MODEL 1
REMARK VINA RESULT:      -6.9      0.000      0.000
REMARK  Name = 
REMARK  9 active torsions:
REMARK  status: ('A' for Active; 'I' for Inactive)
REMARK    1  A    between atoms: C_1  and  O_2
REMARK    2  A    between atoms: O_2  and  C_3
REMARK    3  A    between atoms: C_5  and  N_6
REMARK    4  A    between atoms: C_10  and  C_11
REMARK    5  A    between atoms: C_14  and  N_15
REMARK    6  A    between atoms: C_19  and  O_20
REMARK    7  A    between atoms: O_20  and  C_21
REMARK    8  A    between atoms: C_22  and  O_23
REMARK    9  A    between atoms: O_23  and  C_24
REMARK                            x       y       z     vdW  Elec       q    Type
REMARK                         _______ _______ _______ _____ _____    ______ ____
ROOT
ATOM      1  N   UNL     1       3.539   3.462  18.281  0.00  0.00    +0.000 N 
ATOM      2  C   UNL     1       3.228   2.173  17.895  0.00  0.00    +0.000 A 
ATOM      3  N   UNL     1       2.041   1.795  18.304  0.00  0.00    +0.000 NA
ATOM      4  C   UNL     1       1.520   2.894  18.926  0.00  0.00    +0.000 A 
ATOM      5  C   UNL     1       2.391   3.977  18.889  0.00  0.00    +0.000 A 
ENDROOT
BRANCH   1   8
ATOM      6  C   UNL     1       6.146   5.348  16.442  0.00  0.00    +0.000 A 
ATOM      7  C   UNL     1       5.110   4.434  16.698  0.00  0.00    +0.000 A 
ATOM      8  C   UNL     1       4.773   4.113  18.010  0.00  0.00    +0.000 A 
ATOM      9  C   UNL     1       5.588   4.552  19.051  0.00  0.00    +0.000 A 
ATOM     10  C   UNL     1       6.677   5.402  18.809  0.00  0.00    +0.000 A 
ATOM     11  C   UNL     1       6.965   5.825  17.494  0.00  0.00    +0.000 A 
BRANCH   6  13
ATOM     12  C   UNL     1       6.774   4.778  14.225  0.00  0.00    +0.000 C 
ATOM     13  O   UNL     1       6.358   5.780  15.155  0.00  0.00    +0.000 OA
ENDBRANCH   6  13
BRANCH  10  14
ATOM     14  O   UNL     1       7.292   5.750  19.986  0.00  0.00    +0.000 OA
ATOM     15  C   UNL     1       8.558   5.203  20.313  0.00  0.00    +0.000 C 
ENDBRANCH  10  14
BRANCH  11  16
ATOM     16  O   UNL     1       8.015   6.693  17.366  0.00  0.00    +0.000 OA
ATOM     17  C   UNL     1       7.853   8.081  17.590  0.00  0.00    +0.000 C 
ENDBRANCH  11  16
ENDBRANCH   1   8
BRANCH   5  18
ATOM     18  C   UNL     1       2.113   5.372  19.275  0.00  0.00    +0.000 A 
ATOM     19  C   UNL     1       1.593   5.667  20.541  0.00  0.00    +0.000 A 
ATOM     20  C   UNL     1       1.330   6.992  20.918  0.00  0.00    +0.000 A 
ATOM     21  C   UNL     1       1.641   8.055  20.069  0.00  0.00    +0.000 A 
ATOM     22  C   UNL     1       2.079   7.763  18.780  0.00  0.00    +0.000 A 
ATOM     23  C   UNL     1       2.290   6.440  18.382  0.00  0.00    +0.000 A 
BRANCH  21  24
ATOM     24  N   UNL     1       1.298   9.368  20.414  0.00  0.00    +0.000 N 
ATOM     25  H   UNL     1       1.527   9.608  21.373  0.00  0.00    +0.000 HD
ATOM     26  H   UNL     1       1.642  10.059  19.755  0.00  0.00    +0.000 HD
ENDBRANCH  21  24
ENDBRANCH   5  18
TORSDOF 6
ENDMDL
MODEL 2
REMARK VINA RESULT:      -6.6      0.555      1.125
REMARK  Name = 
REMARK  9 active torsions:
REMARK  status: ('A' for Active; 'I' for Inactive)
REMARK    1  A    between atoms: C_1  and  O_2
REMARK    2  A    between atoms: O_2  and  C_3
REMARK    3  A    between atoms: C_5  and  N_6
REMARK    4  A    between atoms: C_10  and  C_11
REMARK    5  A    between atoms: C_14  and  N_15
REMARK    6  A    between atoms: C_19  and  O_20
REMARK    7  A    between atoms: O_20  and  C_21
REMARK    8  A    between atoms: C_22  and  O_23
REMARK    9  A    between atoms: O_23  and  C_24
REMARK                            x       y       z     vdW  Elec       q    Type
REMARK                         _______ _______ _______ _____ _____    ______ ____
ROOT
ATOM      1  N   UNL     1       3.330   3.859  18.701  0.00  0.00    +0.000 N 
ATOM      2  C   UNL     1       2.968   2.536  18.538  0.00  0.00    +0.000 A 
ATOM      3  N   UNL     1       1.780   2.272  19.025  0.00  0.00    +0.000 NA
ATOM      4  C   UNL     1       1.310   3.476  19.468  0.00  0.00    +0.000 A 
ATOM      5  C   UNL     1       2.213   4.507  19.238  0.00  0.00    +0.000 A 
ENDROOT
BRANCH   1   8
ATOM      6  C   UNL     1       5.887   5.504  16.581  0.00  0.00    +0.000 A 
ATOM      7  C   UNL     1       4.817   4.674  16.956  0.00  0.00    +0.000 A 
ATOM      8  C   UNL     1       4.576   4.413  18.303  0.00  0.00    +0.000 A 
ATOM      9  C   UNL     1       5.508   4.820  19.254  0.00  0.00    +0.000 A 
ATOM     10  C   UNL     1       6.628   5.584  18.891  0.00  0.00    +0.000 A 
ATOM     11  C   UNL     1       6.827   5.949  17.542  0.00  0.00    +0.000 A 
BRANCH   6  13
ATOM     12  C   UNL     1       6.685   4.956  14.414  0.00  0.00    +0.000 C 
ATOM     13  O   UNL     1       6.013   5.885  15.268  0.00  0.00    +0.000 OA
ENDBRANCH   6  13
BRANCH  10  14
ATOM     14  O   UNL     1       7.367   5.918  19.998  0.00  0.00    +0.000 OA
ATOM     15  C   UNL     1       8.565   5.217  20.289  0.00  0.00    +0.000 C 
ENDBRANCH  10  14
BRANCH  11  16
ATOM     16  O   UNL     1       7.919   6.736  17.295  0.00  0.00    +0.000 OA
ATOM     17  C   UNL     1       7.904   8.123  17.576  0.00  0.00    +0.000 C 
ENDBRANCH  11  16
ENDBRANCH   1   8
BRANCH   5  18
ATOM     18  C   UNL     1       1.991   5.955  19.395  0.00  0.00    +0.000 A 
ATOM     19  C   UNL     1       2.215   6.828  18.324  0.00  0.00    +0.000 A 
ATOM     20  C   UNL     1       2.001   8.207  18.464  0.00  0.00    +0.000 A 
ATOM     21  C   UNL     1       1.496   8.738  19.652  0.00  0.00    +0.000 A 
ATOM     22  C   UNL     1       1.352   7.887  20.744  0.00  0.00    +0.000 A 
ATOM     23  C   UNL     1       1.617   6.520  20.624  0.00  0.00    +0.000 A 
BRANCH  21  24
ATOM     24  N   UNL     1       1.366  10.122  19.816  0.00  0.00    +0.000 N 
ATOM     25  H   UNL     1       0.952  10.388  20.703  0.00  0.00    +0.000 HD
ATOM     26  H   UNL     1       2.224  10.630  19.626  0.00  0.00    +0.000 HD
ENDBRANCH  21  24
ENDBRANCH   5  18
TORSDOF 6
ENDMDL
MODEL 3
REMARK VINA RESULT:      -6.6      2.927      5.897
REMARK  Name = 
REMARK  9 active torsions:
REMARK  status: ('A' for Active; 'I' for Inactive)
REMARK    1  A    between atoms: C_1  and  O_2
REMARK    2  A    between atoms: O_2  and  C_3
REMARK    3  A    between atoms: C_5  and  N_6
REMARK    4  A    between atoms: C_10  and  C_11
REMARK    5  A    between atoms: C_14  and  N_15
REMARK    6  A    between atoms: C_19  and  O_20
REMARK    7  A    between atoms: O_20  and  C_21
REMARK    8  A    between atoms: C_22  and  O_23
REMARK    9  A    between atoms: O_23  and  C_24
REMARK                            x       y       z     vdW  Elec       q    Type
REMARK                         _______ _______ _______ _____ _____    ______ ____
ROOT
ATOM      1  N   UNL     1       2.718   4.495  20.236  0.00  0.00    +0.000 N 
ATOM      2  C   UNL     1       2.244   3.768  21.310  0.00  0.00    +0.000 A 
ATOM      3  N   UNL     1       2.785   2.578  21.394  0.00  0.00    +0.000 NA
ATOM      4  C   UNL     1       3.698   2.537  20.380  0.00  0.00    +0.000 A 
ATOM      5  C   UNL     1       3.737   3.728  19.663  0.00  0.00    +0.000 A 
ENDROOT
BRANCH   1   8
ATOM      6  C   UNL     1       1.466   7.964  20.607  0.00  0.00    +0.000 A 
ATOM      7  C   UNL     1       1.617   6.584  20.824  0.00  0.00    +0.000 A 
ATOM      8  C   UNL     1       2.278   5.799  19.882  0.00  0.00    +0.000 A 
ATOM      9  C   UNL     1       2.614   6.351  18.649  0.00  0.00    +0.000 A 
ATOM     10  C   UNL     1       2.399   7.711  18.381  0.00  0.00    +0.000 A 
ATOM     11  C   UNL     1       1.830   8.545  19.368  0.00  0.00    +0.000 A 
BRANCH   6  13
ATOM     12  C   UNL     1      -0.438   8.613  21.868  0.00  0.00    +0.000 C 
ATOM     13  O   UNL     1       0.962   8.751  21.614  0.00  0.00    +0.000 OA
ENDBRANCH   6  13
BRANCH  10  14
ATOM     14  O   UNL     1       2.863   8.040  17.131  0.00  0.00    +0.000 OA
ATOM     15  C   UNL     1       4.086   7.497  16.664  0.00  0.00    +0.000 C 
ENDBRANCH  10  14
BRANCH  11  16
ATOM     16  O   UNL     1       1.706   9.865  19.032  0.00  0.00    +0.000 OA
ATOM     17  C   UNL     1       0.482  10.390  18.551  0.00  0.00    +0.000 C 
ENDBRANCH  11  16
ENDBRANCH   1   8
BRANCH   5  18
ATOM     18  C   UNL     1       4.713   4.133  18.636  0.00  0.00    +0.000 A 
ATOM     19  C   UNL     1       5.811   4.930  18.977  0.00  0.00    +0.000 A 
ATOM     20  C   UNL     1       6.747   5.317  18.007  0.00  0.00    +0.000 A 
ATOM     21  C   UNL     1       6.646   4.863  16.691  0.00  0.00    +0.000 A 
ATOM     22  C   UNL     1       5.512   4.140  16.329  0.00  0.00    +0.000 A 
ATOM     23  C   UNL     1       4.549   3.800  17.283  0.00  0.00    +0.000 A 
BRANCH  21  24
ATOM     24  N   UNL     1       7.532   5.320  15.709  0.00  0.00    +0.000 N 
ATOM     25  H   UNL     1       8.498   5.355  16.018  0.00  0.00    +0.000 HD
ATOM     26  H   UNL     1       7.432   4.835  14.822  0.00  0.00    +0.000 HD
ENDBRANCH  21  24
ENDBRANCH   5  18
TORSDOF 6
ENDMDL
MODEL 4
REMARK VINA RESULT:      -6.4      3.012      5.591
REMARK  Name = 
REMARK  9 active torsions:
REMARK  status: ('A' for Active; 'I' for Inactive)
REMARK    1  A    between atoms: C_1  and  O_2
REMARK    2  A    between atoms: O_2  and  C_3
REMARK    3  A    between atoms: C_5  and  N_6
REMARK    4  A    between atoms: C_10  and  C_11
REMARK    5  A    between atoms: C_14  and  N_15
REMARK    6  A    between atoms: C_19  and  O_20
REMARK    7  A    between atoms: O_20  and  C_21
REMARK    8  A    between atoms: C_22  and  O_23
REMARK    9  A    between atoms: O_23  and  C_24
REMARK                            x       y       z     vdW  Elec       q    Type
REMARK                         _______ _______ _______ _____ _____    ______ ____
ROOT
ATOM      1  N   UNL     1       2.543   4.590  20.300  0.00  0.00    +0.000 N 
ATOM      2  C   UNL     1       1.918   3.887  21.312  0.00  0.00    +0.000 A 
ATOM      3  N   UNL     1       2.210   2.610  21.296  0.00  0.00    +0.000 NA
ATOM      4  C   UNL     1       3.112   2.471  20.279  0.00  0.00    +0.000 A 
ATOM      5  C   UNL     1       3.397   3.685  19.664  0.00  0.00    +0.000 A 
ENDROOT
BRANCH   1   8
ATOM      6  C   UNL     1       2.509   7.825  18.492  0.00  0.00    +0.000 A 
ATOM      7  C   UNL     1       2.927   6.552  18.913  0.00  0.00    +0.000 A 
ATOM      8  C   UNL     1       2.376   5.980  20.057  0.00  0.00    +0.000 A 
ATOM      9  C   UNL     1       1.559   6.752  20.880  0.00  0.00    +0.000 A 
ATOM     10  C   UNL     1       1.192   8.056  20.518  0.00  0.00    +0.000 A 
ATOM     11  C   UNL     1       1.656   8.610  19.304  0.00  0.00    +0.000 A 
BRANCH   6  13
ATOM     12  C   UNL     1       4.032   7.605  16.684  0.00  0.00    +0.000 C 
ATOM     13  O   UNL     1       2.935   8.305  17.278  0.00  0.00    +0.000 OA
ENDBRANCH   6  13
BRANCH  10  14
ATOM     14  O   UNL     1       0.338   8.596  21.447  0.00  0.00    +0.000 OA
ATOM     15  C   UNL     1       0.855   9.329  22.545  0.00  0.00    +0.000 C 
ENDBRANCH  10  14
BRANCH  11  16
ATOM     16  O   UNL     1       1.204   9.869  19.016  0.00  0.00    +0.000 OA
ATOM     17  C   UNL     1      -0.018  10.072  18.328  0.00  0.00    +0.000 C 
ENDBRANCH  11  16
ENDBRANCH   1   8
BRANCH   5  18
ATOM     18  C   UNL     1       4.449   3.969  18.673  0.00  0.00    +0.000 A 
ATOM     19  C   UNL     1       4.267   3.628  17.328  0.00  0.00    +0.000 A 
ATOM     20  C   UNL     1       5.262   3.898  16.377  0.00  0.00    +0.000 A 
ATOM     21  C   UNL     1       6.430   4.574  16.733  0.00  0.00    +0.000 A 
ATOM     22  C   UNL     1       6.652   4.841  18.081  0.00  0.00    +0.000 A 
ATOM     23  C   UNL     1       5.686   4.522  19.040  0.00  0.00    +0.000 A 
BRANCH  21  24
ATOM     24  N   UNL     1       7.456   4.766  15.800  0.00  0.00    +0.000 N 
ATOM     25  H   UNL     1       7.664   5.743  15.621  0.00  0.00    +0.000 HD
ATOM     26  H   UNL     1       8.292   4.229  16.007  0.00  0.00    +0.000 HD
ENDBRANCH  21  24
ENDBRANCH   5  18
TORSDOF 6
ENDMDL
MODEL 5
REMARK VINA RESULT:      -6.2      3.587      6.142
REMARK  Name = 
REMARK  9 active torsions:
REMARK  status: ('A' for Active; 'I' for Inactive)
REMARK    1  A    between atoms: C_1  and  O_2
REMARK    2  A    between atoms: O_2  and  C_3
REMARK    3  A    between atoms: C_5  and  N_6
REMARK    4  A    between atoms: C_10  and  C_11
REMARK    5  A    between atoms: C_14  and  N_15
REMARK    6  A    between atoms: C_19  and  O_20
REMARK    7  A    between atoms: O_20  and  C_21
REMARK    8  A    between atoms: C_22  and  O_23
REMARK    9  A    between atoms: O_23  and  C_24
REMARK                            x       y       z     vdW  Elec       q    Type
REMARK                         _______ _______ _______ _____ _____    ______ ____
ROOT
ATOM      1  N   UNL     1       2.081   5.738  19.974  0.00  0.00    +0.000 N 
ATOM      2  C   UNL     1       1.326   4.789  20.636  0.00  0.00    +0.000 A 
ATOM      3  N   UNL     1       1.683   3.563  20.340  0.00  0.00    +0.000 NA
ATOM      4  C   UNL     1       2.754   3.703  19.505  0.00  0.00    +0.000 A 
ATOM      5  C   UNL     1       3.079   5.038  19.291  0.00  0.00    +0.000 A 
ENDROOT
BRANCH   1   8
ATOM      6  C   UNL     1       1.166   9.201  19.022  0.00  0.00    +0.000 A 
ATOM      7  C   UNL     1       1.673   7.895  18.924  0.00  0.00    +0.000 A 
ATOM      8  C   UNL     1       1.887   7.142  20.076  0.00  0.00    +0.000 A 
ATOM      9  C   UNL     1       1.778   7.755  21.322  0.00  0.00    +0.000 A 
ATOM     10  C   UNL     1       1.348   9.085  21.439  0.00  0.00    +0.000 A 
ATOM     11  C   UNL     1       1.022   9.828  20.283  0.00  0.00    +0.000 A 
BRANCH   6  13
ATOM     12  C   UNL     1      -0.601   9.988  17.645  0.00  0.00    +0.000 C 
ATOM     13  O   UNL     1       0.805   9.869  17.878  0.00  0.00    +0.000 OA
ENDBRANCH   6  13
BRANCH  10  14
ATOM     14  O   UNL     1       1.258   9.452  22.759  0.00  0.00    +0.000 OA
ATOM     15  C   UNL     1      -0.008   9.509  23.394  0.00  0.00    +0.000 C 
ENDBRANCH  10  14
BRANCH  11  16
ATOM     16  O   UNL     1       0.565  11.099  20.503  0.00  0.00    +0.000 OA
ATOM     17  C   UNL     1       1.429  12.217  20.409  0.00  0.00    +0.000 C 
ENDBRANCH  11  16
ENDBRANCH   1   8
BRANCH   5  18
ATOM     18  C   UNL     1       4.272   5.580  18.618  0.00  0.00    +0.000 A 
ATOM     19  C   UNL     1       5.539   5.439  19.196  0.00  0.00    +0.000 A 
ATOM     20  C   UNL     1       6.680   5.948  18.560  0.00  0.00    +0.000 A 
ATOM     21  C   UNL     1       6.593   6.549  17.304  0.00  0.00    +0.000 A 
ATOM     22  C   UNL     1       5.329   6.767  16.763  0.00  0.00    +0.000 A 
ATOM     23  C   UNL     1       4.184   6.309  17.422  0.00  0.00    +0.000 A 
BRANCH  21  24
ATOM     24  N   UNL     1       7.720   7.132  16.712  0.00  0.00    +0.000 N 
ATOM     25  H   UNL     1       8.374   7.523  17.382  0.00  0.00    +0.000 HD
ATOM     26  H   UNL     1       8.179   6.525  16.040  0.00  0.00    +0.000 HD
ENDBRANCH  21  24
ENDBRANCH   5  18
TORSDOF 6
ENDMDL
MODEL 6
REMARK VINA RESULT:      -6.1      3.550      6.198
REMARK  Name = 
REMARK  9 active torsions:
REMARK  status: ('A' for Active; 'I' for Inactive)
REMARK    1  A    between atoms: C_1  and  O_2
REMARK    2  A    between atoms: O_2  and  C_3
REMARK    3  A    between atoms: C_5  and  N_6
REMARK    4  A    between atoms: C_10  and  C_11
REMARK    5  A    between atoms: C_14  and  N_15
REMARK    6  A    between atoms: C_19  and  O_20
REMARK    7  A    between atoms: O_20  and  C_21
REMARK    8  A    between atoms: C_22  and  O_23
REMARK    9  A    between atoms: O_23  and  C_24
REMARK                            x       y       z     vdW  Elec       q    Type
REMARK                         _______ _______ _______ _____ _____    ______ ____
ROOT
ATOM      1  N   UNL     1       2.042   5.759  19.972  0.00  0.00    +0.000 N 
ATOM      2  C   UNL     1       1.250   4.825  20.612  0.00  0.00    +0.000 A 
ATOM      3  N   UNL     1       1.545   3.594  20.274  0.00  0.00    +0.000 NA
ATOM      4  C   UNL     1       2.614   3.710  19.432  0.00  0.00    +0.000 A 
ATOM      5  C   UNL     1       3.000   5.034  19.256  0.00  0.00    +0.000 A 
ENDROOT
BRANCH   1   8
ATOM      6  C   UNL     1       1.495   9.314  19.081  0.00  0.00    +0.000 A 
ATOM      7  C   UNL     1       1.935   7.983  18.993  0.00  0.00    +0.000 A 
ATOM      8  C   UNL     1       1.916   7.166  20.120  0.00  0.00    +0.000 A 
ATOM      9  C   UNL     1       1.642   7.728  21.365  0.00  0.00    +0.000 A 
ATOM     10  C   UNL     1       1.277   9.076  21.486  0.00  0.00    +0.000 A 
ATOM     11  C   UNL     1       1.185   9.891  20.337  0.00  0.00    +0.000 A 
BRANCH   6  13
ATOM     12  C   UNL     1       2.304  11.120  17.770  0.00  0.00    +0.000 C 
ATOM     13  O   UNL     1       1.363  10.056  17.933  0.00  0.00    +0.000 OA
ENDBRANCH   6  13
BRANCH  10  14
ATOM     14  O   UNL     1       0.996   9.388  22.794  0.00  0.00    +0.000 OA
ATOM     15  C   UNL     1      -0.351   9.470  23.229  0.00  0.00    +0.000 C 
ENDBRANCH  10  14
BRANCH  11  16
ATOM     16  O   UNL     1       0.773  11.178  20.552  0.00  0.00    +0.000 OA
ATOM     17  C   UNL     1      -0.558  11.578  20.282  0.00  0.00    +0.000 C 
ENDBRANCH  11  16
ENDBRANCH   1   8
BRANCH   5  18
ATOM     18  C   UNL     1       4.210   5.541  18.587  0.00  0.00    +0.000 A 
ATOM     19  C   UNL     1       4.131   6.106  17.309  0.00  0.00    +0.000 A 
ATOM     20  C   UNL     1       5.278   6.594  16.666  0.00  0.00    +0.000 A 
ATOM     21  C   UNL     1       6.517   6.590  17.310  0.00  0.00    +0.000 A 
ATOM     22  C   UNL     1       6.616   5.955  18.544  0.00  0.00    +0.000 A 
ATOM     23  C   UNL     1       5.484   5.418  19.163  0.00  0.00    +0.000 A 
BRANCH  21  24
ATOM     24  N   UNL     1       7.672   6.999  16.634  0.00  0.00    +0.000 N 
ATOM     25  H   UNL     1       8.488   7.074  17.233  0.00  0.00    +0.000 HD
ATOM     26  H   UNL     1       7.861   6.455  15.798  0.00  0.00    +0.000 HD
ENDBRANCH  21  24
ENDBRANCH   5  18
TORSDOF 6
ENDMDL
MODEL 7
REMARK VINA RESULT:      -6.1      1.542      2.994
REMARK  Name = 
REMARK  9 active torsions:
REMARK  status: ('A' for Active; 'I' for Inactive)
REMARK    1  A    between atoms: C_1  and  O_2
REMARK    2  A    between atoms: O_2  and  C_3
REMARK    3  A    between atoms: C_5  and  N_6
REMARK    4  A    between atoms: C_10  and  C_11
REMARK    5  A    between atoms: C_14  and  N_15
REMARK    6  A    between atoms: C_19  and  O_20
REMARK    7  A    between atoms: O_20  and  C_21
REMARK    8  A    between atoms: C_22  and  O_23
REMARK    9  A    between atoms: O_23  and  C_24
REMARK                            x       y       z     vdW  Elec       q    Type
REMARK                         _______ _______ _______ _____ _____    ______ ____
ROOT
ATOM      1  N   UNL     1       3.416   4.367  19.556  0.00  0.00    +0.000 N 
ATOM      2  C   UNL     1       3.128   3.134  20.109  0.00  0.00    +0.000 A 
ATOM      3  N   UNL     1       2.132   3.180  20.958  0.00  0.00    +0.000 NA
ATOM      4  C   UNL     1       1.699   4.475  20.919  0.00  0.00    +0.000 A 
ATOM      5  C   UNL     1       2.430   5.243  20.018  0.00  0.00    +0.000 A 
ENDROOT
BRANCH   1   8
ATOM      6  C   UNL     1       6.757   5.329  18.272  0.00  0.00    +0.000 A 
ATOM      7  C   UNL     1       5.583   5.348  19.043  0.00  0.00    +0.000 A 
ATOM      8  C   UNL     1       4.470   4.616  18.636  0.00  0.00    +0.000 A 
ATOM      9  C   UNL     1       4.465   4.028  17.374  0.00  0.00    +0.000 A 
ATOM     10  C   UNL     1       5.601   4.065  16.552  0.00  0.00    +0.000 A 
ATOM     11  C   UNL     1       6.775   4.710  16.999  0.00  0.00    +0.000 A 
BRANCH   6  13
ATOM     12  C   UNL     1       8.095   7.286  18.403  0.00  0.00    +0.000 C 
ATOM     13  O   UNL     1       7.895   5.918  18.767  0.00  0.00    +0.000 OA
ENDBRANCH   6  13
BRANCH  10  14
ATOM     14  O   UNL     1       5.383   3.370  15.389  0.00  0.00    +0.000 OA
ATOM     15  C   UNL     1       5.009   4.062  14.209  0.00  0.00    +0.000 C 
ENDBRANCH  10  14
BRANCH  11  16
ATOM     16  O   UNL     1       7.846   4.650  16.148  0.00  0.00    +0.000 OA
ATOM     17  C   UNL     1       7.833   5.324  14.903  0.00  0.00    +0.000 C 
ENDBRANCH  11  16
ENDBRANCH   1   8
BRANCH   5  18
ATOM     18  C   UNL     1       2.143   6.613  19.559  0.00  0.00    +0.000 A 
ATOM     19  C   UNL     1       1.656   7.573  20.454  0.00  0.00    +0.000 A 
ATOM     20  C   UNL     1       1.384   8.881  20.026  0.00  0.00    +0.000 A 
ATOM     21  C   UNL     1       1.654   9.278  18.716  0.00  0.00    +0.000 A 
ATOM     22  C   UNL     1       2.058   8.308  17.803  0.00  0.00    +0.000 A 
ATOM     23  C   UNL     1       2.277   6.990  18.214  0.00  0.00    +0.000 A 
BRANCH  21  24
ATOM     24  N   UNL     1       1.302  10.558  18.272  0.00  0.00    +0.000 N 
ATOM     25  H   UNL     1       1.160  10.615  17.269  0.00  0.00    +0.000 HD
ATOM     26  H   UNL     1       0.529  10.964  18.790  0.00  0.00    +0.000 HD
ENDBRANCH  21  24
ENDBRANCH   5  18
TORSDOF 6
ENDMDL
MODEL 8
REMARK VINA RESULT:      -6.0      3.316      5.980
REMARK  Name = 
REMARK  9 active torsions:
REMARK  status: ('A' for Active; 'I' for Inactive)
REMARK    1  A    between atoms: C_1  and  O_2
REMARK    2  A    between atoms: O_2  and  C_3
REMARK    3  A    between atoms: C_5  and  N_6
REMARK    4  A    between atoms: C_10  and  C_11
REMARK    5  A    between atoms: C_14  and  N_15
REMARK    6  A    between atoms: C_19  and  O_20
REMARK    7  A    between atoms: O_20  and  C_21
REMARK    8  A    between atoms: C_22  and  O_23
REMARK    9  A    between atoms: O_23  and  C_24
REMARK                            x       y       z     vdW  Elec       q    Type
REMARK                         _______ _______ _______ _____ _____    ______ ____
ROOT
ATOM      1  N   UNL     1       2.146   5.361  19.849  0.00  0.00    +0.000 N 
ATOM      2  C   UNL     1       1.387   4.453  20.561  0.00  0.00    +0.000 A 
ATOM      3  N   UNL     1       1.675   3.209  20.265  0.00  0.00    +0.000 NA
ATOM      4  C   UNL     1       2.706   3.292  19.374  0.00  0.00    +0.000 A 
ATOM      5  C   UNL     1       3.076   4.609  19.124  0.00  0.00    +0.000 A 
ENDROOT
BRANCH   1   8
ATOM      6  C   UNL     1       1.736   8.892  18.799  0.00  0.00    +0.000 A 
ATOM      7  C   UNL     1       2.170   7.555  18.799  0.00  0.00    +0.000 A 
ATOM      8  C   UNL     1       2.019   6.773  19.940  0.00  0.00    +0.000 A 
ATOM      9  C   UNL     1       1.616   7.373  21.131  0.00  0.00    +0.000 A 
ATOM     10  C   UNL     1       1.253   8.727  21.172  0.00  0.00    +0.000 A 
ATOM     11  C   UNL     1       1.297   9.508  19.996  0.00  0.00    +0.000 A 
BRANCH   6  13
ATOM     12  C   UNL     1       2.452  10.838  17.644  0.00  0.00    +0.000 C 
ATOM     13  O   UNL     1       1.738   9.599  17.622  0.00  0.00    +0.000 OA
ENDBRANCH   6  13
BRANCH  10  14
ATOM     14  O   UNL     1       0.834   9.080  22.431  0.00  0.00    +0.000 OA
ATOM     15  C   UNL     1      -0.551   9.134  22.727  0.00  0.00    +0.000 C 
ENDBRANCH  10  14
BRANCH  11  16
ATOM     16  O   UNL     1       0.877  10.803  20.127  0.00  0.00    +0.000 OA
ATOM     17  C   UNL     1      -0.453  11.179  19.820  0.00  0.00    +0.000 C 
ENDBRANCH  11  16
ENDBRANCH   1   8
BRANCH   5  18
ATOM     18  C   UNL     1       4.254   5.090  18.381  0.00  0.00    +0.000 A 
ATOM     19  C   UNL     1       5.408   5.490  19.065  0.00  0.00    +0.000 A 
ATOM     20  C   UNL     1       6.536   5.946  18.366  0.00  0.00    +0.000 A 
ATOM     21  C   UNL     1       6.562   5.950  16.971  0.00  0.00    +0.000 A 
ATOM     22  C   UNL     1       5.390   5.633  16.289  0.00  0.00    +0.000 A 
ATOM     23  C   UNL     1       4.246   5.232  16.985  0.00  0.00    +0.000 A 
BRANCH  21  24
ATOM     24  N   UNL     1       7.655   6.485  16.279  0.00  0.00    +0.000 N 
ATOM     25  H   UNL     1       7.751   6.128  15.334  0.00  0.00    +0.000 HD
ATOM     26  H   UNL     1       7.692   7.499  16.310  0.00  0.00    +0.000 HD
ENDBRANCH  21  24
ENDBRANCH   5  18
TORSDOF 6
ENDMDL
MODEL 9
REMARK VINA RESULT:      -6.0      1.292      3.154
REMARK  Name = 
REMARK  9 active torsions:
REMARK  status: ('A' for Active; 'I' for Inactive)
REMARK    1  A    between atoms: C_1  and  O_2
REMARK    2  A    between atoms: O_2  and  C_3
REMARK    3  A    between atoms: C_5  and  N_6
REMARK    4  A    between atoms: C_10  and  C_11
REMARK    5  A    between atoms: C_14  and  N_15
REMARK    6  A    between atoms: C_19  and  O_20
REMARK    7  A    between atoms: O_20  and  C_21
REMARK    8  A    between atoms: C_22  and  O_23
REMARK    9  A    between atoms: O_23  and  C_24
REMARK                            x       y       z     vdW  Elec       q    Type
REMARK                         _______ _______ _______ _____ _____    ______ ____
ROOT
ATOM      1  N   UNL     1       3.904   3.529  17.735  0.00  0.00    +0.000 N 
ATOM      2  C   UNL     1       3.709   2.164  17.823  0.00  0.00    +0.000 A 
ATOM      3  N   UNL     1       2.834   1.836  18.742  0.00  0.00    +0.000 NA
ATOM      4  C   UNL     1       2.382   3.027  19.235  0.00  0.00    +0.000 A 
ATOM      5  C   UNL     1       2.975   4.113  18.602  0.00  0.00    +0.000 A 
ENDROOT
BRANCH   1   8
ATOM      6  C   UNL     1       6.766   5.583  16.583  0.00  0.00    +0.000 A 
ATOM      7  C   UNL     1       5.648   5.176  17.331  0.00  0.00    +0.000 A 
ATOM      8  C   UNL     1       4.822   4.162  16.855  0.00  0.00    +0.000 A 
ATOM      9  C   UNL     1       4.999   3.692  15.556  0.00  0.00    +0.000 A 
ATOM     10  C   UNL     1       6.063   4.142  14.761  0.00  0.00    +0.000 A 
ATOM     11  C   UNL     1       6.974   5.092  15.272  0.00  0.00    +0.000 A 
BRANCH   6  13
ATOM     12  C   UNL     1       7.782   6.411  18.562  0.00  0.00    +0.000 C 
ATOM     13  O   UNL     1       7.662   6.463  17.138  0.00  0.00    +0.000 OA
ENDBRANCH   6  13
BRANCH  10  14
ATOM     14  O   UNL     1       6.071   3.497  13.549  0.00  0.00    +0.000 OA
ATOM     15  C   UNL     1       4.923   3.534  12.719  0.00  0.00    +0.000 C 
ENDBRANCH  10  14
BRANCH  11  16
ATOM     16  O   UNL     1       8.006   5.432  14.440  0.00  0.00    +0.000 OA
ATOM     17  C   UNL     1       7.827   5.499  13.037  0.00  0.00    +0.000 C 
ENDBRANCH  11  16
ENDBRANCH   1   8
BRANCH   5  18
ATOM     18  C   UNL     1       2.610   5.536  18.719  0.00  0.00    +0.000 A 
ATOM     19  C   UNL     1       2.330   6.095  19.971  0.00  0.00    +0.000 A 
ATOM     20  C   UNL     1       1.986   7.449  20.093  0.00  0.00    +0.000 A 
ATOM     21  C   UNL     1       1.979   8.290  18.979  0.00  0.00    +0.000 A 
ATOM     22  C   UNL     1       2.174   7.722  17.723  0.00  0.00    +0.000 A 
ATOM     23  C   UNL     1       2.462   6.361  17.593  0.00  0.00    +0.000 A 
BRANCH  21  24
ATOM     24  N   UNL     1       1.552   9.619  19.091  0.00  0.00    +0.000 N 
ATOM     25  H   UNL     1       1.188  10.003  18.225  0.00  0.00    +0.000 HD
ATOM     26  H   UNL     1       0.922   9.773  19.872  0.00  0.00    +0.000 HD
ENDBRANCH  21  24
ENDBRANCH   5  18
TORSDOF 6
ENDMDL
