MODEL 1
REMARK VINA RESULT:      -7.8      0.000      0.000
REMARK  Name = 
REMARK  9 active torsions:
REMARK  status: ('A' for Active; 'I' for Inactive)
REMARK    1  A    between atoms: C_2  and  O_3
REMARK    2  A    between atoms: C_2  and  C_4
REMARK    3  A    between atoms: C_4  and  O_5
REMARK    4  A    between atoms: O_5  and  C_6
REMARK    5  A    between atoms: C_6  and  C_7
REMARK    6  A    between atoms: C_7  and  N_8
REMARK    7  A    between atoms: C_9  and  C_11
REMARK    8  A    between atoms: C_14  and  N_15
REMARK    9  A    between atoms: N_18  and  C_19
REMARK                            x       y       z     vdW  Elec       q    Type
REMARK                         _______ _______ _______ _____ _____    ______ ____
ROOT
ATOM      1  C   UNL     1       5.840   5.135  18.319  0.00  0.00    +0.000 A 
ATOM      2  C   UNL     1       5.194   6.067  17.514  0.00  0.00    +0.000 A 
ATOM      3  C   UNL     1       5.861   7.232  17.137  0.00  0.00    +0.000 A 
ATOM      4  C   UNL     1       7.170   7.510  17.557  0.00  0.00    +0.000 A 
ATOM      5  C   UNL     1       7.809   6.575  18.380  0.00  0.00    +0.000 A 
ATOM      6  C   UNL     1       7.139   5.401  18.773  0.00  0.00    +0.000 A 
ENDROOT
BRANCH   4   7
ATOM      7  N   UNL     1       7.846   8.709  17.182  0.00  0.00    +0.000 N 
ATOM      8  C   UNL     1       8.476   9.523  18.103  0.00  0.00    +0.000 C 
ATOM      9  O   UNL     1       8.518   9.287  19.312  0.00  0.00    +0.000 OA
ATOM     10  N   UNL     1       9.115  10.622  17.569  0.00  0.00    +0.000 N 
ATOM     11  H   UNL     1       8.067   8.841  16.210  0.00  0.00    +0.000 HD
ATOM     12  H   UNL     1       8.794  10.947  16.668  0.00  0.00    +0.000 HD
BRANCH  10  13
ATOM     13  C   UNL     1       9.766  11.613  18.465  0.00  0.00    +0.000 C 
ATOM     14  C   UNL     1      11.061  11.039  19.112  0.00  0.00    +0.000 C 
ATOM     15  C   UNL     1      11.712  12.064  20.056  0.00  0.00    +0.000 C 
ATOM     16  C   UNL     1      12.101  13.315  19.260  0.00  0.00    +0.000 C 
ATOM     17  C   UNL     1      10.851  13.922  18.601  0.00  0.00    +0.000 C 
ATOM     18  C   UNL     1       9.849  14.322  19.696  0.00  0.00    +0.000 C 
ATOM     19  C   UNL     1       9.457  13.089  20.522  0.00  0.00    +0.000 C 
ATOM     20  C   UNL     1      10.710  12.461  21.153  0.00  0.00    +0.000 C 
ATOM     21  C   UNL     1       8.794  12.062  19.594  0.00  0.00    +0.000 C 
ATOM     22  C   UNL     1      10.199  12.877  17.667  0.00  0.00    +0.000 C 
ENDBRANCH  10  13
ENDBRANCH   4   7
BRANCH   1  24
ATOM     23  N   UNL     1       4.396   3.267  17.723  0.00  0.00    +0.000 N 
ATOM     24  C   UNL     1       5.172   3.863  18.700  0.00  0.00    +0.000 C 
ATOM     25  O   UNL     1       5.353   3.389  19.815  0.00  0.00    +0.000 OA
ATOM     26  H   UNL     1       4.365   3.665  16.796  0.00  0.00    +0.000 HD
BRANCH  23  27
ATOM     27  C   UNL     1       3.680   2.024  17.964  0.00  0.00    +0.000 C 
BRANCH  27  28
ATOM     28  C   UNL     1       2.454   2.208  18.863  0.00  0.00    +0.000 C 
BRANCH  28  29
ATOM     29  O   UNL     1       1.933   3.542  18.768  0.00  0.00    +0.000 OA
BRANCH  29  30
ATOM     30  C   UNL     1       1.187   3.875  19.946  0.00  0.00    +0.000 C 
BRANCH  30  32
ATOM     31  O   UNL     1       2.164   3.515  22.143  0.00  0.00    +0.000 OA
ATOM     32  C   UNL     1       2.125   4.167  21.109  0.00  0.00    +0.000 C 
BRANCH  32  33
ATOM     33  O   UNL     1       2.924   5.234  20.874  0.00  0.00    +0.000 OA
ATOM     34  H   UNL     1       3.463   5.043  20.072  0.00  0.00    +0.000 HD
ENDBRANCH  32  33
ENDBRANCH  30  32
ENDBRANCH  29  30
ENDBRANCH  28  29
ENDBRANCH  27  28
ENDBRANCH  23  27
ENDBRANCH   1  24
TORSDOF 9
ENDMDL
MODEL 2
REMARK VINA RESULT:      -7.7      0.876      1.006
REMARK  Name = 
REMARK  9 active torsions:
REMARK  status: ('A' for Active; 'I' for Inactive)
REMARK    1  A    between atoms: C_2  and  O_3
REMARK    2  A    between atoms: C_2  and  C_4
REMARK    3  A    between atoms: C_4  and  O_5
REMARK    4  A    between atoms: O_5  and  C_6
REMARK    5  A    between atoms: C_6  and  C_7
REMARK    6  A    between atoms: C_7  and  N_8
REMARK    7  A    between atoms: C_9  and  C_11
REMARK    8  A    between atoms: C_14  and  N_15
REMARK    9  A    between atoms: N_18  and  C_19
REMARK                            x       y       z     vdW  Elec       q    Type
REMARK                         _______ _______ _______ _____ _____    ______ ____
ROOT
ATOM      1  C   UNL     1       5.626   5.485  18.468  0.00  0.00    +0.000 A 
ATOM      2  C   UNL     1       5.183   6.442  17.563  0.00  0.00    +0.000 A 
ATOM      3  C   UNL     1       6.051   7.449  17.143  0.00  0.00    +0.000 A 
ATOM      4  C   UNL     1       7.367   7.544  17.619  0.00  0.00    +0.000 A 
ATOM      5  C   UNL     1       7.803   6.586  18.542  0.00  0.00    +0.000 A 
ATOM      6  C   UNL     1       6.929   5.572  18.978  0.00  0.00    +0.000 A 
ENDROOT
BRANCH   4   7
ATOM      7  N   UNL     1       8.250   8.583  17.201  0.00  0.00    +0.000 N 
ATOM      8  C   UNL     1       8.692   9.571  18.059  0.00  0.00    +0.000 C 
ATOM      9  O   UNL     1       8.375   9.638  19.249  0.00  0.00    +0.000 OA
ATOM     10  N   UNL     1       9.572  10.476  17.504  0.00  0.00    +0.000 N 
ATOM     11  H   UNL     1       8.742   8.462  16.332  0.00  0.00    +0.000 HD
ATOM     12  H   UNL     1       9.548  10.582  16.500  0.00  0.00    +0.000 HD
BRANCH  10  13
ATOM     13  C   UNL     1      10.060  11.627  18.306  0.00  0.00    +0.000 C 
ATOM     14  C   UNL     1      10.668  11.166  19.663  0.00  0.00    +0.000 C 
ATOM     15  C   UNL     1      11.147  12.367  20.496  0.00  0.00    +0.000 C 
ATOM     16  C   UNL     1      12.238  13.118  19.725  0.00  0.00    +0.000 C 
ATOM     17  C   UNL     1      11.684  13.598  18.373  0.00  0.00    +0.000 C 
ATOM     18  C   UNL     1      10.506  14.553  18.622  0.00  0.00    +0.000 C 
ATOM     19  C   UNL     1       9.405  13.831  19.411  0.00  0.00    +0.000 C 
ATOM     20  C   UNL     1       9.967  13.320  20.748  0.00  0.00    +0.000 C 
ATOM     21  C   UNL     1       8.908  12.636  18.586  0.00  0.00    +0.000 C 
ATOM     22  C   UNL     1      11.194  12.382  17.554  0.00  0.00    +0.000 C 
ENDBRANCH  10  13
ENDBRANCH   4   7
BRANCH   1  24
ATOM     23  N   UNL     1       4.690   3.274  18.061  0.00  0.00    +0.000 N 
ATOM     24  C   UNL     1       4.739   4.373  18.898  0.00  0.00    +0.000 C 
ATOM     25  O   UNL     1       4.131   4.453  19.959  0.00  0.00    +0.000 OA
ATOM     26  H   UNL     1       5.289   3.236  17.249  0.00  0.00    +0.000 HD
BRANCH  23  27
ATOM     27  C   UNL     1       3.856   2.120  18.356  0.00  0.00    +0.000 C 
BRANCH  27  28
ATOM     28  C   UNL     1       2.500   2.168  17.647  0.00  0.00    +0.000 C 
BRANCH  28  29
ATOM     29  O   UNL     1       1.483   2.708  18.503  0.00  0.00    +0.000 OA
BRANCH  29  30
ATOM     30  C   UNL     1       1.465   2.018  19.760  0.00  0.00    +0.000 C 
BRANCH  30  32
ATOM     31  O   UNL     1       1.725   2.840  22.033  0.00  0.00    +0.000 OA
ATOM     32  C   UNL     1       1.277   3.002  20.907  0.00  0.00    +0.000 C 
BRANCH  32  33
ATOM     33  O   UNL     1       0.556   4.089  20.544  0.00  0.00    +0.000 OA
ATOM     34  H   UNL     1       0.632   4.196  19.568  0.00  0.00    +0.000 HD
ENDBRANCH  32  33
ENDBRANCH  30  32
ENDBRANCH  29  30
ENDBRANCH  28  29
ENDBRANCH  27  28
ENDBRANCH  23  27
ENDBRANCH   1  24
TORSDOF 9
ENDMDL
MODEL 3
REMARK VINA RESULT:      -7.6      0.832      1.147
REMARK  Name = 
REMARK  9 active torsions:
REMARK  status: ('A' for Active; 'I' for Inactive)
REMARK    1  A    between atoms: C_2  and  O_3
REMARK    2  A    between atoms: C_2  and  C_4
REMARK    3  A    between atoms: C_4  and  O_5
REMARK    4  A    between atoms: O_5  and  C_6
REMARK    5  A    between atoms: C_6  and  C_7
REMARK    6  A    between atoms: C_7  and  N_8
REMARK    7  A    between atoms: C_9  and  C_11
REMARK    8  A    between atoms: C_14  and  N_15
REMARK    9  A    between atoms: N_18  and  C_19
REMARK                            x       y       z     vdW  Elec       q    Type
REMARK                         _______ _______ _______ _____ _____    ______ ____
ROOT
ATOM      1  C   UNL     1       5.696   5.098  18.336  0.00  0.00    +0.000 A 
ATOM      2  C   UNL     1       5.059   6.098  17.610  0.00  0.00    +0.000 A 
ATOM      3  C   UNL     1       5.776   7.224  17.210  0.00  0.00    +0.000 A 
ATOM      4  C   UNL     1       7.131   7.397  17.532  0.00  0.00    +0.000 A 
ATOM      5  C   UNL     1       7.763   6.394  18.276  0.00  0.00    +0.000 A 
ATOM      6  C   UNL     1       7.042   5.259  18.691  0.00  0.00    +0.000 A 
ENDROOT
BRANCH   4   7
ATOM      7  N   UNL     1       7.861   8.557  17.136  0.00  0.00    +0.000 N 
ATOM      8  C   UNL     1       8.499   9.377  18.045  0.00  0.00    +0.000 C 
ATOM      9  O   UNL     1       8.505   9.179  19.262  0.00  0.00    +0.000 OA
ATOM     10  N   UNL     1       9.192  10.433  17.491  0.00  0.00    +0.000 N 
ATOM     11  H   UNL     1       8.109   8.648  16.166  0.00  0.00    +0.000 HD
ATOM     12  H   UNL     1       8.905  10.740  16.573  0.00  0.00    +0.000 HD
BRANCH  10  13
ATOM     13  C   UNL     1       9.859  11.428  18.371  0.00  0.00    +0.000 C 
ATOM     14  C   UNL     1      11.217  11.904  17.775  0.00  0.00    +0.000 C 
ATOM     15  C   UNL     1      11.909  12.914  18.705  0.00  0.00    +0.000 C 
ATOM     16  C   UNL     1      11.015  14.147  18.875  0.00  0.00    +0.000 C 
ATOM     17  C   UNL     1       9.658  13.728  19.464  0.00  0.00    +0.000 C 
ATOM     18  C   UNL     1       9.885  13.086  20.843  0.00  0.00    +0.000 C 
ATOM     19  C   UNL     1      10.795  11.859  20.704  0.00  0.00    +0.000 C 
ATOM     20  C   UNL     1      12.139  12.270  20.082  0.00  0.00    +0.000 C 
ATOM     21  C   UNL     1      10.110  10.836  19.787  0.00  0.00    +0.000 C 
ATOM     22  C   UNL     1       8.980  12.703  18.527  0.00  0.00    +0.000 C 
ENDBRANCH  10  13
ENDBRANCH   4   7
BRANCH   1  24
ATOM     23  N   UNL     1       4.035   3.389  17.835  0.00  0.00    +0.000 N 
ATOM     24  C   UNL     1       4.970   3.865  18.736  0.00  0.00    +0.000 C 
ATOM     25  O   UNL     1       5.240   3.314  19.796  0.00  0.00    +0.000 OA
ATOM     26  H   UNL     1       3.929   3.841  16.938  0.00  0.00    +0.000 HD
BRANCH  23  27
ATOM     27  C   UNL     1       3.247   2.197  18.103  0.00  0.00    +0.000 C 
BRANCH  27  28
ATOM     28  C   UNL     1       1.848   2.516  18.639  0.00  0.00    +0.000 C 
BRANCH  28  29
ATOM     29  O   UNL     1       1.629   1.908  19.920  0.00  0.00    +0.000 OA
BRANCH  29  30
ATOM     30  C   UNL     1       2.152   2.737  20.966  0.00  0.00    +0.000 C 
BRANCH  30  32
ATOM     31  O   UNL     1       0.611   4.561  20.510  0.00  0.00    +0.000 OA
ATOM     32  C   UNL     1       1.751   4.190  20.749  0.00  0.00    +0.000 C 
BRANCH  32  33
ATOM     33  O   UNL     1       2.801   5.038  20.854  0.00  0.00    +0.000 OA
ATOM     34  H   UNL     1       2.963   5.209  21.810  0.00  0.00    +0.000 HD
ENDBRANCH  32  33
ENDBRANCH  30  32
ENDBRANCH  29  30
ENDBRANCH  28  29
ENDBRANCH  27  28
ENDBRANCH  23  27
ENDBRANCH   1  24
TORSDOF 9
ENDMDL
MODEL 4
REMARK VINA RESULT:      -7.6      1.424      2.035
REMARK  Name = 
REMARK  9 active torsions:
REMARK  status: ('A' for Active; 'I' for Inactive)
REMARK    1  A    between atoms: C_2  and  O_3
REMARK    2  A    between atoms: C_2  and  C_4
REMARK    3  A    between atoms: C_4  and  O_5
REMARK    4  A    between atoms: O_5  and  C_6
REMARK    5  A    between atoms: C_6  and  C_7
REMARK    6  A    between atoms: C_7  and  N_8
REMARK    7  A    between atoms: C_9  and  C_11
REMARK    8  A    between atoms: C_14  and  N_15
REMARK    9  A    between atoms: N_18  and  C_19
REMARK                            x       y       z     vdW  Elec       q    Type
REMARK                         _______ _______ _______ _____ _____    ______ ____
ROOT
ATOM      1  C   UNL     1       5.863   5.516  17.404  0.00  0.00    +0.000 A 
ATOM      2  C   UNL     1       6.061   6.793  16.891  0.00  0.00    +0.000 A 
ATOM      3  C   UNL     1       7.043   7.615  17.444  0.00  0.00    +0.000 A 
ATOM      4  C   UNL     1       7.837   7.202  18.523  0.00  0.00    +0.000 A 
ATOM      5  C   UNL     1       7.623   5.921  19.046  0.00  0.00    +0.000 A 
ATOM      6  C   UNL     1       6.627   5.090  18.499  0.00  0.00    +0.000 A 
ENDROOT
BRANCH   4   7
ATOM      7  N   UNL     1       8.832   8.048  19.098  0.00  0.00    +0.000 N 
ATOM      8  C   UNL     1       8.897   9.402  18.832  0.00  0.00    +0.000 C 
ATOM      9  O   UNL     1       8.108   9.994  18.093  0.00  0.00    +0.000 OA
ATOM     10  N   UNL     1       9.895  10.080  19.499  0.00  0.00    +0.000 N 
ATOM     11  H   UNL     1       9.348   7.700  19.887  0.00  0.00    +0.000 HD
ATOM     12  H   UNL     1      10.686   9.538  19.816  0.00  0.00    +0.000 HD
BRANCH  10  13
ATOM     13  C   UNL     1      10.113  11.527  19.240  0.00  0.00    +0.000 C 
ATOM     14  C   UNL     1      10.188  11.833  17.715  0.00  0.00    +0.000 C 
ATOM     15  C   UNL     1      10.438  13.329  17.459  0.00  0.00    +0.000 C 
ATOM     16  C   UNL     1       9.281  14.146  18.044  0.00  0.00    +0.000 C 
ATOM     17  C   UNL     1       9.166  13.879  19.554  0.00  0.00    +0.000 C 
ATOM     18  C   UNL     1      10.473  14.307  20.241  0.00  0.00    +0.000 C 
ATOM     19  C   UNL     1      11.653  13.517  19.659  0.00  0.00    +0.000 C 
ATOM     20  C   UNL     1      11.747  13.755  18.144  0.00  0.00    +0.000 C 
ATOM     21  C   UNL     1      11.423  12.021  19.919  0.00  0.00    +0.000 C 
ATOM     22  C   UNL     1       8.930  12.371  19.796  0.00  0.00    +0.000 C 
ENDBRANCH  10  13
ENDBRANCH   4   7
BRANCH   1  24
ATOM     23  N   UNL     1       3.690   4.426  17.527  0.00  0.00    +0.000 N 
ATOM     24  C   UNL     1       4.857   4.602  16.807  0.00  0.00    +0.000 C 
ATOM     25  O   UNL     1       5.075   4.081  15.719  0.00  0.00    +0.000 OA
ATOM     26  H   UNL     1       3.538   4.958  18.372  0.00  0.00    +0.000 HD
BRANCH  23  27
ATOM     27  C   UNL     1       2.624   3.551  17.063  0.00  0.00    +0.000 C 
BRANCH  27  28
ATOM     28  C   UNL     1       2.523   2.255  17.872  0.00  0.00    +0.000 C 
BRANCH  28  29
ATOM     29  O   UNL     1       3.124   2.400  19.167  0.00  0.00    +0.000 OA
BRANCH  29  30
ATOM     30  C   UNL     1       2.124   2.347  20.193  0.00  0.00    +0.000 C 
BRANCH  30  32
ATOM     31  O   UNL     1       2.517   4.516  21.220  0.00  0.00    +0.000 OA
ATOM     32  C   UNL     1       1.751   3.752  20.651  0.00  0.00    +0.000 C 
BRANCH  32  33
ATOM     33  O   UNL     1       0.470   4.070  20.351  0.00  0.00    +0.000 OA
ATOM     34  H   UNL     1       0.429   4.317  19.398  0.00  0.00    +0.000 HD
ENDBRANCH  32  33
ENDBRANCH  30  32
ENDBRANCH  29  30
ENDBRANCH  28  29
ENDBRANCH  27  28
ENDBRANCH  23  27
ENDBRANCH   1  24
TORSDOF 9
ENDMDL
MODEL 5
REMARK VINA RESULT:      -7.5      1.357      1.964
REMARK  Name = 
REMARK  9 active torsions:
REMARK  status: ('A' for Active; 'I' for Inactive)
REMARK    1  A    between atoms: C_2  and  O_3
REMARK    2  A    between atoms: C_2  and  C_4
REMARK    3  A    between atoms: C_4  and  O_5
REMARK    4  A    between atoms: O_5  and  C_6
REMARK    5  A    between atoms: C_6  and  C_7
REMARK    6  A    between atoms: C_7  and  N_8
REMARK    7  A    between atoms: C_9  and  C_11
REMARK    8  A    between atoms: C_14  and  N_15
REMARK    9  A    between atoms: N_18  and  C_19
REMARK                            x       y       z     vdW  Elec       q    Type
REMARK                         _______ _______ _______ _____ _____    ______ ____
ROOT
ATOM      1  C   UNL     1       5.633   5.306  17.570  0.00  0.00    +0.000 A 
ATOM      2  C   UNL     1       6.052   6.384  16.799  0.00  0.00    +0.000 A 
ATOM      3  C   UNL     1       7.088   7.198  17.255  0.00  0.00    +0.000 A 
ATOM      4  C   UNL     1       7.720   6.976  18.487  0.00  0.00    +0.000 A 
ATOM      5  C   UNL     1       7.284   5.898  19.267  0.00  0.00    +0.000 A 
ATOM      6  C   UNL     1       6.232   5.079  18.817  0.00  0.00    +0.000 A 
ENDROOT
BRANCH   4   7
ATOM      7  N   UNL     1       8.771   7.818  18.960  0.00  0.00    +0.000 N 
ATOM      8  C   UNL     1       8.759   9.188  18.784  0.00  0.00    +0.000 C 
ATOM      9  O   UNL     1       7.850   9.799  18.219  0.00  0.00    +0.000 OA
ATOM     10  N   UNL     1       9.832   9.856  19.337  0.00  0.00    +0.000 N 
ATOM     11  H   UNL     1       9.412   7.437  19.634  0.00  0.00    +0.000 HD
ATOM     12  H   UNL     1      10.676   9.323  19.489  0.00  0.00    +0.000 HD
BRANCH  10  13
ATOM     13  C   UNL     1       9.970  11.324  19.150  0.00  0.00    +0.000 C 
ATOM     14  C   UNL     1       9.268  12.117  20.291  0.00  0.00    +0.000 C 
ATOM     15  C   UNL     1       9.396  13.634  20.075  0.00  0.00    +0.000 C 
ATOM     16  C   UNL     1      10.878  14.026  20.076  0.00  0.00    +0.000 C 
ATOM     17  C   UNL     1      11.617  13.267  18.961  0.00  0.00    +0.000 C 
ATOM     18  C   UNL     1      11.005  13.647  17.603  0.00  0.00    +0.000 C 
ATOM     19  C   UNL     1       9.514  13.283  17.582  0.00  0.00    +0.000 C 
ATOM     20  C   UNL     1       8.780  14.013  18.718  0.00  0.00    +0.000 C 
ATOM     21  C   UNL     1       9.371  11.768  17.784  0.00  0.00    +0.000 C 
ATOM     22  C   UNL     1      11.468  11.745  19.183  0.00  0.00    +0.000 C 
ENDBRANCH  10  13
ENDBRANCH   4   7
BRANCH   1  24
ATOM     23  N   UNL     1       3.468   4.248  17.920  0.00  0.00    +0.000 N 
ATOM     24  C   UNL     1       4.563   4.394  17.089  0.00  0.00    +0.000 C 
ATOM     25  O   UNL     1       4.670   3.850  15.996  0.00  0.00    +0.000 OA
ATOM     26  H   UNL     1       3.403   4.798  18.765  0.00  0.00    +0.000 HD
BRANCH  23  27
ATOM     27  C   UNL     1       2.353   3.380  17.577  0.00  0.00    +0.000 C 
BRANCH  27  28
ATOM     28  C   UNL     1       2.534   1.947  18.086  0.00  0.00    +0.000 C 
BRANCH  28  29
ATOM     29  O   UNL     1       1.829   1.738  19.318  0.00  0.00    +0.000 OA
BRANCH  29  30
ATOM     30  C   UNL     1       1.135   2.931  19.708  0.00  0.00    +0.000 C 
BRANCH  30  32
ATOM     31  O   UNL     1       2.145   4.515  21.251  0.00  0.00    +0.000 OA
ATOM     32  C   UNL     1       1.633   3.421  21.061  0.00  0.00    +0.000 C 
BRANCH  32  33
ATOM     33  O   UNL     1       1.441   2.510  22.045  0.00  0.00    +0.000 OA
ATOM     34  H   UNL     1       1.062   2.976  22.825  0.00  0.00    +0.000 HD
ENDBRANCH  32  33
ENDBRANCH  30  32
ENDBRANCH  29  30
ENDBRANCH  28  29
ENDBRANCH  27  28
ENDBRANCH  23  27
ENDBRANCH   1  24
TORSDOF 9
ENDMDL
MODEL 6
REMARK VINA RESULT:      -7.4      1.465      2.318
REMARK  Name = 
REMARK  9 active torsions:
REMARK  status: ('A' for Active; 'I' for Inactive)
REMARK    1  A    between atoms: C_2  and  O_3
REMARK    2  A    between atoms: C_2  and  C_4
REMARK    3  A    between atoms: C_4  and  O_5
REMARK    4  A    between atoms: O_5  and  C_6
REMARK    5  A    between atoms: C_6  and  C_7
REMARK    6  A    between atoms: C_7  and  N_8
REMARK    7  A    between atoms: C_9  and  C_11
REMARK    8  A    between atoms: C_14  and  N_15
REMARK    9  A    between atoms: N_18  and  C_19
REMARK                            x       y       z     vdW  Elec       q    Type
REMARK                         _______ _______ _______ _____ _____    ______ ____
ROOT
ATOM      1  C   UNL     1       6.100   5.510  17.210  0.00  0.00    +0.000 A 
ATOM      2  C   UNL     1       6.872   5.062  18.277  0.00  0.00    +0.000 A 
ATOM      3  C   UNL     1       7.749   5.941  18.911  0.00  0.00    +0.000 A 
ATOM      4  C   UNL     1       7.896   7.273  18.498  0.00  0.00    +0.000 A 
ATOM      5  C   UNL     1       7.128   7.714  17.413  0.00  0.00    +0.000 A 
ATOM      6  C   UNL     1       6.249   6.830  16.762  0.00  0.00    +0.000 A 
ENDROOT
BRANCH   4   7
ATOM      7  N   UNL     1       8.804   8.168  19.138  0.00  0.00    +0.000 N 
ATOM      8  C   UNL     1       8.980   9.471  18.718  0.00  0.00    +0.000 C 
ATOM      9  O   UNL     1       8.371   9.975  17.772  0.00  0.00    +0.000 OA
ATOM     10  N   UNL     1       9.867  10.212  19.471  0.00  0.00    +0.000 N 
ATOM     11  H   UNL     1       9.148   7.918  20.050  0.00  0.00    +0.000 HD
ATOM     12  H   UNL     1      10.558   9.701  20.000  0.00  0.00    +0.000 HD
BRANCH  10  13
ATOM     13  C   UNL     1      10.196  11.606  19.074  0.00  0.00    +0.000 C 
ATOM     14  C   UNL     1       8.969  12.330  18.446  0.00  0.00    +0.000 C 
ATOM     15  C   UNL     1       9.328  13.763  18.017  0.00  0.00    +0.000 C 
ATOM     16  C   UNL     1       9.768  14.567  19.245  0.00  0.00    +0.000 C 
ATOM     17  C   UNL     1      10.983  13.891  19.902  0.00  0.00    +0.000 C 
ATOM     18  C   UNL     1      12.142  13.851  18.894  0.00  0.00    +0.000 C 
ATOM     19  C   UNL     1      11.721  13.067  17.644  0.00  0.00    +0.000 C 
ATOM     20  C   UNL     1      10.485  13.721  17.005  0.00  0.00    +0.000 C 
ATOM     21  C   UNL     1      11.372  11.630  18.055  0.00  0.00    +0.000 C 
ATOM     22  C   UNL     1      10.612  12.449  20.315  0.00  0.00    +0.000 C 
ENDBRANCH  10  13
ENDBRANCH   4   7
BRANCH   1  24
ATOM     23  N   UNL     1       3.981   4.313  17.262  0.00  0.00    +0.000 N 
ATOM     24  C   UNL     1       5.124   4.610  16.544  0.00  0.00    +0.000 C 
ATOM     25  O   UNL     1       5.344   4.205  15.408  0.00  0.00    +0.000 OA
ATOM     26  H   UNL     1       3.822   4.755  18.156  0.00  0.00    +0.000 HD
BRANCH  23  27
ATOM     27  C   UNL     1       2.947   3.438  16.733  0.00  0.00    +0.000 C 
BRANCH  27  28
ATOM     28  C   UNL     1       2.296   2.566  17.812  0.00  0.00    +0.000 C 
BRANCH  28  29
ATOM     29  O   UNL     1       2.165   3.279  19.050  0.00  0.00    +0.000 OA
BRANCH  29  30
ATOM     30  C   UNL     1       1.419   2.505  19.998  0.00  0.00    +0.000 C 
BRANCH  30  32
ATOM     31  O   UNL     1       1.400   2.380  22.426  0.00  0.00    +0.000 OA
ATOM     32  C   UNL     1       1.664   3.012  21.414  0.00  0.00    +0.000 C 
BRANCH  32  33
ATOM     33  O   UNL     1       2.218   4.247  21.432  0.00  0.00    +0.000 OA
ATOM     34  H   UNL     1       2.505   4.469  20.516  0.00  0.00    +0.000 HD
ENDBRANCH  32  33
ENDBRANCH  30  32
ENDBRANCH  29  30
ENDBRANCH  28  29
ENDBRANCH  27  28
ENDBRANCH  23  27
ENDBRANCH   1  24
TORSDOF 9
ENDMDL
MODEL 7
REMARK VINA RESULT:      -7.4      1.191      2.501
REMARK  Name = 
REMARK  9 active torsions:
REMARK  status: ('A' for Active; 'I' for Inactive)
REMARK    1  A    between atoms: C_2  and  O_3
REMARK    2  A    between atoms: C_2  and  C_4
REMARK    3  A    between atoms: C_4  and  O_5
REMARK    4  A    between atoms: O_5  and  C_6
REMARK    5  A    between atoms: C_6  and  C_7
REMARK    6  A    between atoms: C_7  and  N_8
REMARK    7  A    between atoms: C_9  and  C_11
REMARK    8  A    between atoms: C_14  and  N_15
REMARK    9  A    between atoms: N_18  and  C_19
REMARK                            x       y       z     vdW  Elec       q    Type
REMARK                         _______ _______ _______ _____ _____    ______ ____
ROOT
ATOM      1  C   UNL     1       5.503   5.010  18.292  0.00  0.00    +0.000 A 
ATOM      2  C   UNL     1       6.884   5.039  18.448  0.00  0.00    +0.000 A 
ATOM      3  C   UNL     1       7.599   6.173  18.065  0.00  0.00    +0.000 A 
ATOM      4  C   UNL     1       6.971   7.295  17.505  0.00  0.00    +0.000 A 
ATOM      5  C   UNL     1       5.581   7.254  17.335  0.00  0.00    +0.000 A 
ATOM      6  C   UNL     1       4.855   6.109  17.711  0.00  0.00    +0.000 A 
ENDROOT
BRANCH   4   7
ATOM      7  N   UNL     1       7.704   8.449  17.099  0.00  0.00    +0.000 N 
ATOM      8  C   UNL     1       8.367   9.260  17.999  0.00  0.00    +0.000 C 
ATOM      9  O   UNL     1       8.393   9.057  19.215  0.00  0.00    +0.000 OA
ATOM     10  N   UNL     1       9.059  10.312  17.437  0.00  0.00    +0.000 N 
ATOM     11  H   UNL     1       7.935   8.542  16.125  0.00  0.00    +0.000 HD
ATOM     12  H   UNL     1       8.758  10.625  16.526  0.00  0.00    +0.000 HD
BRANCH  10  13
ATOM     13  C   UNL     1       9.752  11.297  18.308  0.00  0.00    +0.000 C 
ATOM     14  C   UNL     1       8.967  12.639  18.395  0.00  0.00    +0.000 C 
ATOM     15  C   UNL     1       9.706  13.659  19.278  0.00  0.00    +0.000 C 
ATOM     16  C   UNL     1       9.836  13.101  20.700  0.00  0.00    +0.000 C 
ATOM     17  C   UNL     1      10.608  11.771  20.668  0.00  0.00    +0.000 C 
ATOM     18  C   UNL     1      12.015  12.019  20.101  0.00  0.00    +0.000 C 
ATOM     19  C   UNL     1      11.913  12.598  18.684  0.00  0.00    +0.000 C 
ATOM     20  C   UNL     1      11.112  13.910  18.708  0.00  0.00    +0.000 C 
ATOM     21  C   UNL     1      11.189  11.585  17.786  0.00  0.00    +0.000 C 
ATOM     22  C   UNL     1       9.863  10.762  19.765  0.00  0.00    +0.000 C 
ENDBRANCH  10  13
ENDBRANCH   4   7
BRANCH   1  24
ATOM     23  N   UNL     1       4.163   3.909  20.001  0.00  0.00    +0.000 N 
ATOM     24  C   UNL     1       4.710   3.835  18.733  0.00  0.00    +0.000 C 
ATOM     25  O   UNL     1       4.545   2.888  17.972  0.00  0.00    +0.000 OA
ATOM     26  H   UNL     1       4.262   4.758  20.539  0.00  0.00    +0.000 HD
BRANCH  23  27
ATOM     27  C   UNL     1       3.372   2.826  20.562  0.00  0.00    +0.000 C 
BRANCH  27  28
ATOM     28  C   UNL     1       2.142   3.322  21.328  0.00  0.00    +0.000 C 
BRANCH  28  29
ATOM     29  O   UNL     1       1.083   3.691  20.432  0.00  0.00    +0.000 OA
BRANCH  29  30
ATOM     30  C   UNL     1       0.814   2.628  19.508  0.00  0.00    +0.000 C 
BRANCH  30  32
ATOM     31  O   UNL     1       1.193   4.099  17.610  0.00  0.00    +0.000 OA
ATOM     32  C   UNL     1       1.309   2.992  18.115  0.00  0.00    +0.000 C 
BRANCH  32  33
ATOM     33  O   UNL     1       1.903   1.948  17.488  0.00  0.00    +0.000 OA
ATOM     34  H   UNL     1       1.319   1.661  16.749  0.00  0.00    +0.000 HD
ENDBRANCH  32  33
ENDBRANCH  30  32
ENDBRANCH  29  30
ENDBRANCH  28  29
ENDBRANCH  27  28
ENDBRANCH  23  27
ENDBRANCH   1  24
TORSDOF 9
ENDMDL
MODEL 8
REMARK VINA RESULT:      -7.4      1.482      2.266
REMARK  Name = 
REMARK  9 active torsions:
REMARK  status: ('A' for Active; 'I' for Inactive)
REMARK    1  A    between atoms: C_2  and  O_3
REMARK    2  A    between atoms: C_2  and  C_4
REMARK    3  A    between atoms: C_4  and  O_5
REMARK    4  A    between atoms: O_5  and  C_6
REMARK    5  A    between atoms: C_6  and  C_7
REMARK    6  A    between atoms: C_7  and  N_8
REMARK    7  A    between atoms: C_9  and  C_11
REMARK    8  A    between atoms: C_14  and  N_15
REMARK    9  A    between atoms: N_18  and  C_19
REMARK                            x       y       z     vdW  Elec       q    Type
REMARK                         _______ _______ _______ _____ _____    ______ ____
ROOT
ATOM      1  C   UNL     1       6.295   5.686  17.171  0.00  0.00    +0.000 A 
ATOM      2  C   UNL     1       7.019   5.248  18.275  0.00  0.00    +0.000 A 
ATOM      3  C   UNL     1       7.880   6.128  18.929  0.00  0.00    +0.000 A 
ATOM      4  C   UNL     1       8.057   7.452  18.501  0.00  0.00    +0.000 A 
ATOM      5  C   UNL     1       7.337   7.883  17.381  0.00  0.00    +0.000 A 
ATOM      6  C   UNL     1       6.474   6.997  16.709  0.00  0.00    +0.000 A 
ENDROOT
BRANCH   4   7
ATOM      7  N   UNL     1       8.949   8.348  19.163  0.00  0.00    +0.000 N 
ATOM      8  C   UNL     1       9.029   9.687  18.839  0.00  0.00    +0.000 C 
ATOM      9  O   UNL     1       8.341  10.225  17.968  0.00  0.00    +0.000 OA
ATOM     10  N   UNL     1       9.914  10.421  19.601  0.00  0.00    +0.000 N 
ATOM     11  H   UNL     1       9.356   8.050  20.033  0.00  0.00    +0.000 HD
ATOM     12  H   UNL     1      10.661   9.913  20.052  0.00  0.00    +0.000 HD
BRANCH  10  13
ATOM     13  C   UNL     1      10.143  11.858  19.299  0.00  0.00    +0.000 C 
ATOM     14  C   UNL     1      10.295  12.107  17.770  0.00  0.00    +0.000 C 
ATOM     15  C   UNL     1      10.556  13.593  17.472  0.00  0.00    +0.000 C 
ATOM     16  C   UNL     1       9.370  14.428  17.965  0.00  0.00    +0.000 C 
ATOM     17  C   UNL     1       9.178  14.217  19.477  0.00  0.00    +0.000 C 
ATOM     18  C   UNL     1      10.447  14.674  20.214  0.00  0.00    +0.000 C 
ATOM     19  C   UNL     1      11.656  13.866  19.723  0.00  0.00    +0.000 C 
ATOM     20  C   UNL     1      11.828  14.048  18.206  0.00  0.00    +0.000 C 
ATOM     21  C   UNL     1      11.415  12.381  20.026  0.00  0.00    +0.000 C 
ATOM     22  C   UNL     1       8.931  12.718  19.763  0.00  0.00    +0.000 C 
ENDBRANCH  10  13
ENDBRANCH   4   7
BRANCH   1  24
ATOM     23  N   UNL     1       4.290   4.307  17.248  0.00  0.00    +0.000 N 
ATOM     24  C   UNL     1       5.336   4.785  16.481  0.00  0.00    +0.000 C 
ATOM     25  O   UNL     1       5.483   4.535  15.291  0.00  0.00    +0.000 OA
ATOM     26  H   UNL     1       4.178   4.628  18.199  0.00  0.00    +0.000 HD
BRANCH  23  27
ATOM     27  C   UNL     1       3.284   3.410  16.702  0.00  0.00    +0.000 C 
BRANCH  27  28
ATOM     28  C   UNL     1       2.383   2.799  17.779  0.00  0.00    +0.000 C 
BRANCH  28  29
ATOM     29  O   UNL     1       2.635   3.386  19.064  0.00  0.00    +0.000 OA
BRANCH  29  30
ATOM     30  C   UNL     1       2.661   2.377  20.081  0.00  0.00    +0.000 C 
BRANCH  30  32
ATOM     31  O   UNL     1       2.386   3.083  22.391  0.00  0.00    +0.000 OA
ATOM     32  C   UNL     1       1.880   2.832  21.307  0.00  0.00    +0.000 C 
BRANCH  32  33
ATOM     33  O   UNL     1       0.552   2.936  21.066  0.00  0.00    +0.000 OA
ATOM     34  H   UNL     1       0.086   2.268  21.620  0.00  0.00    +0.000 HD
ENDBRANCH  32  33
ENDBRANCH  30  32
ENDBRANCH  29  30
ENDBRANCH  28  29
ENDBRANCH  27  28
ENDBRANCH  23  27
ENDBRANCH   1  24
TORSDOF 9
ENDMDL
MODEL 9
REMARK VINA RESULT:      -7.3      6.354      7.466
REMARK  Name = 
REMARK  9 active torsions:
REMARK  status: ('A' for Active; 'I' for Inactive)
REMARK    1  A    between atoms: C_2  and  O_3
REMARK    2  A    between atoms: C_2  and  C_4
REMARK    3  A    between atoms: C_4  and  O_5
REMARK    4  A    between atoms: O_5  and  C_6
REMARK    5  A    between atoms: C_6  and  C_7
REMARK    6  A    between atoms: C_7  and  N_8
REMARK    7  A    between atoms: C_9  and  C_11
REMARK    8  A    between atoms: C_14  and  N_15
REMARK    9  A    between atoms: N_18  and  C_19
REMARK                            x       y       z     vdW  Elec       q    Type
REMARK                         _______ _______ _______ _____ _____    ______ ____
ROOT
ATOM      1  C   UNL     1       2.129   7.467  19.671  0.00  0.00    +0.000 A 
ATOM      2  C   UNL     1       1.362   8.168  20.595  0.00  0.00    +0.000 A 
ATOM      3  C   UNL     1       0.786   9.384  20.232  0.00  0.00    +0.000 A 
ATOM      4  C   UNL     1       0.967   9.943  18.959  0.00  0.00    +0.000 A 
ATOM      5  C   UNL     1       1.752   9.240  18.037  0.00  0.00    +0.000 A 
ATOM      6  C   UNL     1       2.345   8.016  18.400  0.00  0.00    +0.000 A 
ENDROOT
BRANCH   4   7
ATOM      7  N   UNL     1       0.389  11.195  18.592  0.00  0.00    +0.000 N 
ATOM      8  C   UNL     1       0.924  12.404  18.992  0.00  0.00    +0.000 C 
ATOM      9  O   UNL     1       1.940  12.509  19.683  0.00  0.00    +0.000 OA
ATOM     10  N   UNL     1       0.265  13.519  18.518  0.00  0.00    +0.000 N 
ATOM     11  H   UNL     1      -0.280  11.203  17.842  0.00  0.00    +0.000 HD
ATOM     12  H   UNL     1      -0.701  13.401  18.249  0.00  0.00    +0.000 HD
BRANCH  10  13
ATOM     13  C   UNL     1       0.702  14.875  18.939  0.00  0.00    +0.000 C 
ATOM     14  C   UNL     1      -0.261  15.979  18.411  0.00  0.00    +0.000 C 
ATOM     15  C   UNL     1       0.214  17.380  18.832  0.00  0.00    +0.000 C 
ATOM     16  C   UNL     1       0.238  17.472  20.361  0.00  0.00    +0.000 C 
ATOM     17  C   UNL     1       1.180  16.400  20.933  0.00  0.00    +0.000 C 
ATOM     18  C   UNL     1       2.601  16.642  20.399  0.00  0.00    +0.000 C 
ATOM     19  C   UNL     1       2.603  16.575  18.866  0.00  0.00    +0.000 C 
ATOM     20  C   UNL     1       1.634  17.623  18.294  0.00  0.00    +0.000 C 
ATOM     21  C   UNL     1       2.142  15.177  18.431  0.00  0.00    +0.000 C 
ATOM     22  C   UNL     1       0.699  14.999  20.490  0.00  0.00    +0.000 C 
ENDBRANCH  10  13
ENDBRANCH   4   7
BRANCH   1  24
ATOM     23  N   UNL     1       1.950   5.329  20.823  0.00  0.00    +0.000 N 
ATOM     24  C   UNL     1       2.717   6.146  20.014  0.00  0.00    +0.000 C 
ATOM     25  O   UNL     1       3.808   5.826  19.556  0.00  0.00    +0.000 OA
ATOM     26  H   UNL     1       1.019   5.619  21.090  0.00  0.00    +0.000 HD
BRANCH  23  27
ATOM     27  C   UNL     1       2.408   4.014  21.243  0.00  0.00    +0.000 C 
BRANCH  27  28
ATOM     28  C   UNL     1       1.710   2.874  20.495  0.00  0.00    +0.000 C 
BRANCH  28  29
ATOM     29  O   UNL     1       2.607   2.222  19.585  0.00  0.00    +0.000 OA
BRANCH  29  30
ATOM     30  C   UNL     1       2.031   2.154  18.274  0.00  0.00    +0.000 C 
BRANCH  30  32
ATOM     31  O   UNL     1       1.157   4.205  17.304  0.00  0.00    +0.000 OA
ATOM     32  C   UNL     1       2.122   3.506  17.579  0.00  0.00    +0.000 C 
BRANCH  32  33
ATOM     33  O   UNL     1       3.398   3.860  17.299  0.00  0.00    +0.000 OA
ATOM     34  H   UNL     1       3.945   3.697  18.102  0.00  0.00    +0.000 HD
ENDBRANCH  32  33
ENDBRANCH  30  32
ENDBRANCH  29  30
ENDBRANCH  28  29
ENDBRANCH  27  28
ENDBRANCH  23  27
ENDBRANCH   1  24
TORSDOF 9
ENDMDL
