MODEL 1
REMARK VINA RESULT:      -8.7      0.000      0.000
REMARK  Name = 
REMARK  8 active torsions:
REMARK  status: ('A' for Active; 'I' for Inactive)
REMARK    1  A    between atoms: C_1  and  O_2
REMARK    2  A    between atoms: O_2  and  C_3
REMARK    3  A    between atoms: C_3  and  C_4
REMARK    4  A    between atoms: C_4  and  N_5
REMARK    5  A    between atoms: N_12  and  C_13
REMARK    6  A    between atoms: C_13  and  C_14
REMARK    7  A    between atoms: C_18  and  C_19
REMARK    8  A    between atoms: N_25  and  C_26
REMARK                            x       y       z     vdW  Elec       q    Type
REMARK                         _______ _______ _______ _____ _____    ______ ____
ROOT
ATOM      1  C   UNL     1       2.465   6.659  19.461  0.00  0.00    +0.000 A 
ATOM      2  C   UNL     1       2.553   7.481  18.324  0.00  0.00    +0.000 A 
ATOM      3  F   UNL     1       3.226   7.011  17.263  0.00  0.00    +0.000 F 
ATOM      4  C   UNL     1       1.912   8.783  18.191  0.00  0.00    +0.000 A 
ATOM      5  C   UNL     1       1.135   9.328  19.217  0.00  0.00    +0.000 A 
ATOM      6  C   UNL     1       1.099   8.475  20.374  0.00  0.00    +0.000 A 
ATOM      7  C   UNL     1       1.711   7.199  20.489  0.00  0.00    +0.000 A 
ATOM      8  F   UNL     1       1.473   6.485  21.594  0.00  0.00    +0.000 F 
ENDROOT
BRANCH   5   9
ATOM      9  C   UNL     1       0.203  10.533  19.206  0.00  0.00    +0.000 A 
ATOM     10  C   UNL     1       0.669  11.617  19.992  0.00  0.00    +0.000 A 
ATOM     11  C   UNL     1      -0.058  11.968  21.133  0.00  0.00    +0.000 A 
ATOM     12  C   UNL     1      -1.253  12.594  20.848  0.00  0.00    +0.000 A 
ATOM     13  C   UNL     1      -1.887  11.953  19.772  0.00  0.00    +0.000 A 
ATOM     14  N   UNL     1      -3.080  12.251  19.285  0.00  0.00    +0.000 NA
ATOM     15  N   UNL     1      -3.217  11.496  18.201  0.00  0.00    +0.000 N 
ATOM     16  C   UNL     1      -4.459  11.712  17.489  0.00  0.00    +0.000 C 
ATOM     17  C   UNL     1      -2.080  10.710  17.917  0.00  0.00    +0.000 A 
ATOM     18  C   UNL     1      -1.201  10.880  18.970  0.00  0.00    +0.000 A 
ENDBRANCH   5   9
BRANCH   1  19
ATOM     19  C   UNL     1       2.965   5.209  19.533  0.00  0.00    +0.000 C 
BRANCH  19  27
ATOM     20  N   UNL     1       6.518   4.140  16.169  0.00  0.00    +0.000 N 
ATOM     21  N   UNL     1       7.800   4.514  16.501  0.00  0.00    +0.000 NA
ATOM     22  C   UNL     1       7.675   5.090  17.703  0.00  0.00    +0.000 A 
ATOM     23  C   UNL     1       6.379   5.052  18.155  0.00  0.00    +0.000 A 
ATOM     24  C   UNL     1       5.663   4.426  17.175  0.00  0.00    +0.000 A 
ATOM     25  C   UNL     1       4.278   4.341  17.542  0.00  0.00    +0.000 C 
ATOM     26  O   UNL     1       3.354   3.965  16.868  0.00  0.00    +0.000 OA
ATOM     27  N   UNL     1       4.231   4.838  18.889  0.00  0.00    +0.000 N 
ATOM     28  C   UNL     1       5.517   5.429  19.303  0.00  0.00    +0.000 C 
BRANCH  20  29
ATOM     29  C   UNL     1       6.290   3.568  14.854  0.00  0.00    +0.000 C 
BRANCH  29  30
ATOM     30  C   UNL     1       6.629   4.526  13.708  0.00  0.00    +0.000 C 
BRANCH  30  32
ATOM     31  C   UNL     1       5.496   3.217  12.095  0.00  0.00    +0.000 C 
ATOM     32  O   UNL     1       6.742   3.794  12.481  0.00  0.00    +0.000 OA
ENDBRANCH  30  32
ENDBRANCH  29  30
ENDBRANCH  20  29
ENDBRANCH  19  27
ENDBRANCH   1  19
TORSDOF 6
ENDMDL
MODEL 2
REMARK VINA RESULT:      -8.6      3.913     10.491
REMARK  Name = 
REMARK  8 active torsions:
REMARK  status: ('A' for Active; 'I' for Inactive)
REMARK    1  A    between atoms: C_1  and  O_2
REMARK    2  A    between atoms: O_2  and  C_3
REMARK    3  A    between atoms: C_3  and  C_4
REMARK    4  A    between atoms: C_4  and  N_5
REMARK    5  A    between atoms: N_12  and  C_13
REMARK    6  A    between atoms: C_13  and  C_14
REMARK    7  A    between atoms: C_18  and  C_19
REMARK    8  A    between atoms: N_25  and  C_26
REMARK                            x       y       z     vdW  Elec       q    Type
REMARK                         _______ _______ _______ _____ _____    ______ ____
ROOT
ATOM      1  C   UNL     1       0.690  10.003  19.721  0.00  0.00    +0.000 A 
ATOM      2  C   UNL     1       0.703   9.015  20.721  0.00  0.00    +0.000 A 
ATOM      3  F   UNL     1      -0.071   9.205  21.800  0.00  0.00    +0.000 F 
ATOM      4  C   UNL     1       1.450   7.766  20.642  0.00  0.00    +0.000 A 
ATOM      5  C   UNL     1       2.234   7.447  19.528  0.00  0.00    +0.000 A 
ATOM      6  C   UNL     1       2.223   8.497  18.546  0.00  0.00    +0.000 A 
ATOM      7  C   UNL     1       1.477   9.703  18.622  0.00  0.00    +0.000 A 
ATOM      8  F   UNL     1       1.486  10.516  17.561  0.00  0.00    +0.000 F 
ENDROOT
BRANCH   5   9
ATOM      9  C   UNL     1       2.893   6.130  19.139  0.00  0.00    +0.000 A 
ATOM     10  C   UNL     1       2.084   4.995  19.395  0.00  0.00    +0.000 A 
ATOM     11  C   UNL     1       2.505   4.090  20.375  0.00  0.00    +0.000 A 
ATOM     12  C   UNL     1       3.583   3.324  19.984  0.00  0.00    +0.000 A 
ATOM     13  C   UNL     1       4.519   4.122  19.307  0.00  0.00    +0.000 A 
ATOM     14  N   UNL     1       5.698   3.723  18.858  0.00  0.00    +0.000 NA
ATOM     15  N   UNL     1       6.179   4.752  18.169  0.00  0.00    +0.000 N 
ATOM     16  C   UNL     1       7.463   4.495  17.551  0.00  0.00    +0.000 C 
ATOM     17  C   UNL     1       5.293   5.849  18.106  0.00  0.00    +0.000 A 
ATOM     18  C   UNL     1       4.219   5.546  18.922  0.00  0.00    +0.000 A 
ENDBRANCH   5   9
BRANCH   1  19
ATOM     19  C   UNL     1      -0.246  11.220  19.707  0.00  0.00    +0.000 C 
BRANCH  19  27
ATOM     20  N   UNL     1      -4.945  12.124  18.225  0.00  0.00    +0.000 N 
ATOM     21  N   UNL     1      -5.298  11.625  16.993  0.00  0.00    +0.000 NA
ATOM     22  C   UNL     1      -4.190  11.016  16.552  0.00  0.00    +0.000 A 
ATOM     23  C   UNL     1      -3.174  11.076  17.474  0.00  0.00    +0.000 A 
ATOM     24  C   UNL     1      -3.679  11.767  18.538  0.00  0.00    +0.000 A 
ATOM     25  C   UNL     1      -2.687  11.900  19.567  0.00  0.00    +0.000 C 
ATOM     26  O   UNL     1      -2.752  12.548  20.579  0.00  0.00    +0.000 OA
ATOM     27  N   UNL     1      -1.580  11.110  19.104  0.00  0.00    +0.000 N 
ATOM     28  C   UNL     1      -1.771  10.655  17.714  0.00  0.00    +0.000 C 
BRANCH  20  29
ATOM     29  C   UNL     1      -5.910  12.942  18.935  0.00  0.00    +0.000 C 
BRANCH  29  30
ATOM     30  C   UNL     1      -6.550  12.228  20.130  0.00  0.00    +0.000 C 
BRANCH  30  32
ATOM     31  C   UNL     1      -7.749  10.296  20.783  0.00  0.00    +0.000 C 
ATOM     32  O   UNL     1      -7.128  10.988  19.702  0.00  0.00    +0.000 OA
ENDBRANCH  30  32
ENDBRANCH  29  30
ENDBRANCH  20  29
ENDBRANCH  19  27
ENDBRANCH   1  19
TORSDOF 6
ENDMDL
MODEL 3
REMARK VINA RESULT:      -8.6      3.966     10.842
REMARK  Name = 
REMARK  8 active torsions:
REMARK  status: ('A' for Active; 'I' for Inactive)
REMARK    1  A    between atoms: C_1  and  O_2
REMARK    2  A    between atoms: O_2  and  C_3
REMARK    3  A    between atoms: C_3  and  C_4
REMARK    4  A    between atoms: C_4  and  N_5
REMARK    5  A    between atoms: N_12  and  C_13
REMARK    6  A    between atoms: C_13  and  C_14
REMARK    7  A    between atoms: C_18  and  C_19
REMARK    8  A    between atoms: N_25  and  C_26
REMARK                            x       y       z     vdW  Elec       q    Type
REMARK                         _______ _______ _______ _____ _____    ______ ____
ROOT
ATOM      1  C   UNL     1       1.167   9.811  20.106  0.00  0.00    +0.000 A 
ATOM      2  C   UNL     1       1.463   9.799  18.732  0.00  0.00    +0.000 A 
ATOM      3  F   UNL     1       1.309  10.942  18.048  0.00  0.00    +0.000 F 
ATOM      4  C   UNL     1       1.986   8.647  18.008  0.00  0.00    +0.000 A 
ATOM      5  C   UNL     1       2.242   7.431  18.647  0.00  0.00    +0.000 A 
ATOM      6  C   UNL     1       1.894   7.473  20.041  0.00  0.00    +0.000 A 
ATOM      7  C   UNL     1       1.402   8.605  20.744  0.00  0.00    +0.000 A 
ATOM      8  F   UNL     1       1.246   8.504  22.068  0.00  0.00    +0.000 F 
ENDROOT
BRANCH   5   9
ATOM      9  C   UNL     1       2.992   6.201  18.149  0.00  0.00    +0.000 A 
ATOM     10  C   UNL     1       2.574   4.995  18.766  0.00  0.00    +0.000 A 
ATOM     11  C   UNL     1       3.481   4.328  19.595  0.00  0.00    +0.000 A 
ATOM     12  C   UNL     1       4.498   3.706  18.902  0.00  0.00    +0.000 A 
ATOM     13  C   UNL     1       4.960   4.542  17.874  0.00  0.00    +0.000 A 
ATOM     14  N   UNL     1       5.974   4.288  17.063  0.00  0.00    +0.000 NA
ATOM     15  N   UNL     1       5.967   5.271  16.170  0.00  0.00    +0.000 N 
ATOM     16  C   UNL     1       6.990   5.147  15.153  0.00  0.00    +0.000 C 
ATOM     17  C   UNL     1       4.903   6.181  16.346  0.00  0.00    +0.000 A 
ATOM     18  C   UNL     1       4.257   5.824  17.514  0.00  0.00    +0.000 A 
ENDBRANCH   5   9
BRANCH   1  19
ATOM     19  C   UNL     1       0.810  11.068  20.912  0.00  0.00    +0.000 C 
BRANCH  19  27
ATOM     20  N   UNL     1      -3.579  12.723  22.671  0.00  0.00    +0.000 N 
ATOM     21  N   UNL     1      -4.344  13.459  21.796  0.00  0.00    +0.000 NA
ATOM     22  C   UNL     1      -3.614  13.501  20.674  0.00  0.00    +0.000 A 
ATOM     23  C   UNL     1      -2.447  12.789  20.797  0.00  0.00    +0.000 A 
ATOM     24  C   UNL     1      -2.452  12.285  22.067  0.00  0.00    +0.000 A 
ATOM     25  C   UNL     1      -1.260  11.524  22.309  0.00  0.00    +0.000 C 
ATOM     26  O   UNL     1      -0.885  11.046  23.348  0.00  0.00    +0.000 OA
ATOM     27  N   UNL     1      -0.593  11.484  21.038  0.00  0.00    +0.000 N 
ATOM     28  C   UNL     1      -1.230  12.378  20.053  0.00  0.00    +0.000 C 
BRANCH  20  29
ATOM     29  C   UNL     1      -4.049  12.576  24.036  0.00  0.00    +0.000 C 
BRANCH  29  30
ATOM     30  C   UNL     1      -5.510  12.996  24.224  0.00  0.00    +0.000 C 
BRANCH  30  32
ATOM     31  C   UNL     1      -7.576  12.182  23.406  0.00  0.00    +0.000 C 
ATOM     32  O   UNL     1      -6.366  11.854  24.086  0.00  0.00    +0.000 OA
ENDBRANCH  30  32
ENDBRANCH  29  30
ENDBRANCH  20  29
ENDBRANCH  19  27
ENDBRANCH   1  19
TORSDOF 6
ENDMDL
MODEL 4
REMARK VINA RESULT:      -8.6      3.457     10.392
REMARK  Name = 
REMARK  8 active torsions:
REMARK  status: ('A' for Active; 'I' for Inactive)
REMARK    1  A    between atoms: C_1  and  O_2
REMARK    2  A    between atoms: O_2  and  C_3
REMARK    3  A    between atoms: C_3  and  C_4
REMARK    4  A    between atoms: C_4  and  N_5
REMARK    5  A    between atoms: N_12  and  C_13
REMARK    6  A    between atoms: C_13  and  C_14
REMARK    7  A    between atoms: C_18  and  C_19
REMARK    8  A    between atoms: N_25  and  C_26
REMARK                            x       y       z     vdW  Elec       q    Type
REMARK                         _______ _______ _______ _____ _____    ______ ____
ROOT
ATOM      1  C   UNL     1       1.563   8.961  19.340  0.00  0.00    +0.000 A 
ATOM      2  C   UNL     1       2.185   9.160  18.095  0.00  0.00    +0.000 A 
ATOM      3  F   UNL     1       1.997  10.338  17.483  0.00  0.00    +0.000 F 
ATOM      4  C   UNL     1       3.073   8.201  17.450  0.00  0.00    +0.000 A 
ATOM      5  C   UNL     1       3.383   6.973  18.041  0.00  0.00    +0.000 A 
ATOM      6  C   UNL     1       2.700   6.792  19.294  0.00  0.00    +0.000 A 
ATOM      7  C   UNL     1       1.852   7.740  19.925  0.00  0.00    +0.000 A 
ATOM      8  F   UNL     1       1.396   7.457  21.150  0.00  0.00    +0.000 F 
ENDROOT
BRANCH   5   9
ATOM      9  C   UNL     1       4.444   5.946  17.667  0.00  0.00    +0.000 A 
ATOM     10  C   UNL     1       4.953   5.227  18.778  0.00  0.00    +0.000 A 
ATOM     11  C   UNL     1       6.291   5.422  19.134  0.00  0.00    +0.000 A 
ATOM     12  C   UNL     1       7.180   4.837  18.257  0.00  0.00    +0.000 A 
ATOM     13  C   UNL     1       6.761   5.050  16.935  0.00  0.00    +0.000 A 
ATOM     14  N   UNL     1       7.415   4.687  15.844  0.00  0.00    +0.000 NA
ATOM     15  N   UNL     1       6.596   4.958  14.834  0.00  0.00    +0.000 N 
ATOM     16  C   UNL     1       7.121   4.584  13.537  0.00  0.00    +0.000 C 
ATOM     17  C   UNL     1       5.347   5.467  15.246  0.00  0.00    +0.000 A 
ATOM     18  C   UNL     1       5.420   5.655  16.613  0.00  0.00    +0.000 A 
ENDBRANCH   5   9
BRANCH   1  19
ATOM     19  C   UNL     1       0.794  10.040  20.116  0.00  0.00    +0.000 C 
BRANCH  19  27
ATOM     20  N   UNL     1      -3.617  12.335  19.511  0.00  0.00    +0.000 N 
ATOM     21  N   UNL     1      -4.287  12.062  18.340  0.00  0.00    +0.000 NA
ATOM     22  C   UNL     1      -3.483  11.211  17.691  0.00  0.00    +0.000 A 
ATOM     23  C   UNL     1      -2.362  10.907  18.423  0.00  0.00    +0.000 A 
ATOM     24  C   UNL     1      -2.475  11.616  19.585  0.00  0.00    +0.000 A 
ATOM     25  C   UNL     1      -1.339  11.379  20.429  0.00  0.00    +0.000 C 
ATOM     26  O   UNL     1      -1.057  11.929  21.463  0.00  0.00    +0.000 OA
ATOM     27  N   UNL     1      -0.592  10.357  19.751  0.00  0.00    +0.000 N 
ATOM     28  C   UNL     1      -1.120  10.095  18.399  0.00  0.00    +0.000 C 
BRANCH  20  29
ATOM     29  C   UNL     1      -4.184  13.324  20.410  0.00  0.00    +0.000 C 
BRANCH  29  30
ATOM     30  C   UNL     1      -4.695  12.727  21.724  0.00  0.00    +0.000 C 
BRANCH  30  32
ATOM     31  C   UNL     1      -6.987  12.756  21.139  0.00  0.00    +0.000 C 
ATOM     32  O   UNL     1      -5.868  11.941  21.477  0.00  0.00    +0.000 OA
ENDBRANCH  30  32
ENDBRANCH  29  30
ENDBRANCH  20  29
ENDBRANCH  19  27
ENDBRANCH   1  19
TORSDOF 6
ENDMDL
MODEL 5
REMARK VINA RESULT:      -8.6      3.697     10.612
REMARK  Name = 
REMARK  8 active torsions:
REMARK  status: ('A' for Active; 'I' for Inactive)
REMARK    1  A    between atoms: C_1  and  O_2
REMARK    2  A    between atoms: O_2  and  C_3
REMARK    3  A    between atoms: C_3  and  C_4
REMARK    4  A    between atoms: C_4  and  N_5
REMARK    5  A    between atoms: N_12  and  C_13
REMARK    6  A    between atoms: C_13  and  C_14
REMARK    7  A    between atoms: C_18  and  C_19
REMARK    8  A    between atoms: N_25  and  C_26
REMARK                            x       y       z     vdW  Elec       q    Type
REMARK                         _______ _______ _______ _____ _____    ______ ____
ROOT
ATOM      1  C   UNL     1       1.234   9.838  19.486  0.00  0.00    +0.000 A 
ATOM      2  C   UNL     1       1.284   8.642  20.223  0.00  0.00    +0.000 A 
ATOM      3  F   UNL     1       0.658   8.611  21.409  0.00  0.00    +0.000 F 
ATOM      4  C   UNL     1       1.914   7.411  19.764  0.00  0.00    +0.000 A 
ATOM      5  C   UNL     1       2.535   7.324  18.514  0.00  0.00    +0.000 A 
ATOM      6  C   UNL     1       2.494   8.576  17.807  0.00  0.00    +0.000 A 
ATOM      7  C   UNL     1       1.861   9.765  18.254  0.00  0.00    +0.000 A 
ATOM      8  F   UNL     1       1.812  10.805  17.413  0.00  0.00    +0.000 F 
ENDROOT
BRANCH   5   9
ATOM      9  C   UNL     1       3.037   6.105  17.752  0.00  0.00    +0.000 A 
ATOM     10  C   UNL     1       2.271   4.935  17.986  0.00  0.00    +0.000 A 
ATOM     11  C   UNL     1       2.877   3.872  18.661  0.00  0.00    +0.000 A 
ATOM     12  C   UNL     1       3.805   3.197  17.896  0.00  0.00    +0.000 A 
ATOM     13  C   UNL     1       4.584   4.111  17.170  0.00  0.00    +0.000 A 
ATOM     14  N   UNL     1       5.610   3.810  16.391  0.00  0.00    +0.000 NA
ATOM     15  N   UNL     1       5.953   4.950  15.802  0.00  0.00    +0.000 N 
ATOM     16  C   UNL     1       7.046   4.819  14.862  0.00  0.00    +0.000 C 
ATOM     17  C   UNL     1       5.116   6.033  16.147  0.00  0.00    +0.000 A 
ATOM     18  C   UNL     1       4.254   5.579  17.126  0.00  0.00    +0.000 A 
ENDBRANCH   5   9
BRANCH   1  19
ATOM     19  C   UNL     1       0.403  11.069  19.872  0.00  0.00    +0.000 C 
BRANCH  19  27
ATOM     20  N   UNL     1      -4.380  12.485  19.410  0.00  0.00    +0.000 N 
ATOM     21  N   UNL     1      -5.039  12.037  18.289  0.00  0.00    +0.000 NA
ATOM     22  C   UNL     1      -4.121  11.316  17.632  0.00  0.00    +0.000 A 
ATOM     23  C   UNL     1      -2.932  11.259  18.316  0.00  0.00    +0.000 A 
ATOM     24  C   UNL     1      -3.123  11.991  19.453  0.00  0.00    +0.000 A 
ATOM     25  C   UNL     1      -1.926  12.008  20.245  0.00  0.00    +0.000 C 
ATOM     26  O   UNL     1      -1.704  12.651  21.238  0.00  0.00    +0.000 OA
ATOM     27  N   UNL     1      -1.033  11.109  19.568  0.00  0.00    +0.000 N 
ATOM     28  C   UNL     1      -1.563  10.689  18.258  0.00  0.00    +0.000 C 
BRANCH  20  29
ATOM     29  C   UNL     1      -5.079  13.395  20.298  0.00  0.00    +0.000 C 
BRANCH  29  30
ATOM     30  C   UNL     1      -5.421  12.777  21.657  0.00  0.00    +0.000 C 
BRANCH  30  32
ATOM     31  C   UNL     1      -7.602  12.126  22.302  0.00  0.00    +0.000 C 
ATOM     32  O   UNL     1      -6.465  11.808  21.501  0.00  0.00    +0.000 OA
ENDBRANCH  30  32
ENDBRANCH  29  30
ENDBRANCH  20  29
ENDBRANCH  19  27
ENDBRANCH   1  19
TORSDOF 6
ENDMDL
MODEL 6
REMARK VINA RESULT:      -8.6      1.386      2.103
REMARK  Name = 
REMARK  8 active torsions:
REMARK  status: ('A' for Active; 'I' for Inactive)
REMARK    1  A    between atoms: C_1  and  O_2
REMARK    2  A    between atoms: O_2  and  C_3
REMARK    3  A    between atoms: C_3  and  C_4
REMARK    4  A    between atoms: C_4  and  N_5
REMARK    5  A    between atoms: N_12  and  C_13
REMARK    6  A    between atoms: C_13  and  C_14
REMARK    7  A    between atoms: C_18  and  C_19
REMARK    8  A    between atoms: N_25  and  C_26
REMARK                            x       y       z     vdW  Elec       q    Type
REMARK                         _______ _______ _______ _____ _____    ______ ____
ROOT
ATOM      1  C   UNL     1       2.439   6.709  19.430  0.00  0.00    +0.000 A 
ATOM      2  C   UNL     1       2.585   7.571  18.329  0.00  0.00    +0.000 A 
ATOM      3  F   UNL     1       3.232   7.104  17.251  0.00  0.00    +0.000 F 
ATOM      4  C   UNL     1       2.029   8.916  18.250  0.00  0.00    +0.000 A 
ATOM      5  C   UNL     1       1.283   9.466  19.296  0.00  0.00    +0.000 A 
ATOM      6  C   UNL     1       1.187   8.570  20.416  0.00  0.00    +0.000 A 
ATOM      7  C   UNL     1       1.715   7.253  20.478  0.00  0.00    +0.000 A 
ATOM      8  F   UNL     1       1.426   6.510  21.552  0.00  0.00    +0.000 F 
ENDROOT
BRANCH   5   9
ATOM      9  C   UNL     1       0.431  10.728  19.333  0.00  0.00    +0.000 A 
ATOM     10  C   UNL     1      -0.962  10.473  19.283  0.00  0.00    +0.000 A 
ATOM     11  C   UNL     1      -1.670  10.889  18.151  0.00  0.00    +0.000 A 
ATOM     12  C   UNL     1      -1.846  12.256  18.089  0.00  0.00    +0.000 A 
ATOM     13  C   UNL     1      -0.662  12.909  18.465  0.00  0.00    +0.000 A 
ATOM     14  N   UNL     1      -0.459  14.216  18.451  0.00  0.00    +0.000 NA
ATOM     15  N   UNL     1       0.732  14.395  19.010  0.00  0.00    +0.000 N 
ATOM     16  C   UNL     1       1.123  15.784  19.130  0.00  0.00    +0.000 C 
ATOM     17  C   UNL     1       1.327  13.196  19.457  0.00  0.00    +0.000 A 
ATOM     18  C   UNL     1       0.512  12.162  19.038  0.00  0.00    +0.000 A 
ENDBRANCH   5   9
BRANCH   1  19
ATOM     19  C   UNL     1       2.844   5.229  19.442  0.00  0.00    +0.000 C 
BRANCH  19  27
ATOM     20  N   UNL     1       6.580   4.049  16.320  0.00  0.00    +0.000 N 
ATOM     21  N   UNL     1       7.847   4.386  16.737  0.00  0.00    +0.000 NA
ATOM     22  C   UNL     1       7.659   4.967  17.929  0.00  0.00    +0.000 A 
ATOM     23  C   UNL     1       6.336   4.968  18.294  0.00  0.00    +0.000 A 
ATOM     24  C   UNL     1       5.668   4.363  17.268  0.00  0.00    +0.000 A 
ATOM     25  C   UNL     1       4.260   4.320  17.542  0.00  0.00    +0.000 C 
ATOM     26  O   UNL     1       3.373   3.969  16.808  0.00  0.00    +0.000 OA
ATOM     27  N   UNL     1       4.139   4.819  18.883  0.00  0.00    +0.000 N 
ATOM     28  C   UNL     1       5.412   5.372  19.383  0.00  0.00    +0.000 C 
BRANCH  20  29
ATOM     29  C   UNL     1       6.423   3.483  14.994  0.00  0.00    +0.000 C 
BRANCH  29  30
ATOM     30  C   UNL     1       6.228   4.539  13.901  0.00  0.00    +0.000 C 
BRANCH  30  32
ATOM     31  C   UNL     1       5.734   3.155  12.047  0.00  0.00    +0.000 C 
ATOM     32  O   UNL     1       6.690   4.029  12.644  0.00  0.00    +0.000 OA
ENDBRANCH  30  32
ENDBRANCH  29  30
ENDBRANCH  20  29
ENDBRANCH  19  27
ENDBRANCH   1  19
TORSDOF 6
ENDMDL
MODEL 7
REMARK VINA RESULT:      -8.3      3.840     10.779
REMARK  Name = 
REMARK  8 active torsions:
REMARK  status: ('A' for Active; 'I' for Inactive)
REMARK    1  A    between atoms: C_1  and  O_2
REMARK    2  A    between atoms: O_2  and  C_3
REMARK    3  A    between atoms: C_3  and  C_4
REMARK    4  A    between atoms: C_4  and  N_5
REMARK    5  A    between atoms: N_12  and  C_13
REMARK    6  A    between atoms: C_13  and  C_14
REMARK    7  A    between atoms: C_18  and  C_19
REMARK    8  A    between atoms: N_25  and  C_26
REMARK                            x       y       z     vdW  Elec       q    Type
REMARK                         _______ _______ _______ _____ _____    ______ ____
ROOT
ATOM      1  C   UNL     1       1.216   9.557  19.985  0.00  0.00    +0.000 A 
ATOM      2  C   UNL     1       1.455   9.528  18.600  0.00  0.00    +0.000 A 
ATOM      3  F   UNL     1       1.245  10.655  17.904  0.00  0.00    +0.000 F 
ATOM      4  C   UNL     1       1.975   8.377  17.873  0.00  0.00    +0.000 A 
ATOM      5  C   UNL     1       2.287   7.177  18.521  0.00  0.00    +0.000 A 
ATOM      6  C   UNL     1       1.996   7.236  19.928  0.00  0.00    +0.000 A 
ATOM      7  C   UNL     1       1.507   8.368  20.632  0.00  0.00    +0.000 A 
ATOM      8  F   UNL     1       1.408   8.286  21.963  0.00  0.00    +0.000 F 
ENDROOT
BRANCH   5   9
ATOM      9  C   UNL     1       3.044   5.957  18.012  0.00  0.00    +0.000 A 
ATOM     10  C   UNL     1       2.630   4.743  18.614  0.00  0.00    +0.000 A 
ATOM     11  C   UNL     1       3.538   4.070  19.438  0.00  0.00    +0.000 A 
ATOM     12  C   UNL     1       4.561   3.461  18.742  0.00  0.00    +0.000 A 
ATOM     13  C   UNL     1       5.022   4.311  17.726  0.00  0.00    +0.000 A 
ATOM     14  N   UNL     1       6.040   4.071  16.916  0.00  0.00    +0.000 NA
ATOM     15  N   UNL     1       6.032   5.064  16.034  0.00  0.00    +0.000 N 
ATOM     16  C   UNL     1       7.059   4.957  15.020  0.00  0.00    +0.000 C 
ATOM     17  C   UNL     1       4.963   5.967  16.217  0.00  0.00    +0.000 A 
ATOM     18  C   UNL     1       4.315   5.593  17.378  0.00  0.00    +0.000 A 
ENDBRANCH   5   9
BRANCH   1  19
ATOM     19  C   UNL     1       0.863  10.819  20.785  0.00  0.00    +0.000 C 
BRANCH  19  27
ATOM     20  N   UNL     1      -3.436  12.682  22.557  0.00  0.00    +0.000 N 
ATOM     21  N   UNL     1      -4.304  13.197  21.623  0.00  0.00    +0.000 NA
ATOM     22  C   UNL     1      -3.672  13.025  20.455  0.00  0.00    +0.000 A 
ATOM     23  C   UNL     1      -2.468  12.387  20.615  0.00  0.00    +0.000 A 
ATOM     24  C   UNL     1      -2.344  12.159  21.956  0.00  0.00    +0.000 A 
ATOM     25  C   UNL     1      -1.103  11.498  22.240  0.00  0.00    +0.000 C 
ATOM     26  O   UNL     1      -0.621  11.258  23.317  0.00  0.00    +0.000 OA
ATOM     27  N   UNL     1      -0.542  11.213  20.949  0.00  0.00    +0.000 N 
ATOM     28  C   UNL     1      -1.299  11.864  19.864  0.00  0.00    +0.000 C 
BRANCH  20  29
ATOM     29  C   UNL     1      -3.785  12.809  23.960  0.00  0.00    +0.000 C 
BRANCH  29  30
ATOM     30  C   UNL     1      -3.937  14.263  24.419  0.00  0.00    +0.000 C 
BRANCH  30  32
ATOM     31  C   UNL     1      -1.987  15.209  25.367  0.00  0.00    +0.000 C 
ATOM     32  O   UNL     1      -2.724  14.982  24.167  0.00  0.00    +0.000 OA
ENDBRANCH  30  32
ENDBRANCH  29  30
ENDBRANCH  20  29
ENDBRANCH  19  27
ENDBRANCH   1  19
TORSDOF 6
ENDMDL
MODEL 8
REMARK VINA RESULT:      -8.3      4.062     10.957
REMARK  Name = 
REMARK  8 active torsions:
REMARK  status: ('A' for Active; 'I' for Inactive)
REMARK    1  A    between atoms: C_1  and  O_2
REMARK    2  A    between atoms: O_2  and  C_3
REMARK    3  A    between atoms: C_3  and  C_4
REMARK    4  A    between atoms: C_4  and  N_5
REMARK    5  A    between atoms: N_12  and  C_13
REMARK    6  A    between atoms: C_13  and  C_14
REMARK    7  A    between atoms: C_18  and  C_19
REMARK    8  A    between atoms: N_25  and  C_26
REMARK                            x       y       z     vdW  Elec       q    Type
REMARK                         _______ _______ _______ _____ _____    ______ ____
ROOT
ATOM      1  C   UNL     1       0.926   9.877  20.182  0.00  0.00    +0.000 A 
ATOM      2  C   UNL     1       1.362   9.702  18.857  0.00  0.00    +0.000 A 
ATOM      3  F   UNL     1       1.301  10.759  18.033  0.00  0.00    +0.000 F 
ATOM      4  C   UNL     1       1.935   8.470  18.329  0.00  0.00    +0.000 A 
ATOM      5  C   UNL     1       2.100   7.334  19.127  0.00  0.00    +0.000 A 
ATOM      6  C   UNL     1       1.611   7.542  20.463  0.00  0.00    +0.000 A 
ATOM      7  C   UNL     1       1.072   8.751  20.975  0.00  0.00    +0.000 A 
ATOM      8  F   UNL     1       0.778   8.806  22.279  0.00  0.00    +0.000 F 
ENDROOT
BRANCH   5   9
ATOM      9  C   UNL     1       2.873   6.050  18.855  0.00  0.00    +0.000 A 
ATOM     10  C   UNL     1       2.115   4.874  19.084  0.00  0.00    +0.000 A 
ATOM     11  C   UNL     1       2.497   4.035  20.135  0.00  0.00    +0.000 A 
ATOM     12  C   UNL     1       3.652   3.327  19.876  0.00  0.00    +0.000 A 
ATOM     13  C   UNL     1       4.596   4.159  19.254  0.00  0.00    +0.000 A 
ATOM     14  N   UNL     1       5.834   3.822  18.932  0.00  0.00    +0.000 NA
ATOM     15  N   UNL     1       6.314   4.855  18.248  0.00  0.00    +0.000 N 
ATOM     16  C   UNL     1       7.663   4.660  17.761  0.00  0.00    +0.000 C 
ATOM     17  C   UNL     1       5.372   5.888  18.059  0.00  0.00    +0.000 A 
ATOM     18  C   UNL     1       4.247   5.546  18.785  0.00  0.00    +0.000 A 
ENDBRANCH   5   9
BRANCH   1  19
ATOM     19  C   UNL     1       0.513  11.222  20.796  0.00  0.00    +0.000 C 
BRANCH  19  27
ATOM     20  N   UNL     1      -3.845  13.018  22.493  0.00  0.00    +0.000 N 
ATOM     21  N   UNL     1      -4.775  13.352  21.537  0.00  0.00    +0.000 NA
ATOM     22  C   UNL     1      -4.171  13.072  20.375  0.00  0.00    +0.000 A 
ATOM     23  C   UNL     1      -2.921  12.538  20.566  0.00  0.00    +0.000 A 
ATOM     24  C   UNL     1      -2.740  12.493  21.919  0.00  0.00    +0.000 A 
ATOM     25  C   UNL     1      -1.447  11.955  22.233  0.00  0.00    +0.000 C 
ATOM     26  O   UNL     1      -0.915  11.887  23.311  0.00  0.00    +0.000 OA
ATOM     27  N   UNL     1      -0.910  11.542  20.966  0.00  0.00    +0.000 N 
ATOM     28  C   UNL     1      -1.745  11.998  19.840  0.00  0.00    +0.000 C 
BRANCH  20  29
ATOM     29  C   UNL     1      -4.156  13.302  23.882  0.00  0.00    +0.000 C 
BRANCH  29  30
ATOM     30  C   UNL     1      -3.820  14.737  24.299  0.00  0.00    +0.000 C 
BRANCH  30  32
ATOM     31  C   UNL     1      -2.064  15.346  25.762  0.00  0.00    +0.000 C 
ATOM     32  O   UNL     1      -2.403  14.878  24.459  0.00  0.00    +0.000 OA
ENDBRANCH  30  32
ENDBRANCH  29  30
ENDBRANCH  20  29
ENDBRANCH  19  27
ENDBRANCH   1  19
TORSDOF 6
ENDMDL
MODEL 9
REMARK VINA RESULT:      -8.3      0.872      1.018
REMARK  Name = 
REMARK  8 active torsions:
REMARK  status: ('A' for Active; 'I' for Inactive)
REMARK    1  A    between atoms: C_1  and  O_2
REMARK    2  A    between atoms: O_2  and  C_3
REMARK    3  A    between atoms: C_3  and  C_4
REMARK    4  A    between atoms: C_4  and  N_5
REMARK    5  A    between atoms: N_12  and  C_13
REMARK    6  A    between atoms: C_13  and  C_14
REMARK    7  A    between atoms: C_18  and  C_19
REMARK    8  A    between atoms: N_25  and  C_26
REMARK                            x       y       z     vdW  Elec       q    Type
REMARK                         _______ _______ _______ _____ _____    ______ ____
ROOT
ATOM      1  C   UNL     1       2.365   6.901  19.336  0.00  0.00    +0.000 A 
ATOM      2  C   UNL     1       2.490   7.730  18.208  0.00  0.00    +0.000 A 
ATOM      3  F   UNL     1       3.101   7.227  17.125  0.00  0.00    +0.000 F 
ATOM      4  C   UNL     1       1.947   9.079  18.107  0.00  0.00    +0.000 A 
ATOM      5  C   UNL     1       1.237   9.667  19.158  0.00  0.00    +0.000 A 
ATOM      6  C   UNL     1       1.161   8.802  20.304  0.00  0.00    +0.000 A 
ATOM      7  C   UNL     1       1.677   7.481  20.388  0.00  0.00    +0.000 A 
ATOM      8  F   UNL     1       1.410   6.771  21.489  0.00  0.00    +0.000 F 
ENDROOT
BRANCH   5   9
ATOM      9  C   UNL     1       0.400  10.939  19.184  0.00  0.00    +0.000 A 
ATOM     10  C   UNL     1       1.151  12.105  19.476  0.00  0.00    +0.000 A 
ATOM     11  C   UNL     1       0.899  12.770  20.680  0.00  0.00    +0.000 A 
ATOM     12  C   UNL     1      -0.299  13.452  20.687  0.00  0.00    +0.000 A 
ATOM     13  C   UNL     1      -1.299  12.673  20.086  0.00  0.00    +0.000 A 
ATOM     14  N   UNL     1      -2.579  12.993  19.988  0.00  0.00    +0.000 NA
ATOM     15  N   UNL     1      -3.123  12.046  19.233  0.00  0.00    +0.000 N 
ATOM     16  C   UNL     1      -4.533  12.244  18.968  0.00  0.00    +0.000 C 
ATOM     17  C   UNL     1      -2.190  11.094  18.768  0.00  0.00    +0.000 A 
ATOM     18  C   UNL     1      -0.984  11.384  19.376  0.00  0.00    +0.000 A 
ENDBRANCH   5   9
BRANCH   1  19
ATOM     19  C   UNL     1       2.754   5.416  19.377  0.00  0.00    +0.000 C 
BRANCH  19  27
ATOM     20  N   UNL     1       6.645   4.188  16.471  0.00  0.00    +0.000 N 
ATOM     21  N   UNL     1       7.890   4.513  16.957  0.00  0.00    +0.000 NA
ATOM     22  C   UNL     1       7.643   5.098  18.136  0.00  0.00    +0.000 A 
ATOM     23  C   UNL     1       6.302   5.114  18.426  0.00  0.00    +0.000 A 
ATOM     24  C   UNL     1       5.686   4.514  17.365  0.00  0.00    +0.000 A 
ATOM     25  C   UNL     1       4.264   4.487  17.561  0.00  0.00    +0.000 C 
ATOM     26  O   UNL     1       3.415   4.144  16.779  0.00  0.00    +0.000 OA
ATOM     27  N   UNL     1       4.073   4.992  18.892  0.00  0.00    +0.000 N 
ATOM     28  C   UNL     1       5.323   5.531  19.460  0.00  0.00    +0.000 C 
BRANCH  20  29
ATOM     29  C   UNL     1       6.556   3.620  15.138  0.00  0.00    +0.000 C 
BRANCH  29  30
ATOM     30  C   UNL     1       6.480   4.676  14.031  0.00  0.00    +0.000 C 
BRANCH  30  32
ATOM     31  C   UNL     1       8.174   5.629  12.683  0.00  0.00    +0.000 C 
ATOM     32  O   UNL     1       7.688   5.447  14.011  0.00  0.00    +0.000 OA
ENDBRANCH  30  32
ENDBRANCH  29  30
ENDBRANCH  20  29
ENDBRANCH  19  27
ENDBRANCH   1  19
TORSDOF 6
ENDMDL
