MODEL 1
REMARK VINA RESULT:      -6.8      0.000      0.000
REMARK  Name = 
REMARK  5 active torsions:
REMARK  status: ('A' for Active; 'I' for Inactive)
REMARK    1  A    between atoms: C_1  and  O_2
REMARK    2  A    between atoms: O_2  and  C_3
REMARK    3  A    between atoms: C_7  and  C_8
REMARK    4  A    between atoms: C_16  and  O_17
REMARK    5  A    between atoms: O_17  and  C_18
REMARK                            x       y       z     vdW  Elec       q    Type
REMARK                         _______ _______ _______ _____ _____    ______ ____
ROOT
ATOM      1  C   UNL     1       1.732   4.153  20.251  0.00  0.00    +0.000 A 
ATOM      2  C   UNL     1       1.375   5.431  20.720  0.00  0.00    +0.000 A 
ATOM      3  C   UNL     1       1.975   6.574  20.213  0.00  0.00    +0.000 A 
ATOM      4  C   UNL     1       2.996   6.456  19.284  0.00  0.00    +0.000 A 
ATOM      5  C   UNL     1       3.429   5.181  18.866  0.00  0.00    +0.000 A 
ATOM      6  C   UNL     1       2.815   4.006  19.363  0.00  0.00    +0.000 A 
ENDROOT
BRANCH   5   7
ATOM      7  C   UNL     1       4.518   5.094  17.867  0.00  0.00    +0.000 A 
ATOM      8  N   UNL     1       4.369   5.225  16.571  0.00  0.00    +0.000 NA
ATOM      9  N   UNL     1       5.607   5.110  16.046  0.00  0.00    +0.000 N 
ATOM     10  C   UNL     1       6.099   5.169  14.777  0.00  0.00    +0.000 A 
ATOM     11  N   UNL     1       7.402   4.952  14.817  0.00  0.00    +0.000 NA
ATOM     12  N   UNL     1       7.776   4.765  16.145  0.00  0.00    +0.000 NA
ATOM     13  C   UNL     1       6.681   4.879  16.835  0.00  0.00    +0.000 A 
ATOM     14  S   UNL     1       6.199   4.808  18.463  0.00  0.00    +0.000 S 
ENDBRANCH   5   7
BRANCH   1  16
ATOM     15  C   UNL     1       1.435   2.467  21.882  0.00  0.00    +0.000 C 
ATOM     16  O   UNL     1       1.006   3.059  20.648  0.00  0.00    +0.000 OA
ENDBRANCH   1  16
BRANCH   6  17
ATOM     17  O   UNL     1       3.323   2.841  18.857  0.00  0.00    +0.000 OA
ATOM     18  C   UNL     1       2.653   2.097  17.863  0.00  0.00    +0.000 C 
ENDBRANCH   6  17
TORSDOF 3
ENDMDL
MODEL 2
REMARK VINA RESULT:      -6.7      2.034      3.079
REMARK  Name = 
REMARK  5 active torsions:
REMARK  status: ('A' for Active; 'I' for Inactive)
REMARK    1  A    between atoms: C_1  and  O_2
REMARK    2  A    between atoms: O_2  and  C_3
REMARK    3  A    between atoms: C_7  and  C_8
REMARK    4  A    between atoms: C_16  and  O_17
REMARK    5  A    between atoms: O_17  and  C_18
REMARK                            x       y       z     vdW  Elec       q    Type
REMARK                         _______ _______ _______ _____ _____    ______ ____
ROOT
ATOM      1  C   UNL     1       1.738   3.334  19.473  0.00  0.00    +0.000 A 
ATOM      2  C   UNL     1       1.640   2.295  18.528  0.00  0.00    +0.000 A 
ATOM      3  C   UNL     1       2.603   2.127  17.544  0.00  0.00    +0.000 A 
ATOM      4  C   UNL     1       3.639   3.040  17.439  0.00  0.00    +0.000 A 
ATOM      5  C   UNL     1       3.708   4.139  18.321  0.00  0.00    +0.000 A 
ATOM      6  C   UNL     1       2.741   4.314  19.340  0.00  0.00    +0.000 A 
ENDROOT
BRANCH   5   7
ATOM      7  C   UNL     1       4.834   5.090  18.182  0.00  0.00    +0.000 A 
ATOM      8  N   UNL     1       5.943   5.058  18.881  0.00  0.00    +0.000 NA
ATOM      9  N   UNL     1       6.700   6.073  18.415  0.00  0.00    +0.000 N 
ATOM     10  C   UNL     1       7.943   6.537  18.724  0.00  0.00    +0.000 A 
ATOM     11  N   UNL     1       8.196   7.599  17.977  0.00  0.00    +0.000 NA
ATOM     12  N   UNL     1       7.102   7.823  17.146  0.00  0.00    +0.000 NA
ATOM     13  C   UNL     1       6.248   6.889  17.435  0.00  0.00    +0.000 A 
ATOM     14  S   UNL     1       4.699   6.394  16.940  0.00  0.00    +0.000 S 
ENDBRANCH   5   7
BRANCH   1  16
ATOM     15  C   UNL     1       1.328   2.714  21.717  0.00  0.00    +0.000 C 
ATOM     16  O   UNL     1       0.865   3.372  20.530  0.00  0.00    +0.000 OA
ENDBRANCH   1  16
BRANCH   6  17
ATOM     17  O   UNL     1       2.942   5.410  20.132  0.00  0.00    +0.000 OA
ATOM     18  C   UNL     1       2.120   6.554  20.056  0.00  0.00    +0.000 C 
ENDBRANCH   6  17
TORSDOF 3
ENDMDL
MODEL 3
REMARK VINA RESULT:      -6.7      1.027      1.045
REMARK  Name = 
REMARK  5 active torsions:
REMARK  status: ('A' for Active; 'I' for Inactive)
REMARK    1  A    between atoms: C_1  and  O_2
REMARK    2  A    between atoms: O_2  and  C_3
REMARK    3  A    between atoms: C_7  and  C_8
REMARK    4  A    between atoms: C_16  and  O_17
REMARK    5  A    between atoms: O_17  and  C_18
REMARK                            x       y       z     vdW  Elec       q    Type
REMARK                         _______ _______ _______ _____ _____    ______ ____
ROOT
ATOM      1  C   UNL     1       2.814   4.167  20.615  0.00  0.00    +0.000 A 
ATOM      2  C   UNL     1       2.103   5.367  20.803  0.00  0.00    +0.000 A 
ATOM      3  C   UNL     1       2.185   6.402  19.882  0.00  0.00    +0.000 A 
ATOM      4  C   UNL     1       3.040   6.286  18.799  0.00  0.00    +0.000 A 
ATOM      5  C   UNL     1       3.829   5.127  18.639  0.00  0.00    +0.000 A 
ATOM      6  C   UNL     1       3.743   4.057  19.562  0.00  0.00    +0.000 A 
ENDROOT
BRANCH   5   7
ATOM      7  C   UNL     1       4.727   5.037  17.465  0.00  0.00    +0.000 A 
ATOM      8  N   UNL     1       4.456   4.399  16.353  0.00  0.00    +0.000 NA
ATOM      9  N   UNL     1       5.520   4.597  15.547  0.00  0.00    +0.000 N 
ATOM     10  C   UNL     1       5.824   4.207  14.278  0.00  0.00    +0.000 A 
ATOM     11  N   UNL     1       7.032   4.652  13.976  0.00  0.00    +0.000 NA
ATOM     12  N   UNL     1       7.523   5.366  15.065  0.00  0.00    +0.000 NA
ATOM     13  C   UNL     1       6.588   5.315  15.965  0.00  0.00    +0.000 A 
ATOM     14  S   UNL     1       6.319   5.885  17.544  0.00  0.00    +0.000 S 
ENDBRANCH   5   7
BRANCH   1  16
ATOM     15  C   UNL     1       1.215   2.676  21.513  0.00  0.00    +0.000 C 
ATOM     16  O   UNL     1       2.582   3.105  21.450  0.00  0.00    +0.000 OA
ENDBRANCH   1  16
BRANCH   6  17
ATOM     17  O   UNL     1       4.550   2.991  19.273  0.00  0.00    +0.000 OA
ATOM     18  C   UNL     1       4.033   1.752  18.842  0.00  0.00    +0.000 C 
ENDBRANCH   6  17
TORSDOF 3
ENDMDL
MODEL 4
REMARK VINA RESULT:      -6.5      3.419      6.160
REMARK  Name = 
REMARK  5 active torsions:
REMARK  status: ('A' for Active; 'I' for Inactive)
REMARK    1  A    between atoms: C_1  and  O_2
REMARK    2  A    between atoms: O_2  and  C_3
REMARK    3  A    between atoms: C_7  and  C_8
REMARK    4  A    between atoms: C_16  and  O_17
REMARK    5  A    between atoms: O_17  and  C_18
REMARK                            x       y       z     vdW  Elec       q    Type
REMARK                         _______ _______ _______ _____ _____    ______ ____
ROOT
ATOM      1  C   UNL     1       6.817   5.772  16.715  0.00  0.00    +0.000 A 
ATOM      2  C   UNL     1       6.460   5.260  15.454  0.00  0.00    +0.000 A 
ATOM      3  C   UNL     1       5.354   4.437  15.301  0.00  0.00    +0.000 A 
ATOM      4  C   UNL     1       4.632   4.047  16.418  0.00  0.00    +0.000 A 
ATOM      5  C   UNL     1       5.026   4.478  17.702  0.00  0.00    +0.000 A 
ATOM      6  C   UNL     1       6.142   5.332  17.871  0.00  0.00    +0.000 A 
ENDROOT
BRANCH   5   7
ATOM      7  C   UNL     1       4.226   4.047  18.871  0.00  0.00    +0.000 A 
ATOM      8  N   UNL     1       3.202   4.697  19.369  0.00  0.00    +0.000 NA
ATOM      9  N   UNL     1       2.753   3.945  20.395  0.00  0.00    +0.000 N 
ATOM     10  C   UNL     1       1.724   4.077  21.278  0.00  0.00    +0.000 A 
ATOM     11  N   UNL     1       1.752   3.055  22.117  0.00  0.00    +0.000 NA
ATOM     12  N   UNL     1       2.812   2.224  21.763  0.00  0.00    +0.000 NA
ATOM     13  C   UNL     1       3.367   2.787  20.732  0.00  0.00    +0.000 A 
ATOM     14  S   UNL     1       4.667   2.493  19.677  0.00  0.00    +0.000 S 
ENDBRANCH   5   7
BRANCH   1  16
ATOM     15  C   UNL     1       7.389   7.984  17.324  0.00  0.00    +0.000 C 
ATOM     16  O   UNL     1       7.810   6.714  16.807  0.00  0.00    +0.000 OA
ENDBRANCH   1  16
BRANCH   6  17
ATOM     17  O   UNL     1       6.398   5.685  19.167  0.00  0.00    +0.000 OA
ATOM     18  C   UNL     1       7.636   5.422  19.789  0.00  0.00    +0.000 C 
ENDBRANCH   6  17
TORSDOF 3
ENDMDL
MODEL 5
REMARK VINA RESULT:      -6.5      3.399      6.223
REMARK  Name = 
REMARK  5 active torsions:
REMARK  status: ('A' for Active; 'I' for Inactive)
REMARK    1  A    between atoms: C_1  and  O_2
REMARK    2  A    between atoms: O_2  and  C_3
REMARK    3  A    between atoms: C_7  and  C_8
REMARK    4  A    between atoms: C_16  and  O_17
REMARK    5  A    between atoms: O_17  and  C_18
REMARK                            x       y       z     vdW  Elec       q    Type
REMARK                         _______ _______ _______ _____ _____    ______ ____
ROOT
ATOM      1  C   UNL     1       6.854   5.739  16.647  0.00  0.00    +0.000 A 
ATOM      2  C   UNL     1       6.587   5.204  15.374  0.00  0.00    +0.000 A 
ATOM      3  C   UNL     1       5.488   4.386  15.154  0.00  0.00    +0.000 A 
ATOM      4  C   UNL     1       4.680   4.027  16.221  0.00  0.00    +0.000 A 
ATOM      5  C   UNL     1       4.980   4.482  17.522  0.00  0.00    +0.000 A 
ATOM      6  C   UNL     1       6.089   5.329  17.757  0.00  0.00    +0.000 A 
ENDROOT
BRANCH   5   7
ATOM      7  C   UNL     1       4.090   4.082  18.635  0.00  0.00    +0.000 A 
ATOM      8  N   UNL     1       4.317   3.099  19.471  0.00  0.00    +0.000 NA
ATOM      9  N   UNL     1       3.281   3.104  20.336  0.00  0.00    +0.000 N 
ATOM     10  C   UNL     1       2.958   2.347  21.421  0.00  0.00    +0.000 A 
ATOM     11  N   UNL     1       1.794   2.759  21.894  0.00  0.00    +0.000 NA
ATOM     12  N   UNL     1       1.354   3.823  21.112  0.00  0.00    +0.000 NA
ATOM     13  C   UNL     1       2.273   3.997  20.211  0.00  0.00    +0.000 A 
ATOM     14  S   UNL     1       2.573   5.027  18.893  0.00  0.00    +0.000 S 
ENDBRANCH   5   7
BRANCH   1  16
ATOM     15  C   UNL     1       7.400   7.959  17.250  0.00  0.00    +0.000 C 
ATOM     16  O   UNL     1       7.846   6.675  16.795  0.00  0.00    +0.000 OA
ENDBRANCH   1  16
BRANCH   6  17
ATOM     17  O   UNL     1       6.249   5.707  19.062  0.00  0.00    +0.000 OA
ATOM     18  C   UNL     1       7.428   5.431  19.786  0.00  0.00    +0.000 C 
ENDBRANCH   6  17
TORSDOF 3
ENDMDL
MODEL 6
REMARK VINA RESULT:      -6.1      1.448      2.439
REMARK  Name = 
REMARK  5 active torsions:
REMARK  status: ('A' for Active; 'I' for Inactive)
REMARK    1  A    between atoms: C_1  and  O_2
REMARK    2  A    between atoms: O_2  and  C_3
REMARK    3  A    between atoms: C_7  and  C_8
REMARK    4  A    between atoms: C_16  and  O_17
REMARK    5  A    between atoms: O_17  and  C_18
REMARK                            x       y       z     vdW  Elec       q    Type
REMARK                         _______ _______ _______ _____ _____    ______ ____
ROOT
ATOM      1  C   UNL     1       2.169   4.411  19.977  0.00  0.00    +0.000 A 
ATOM      2  C   UNL     1       2.528   3.316  20.784  0.00  0.00    +0.000 A 
ATOM      3  C   UNL     1       3.689   2.597  20.543  0.00  0.00    +0.000 A 
ATOM      4  C   UNL     1       4.472   2.911  19.445  0.00  0.00    +0.000 A 
ATOM      5  C   UNL     1       4.084   3.950  18.572  0.00  0.00    +0.000 A 
ATOM      6  C   UNL     1       2.911   4.702  18.815  0.00  0.00    +0.000 A 
ENDROOT
BRANCH   5   7
ATOM      7  C   UNL     1       4.950   4.262  17.412  0.00  0.00    +0.000 A 
ATOM      8  N   UNL     1       4.757   3.837  16.187  0.00  0.00    +0.000 NA
ATOM      9  N   UNL     1       5.750   4.377  15.451  0.00  0.00    +0.000 N 
ATOM     10  C   UNL     1       6.078   4.321  14.129  0.00  0.00    +0.000 A 
ATOM     11  N   UNL     1       7.187   5.016  13.938  0.00  0.00    +0.000 NA
ATOM     12  N   UNL     1       7.584   5.556  15.159  0.00  0.00    +0.000 NA
ATOM     13  C   UNL     1       6.696   5.159  16.020  0.00  0.00    +0.000 A 
ATOM     14  S   UNL     1       6.382   5.329  17.682  0.00  0.00    +0.000 S 
ENDBRANCH   5   7
BRANCH   1  16
ATOM     15  C   UNL     1       1.467   6.410  21.027  0.00  0.00    +0.000 C 
ATOM     16  O   UNL     1       1.109   5.202  20.341  0.00  0.00    +0.000 OA
ENDBRANCH   1  16
BRANCH   6  17
ATOM     17  O   UNL     1       2.668   5.688  17.900  0.00  0.00    +0.000 OA
ATOM     18  C   UNL     1       3.030   7.032  18.128  0.00  0.00    +0.000 C 
ENDBRANCH   6  17
TORSDOF 3
ENDMDL
MODEL 7
REMARK VINA RESULT:      -6.0      3.607      5.609
REMARK  Name = 
REMARK  5 active torsions:
REMARK  status: ('A' for Active; 'I' for Inactive)
REMARK    1  A    between atoms: C_1  and  O_2
REMARK    2  A    between atoms: O_2  and  C_3
REMARK    3  A    between atoms: C_7  and  C_8
REMARK    4  A    between atoms: C_16  and  O_17
REMARK    5  A    between atoms: O_17  and  C_18
REMARK                            x       y       z     vdW  Elec       q    Type
REMARK                         _______ _______ _______ _____ _____    ______ ____
ROOT
ATOM      1  C   UNL     1       3.323   3.701  17.394  0.00  0.00    +0.000 A 
ATOM      2  C   UNL     1       4.553   3.998  16.778  0.00  0.00    +0.000 A 
ATOM      3  C   UNL     1       5.129   5.255  16.894  0.00  0.00    +0.000 A 
ATOM      4  C   UNL     1       4.447   6.260  17.561  0.00  0.00    +0.000 A 
ATOM      5  C   UNL     1       3.172   6.007  18.110  0.00  0.00    +0.000 A 
ATOM      6  C   UNL     1       2.581   4.725  18.014  0.00  0.00    +0.000 A 
ENDROOT
BRANCH   5   7
ATOM      7  C   UNL     1       2.478   7.104  18.822  0.00  0.00    +0.000 A 
ATOM      8  N   UNL     1       2.222   7.130  20.108  0.00  0.00    +0.000 NA
ATOM      9  N   UNL     1       1.612   8.312  20.338  0.00  0.00    +0.000 N 
ATOM     10  C   UNL     1       1.127   8.917  21.457  0.00  0.00    +0.000 A 
ATOM     11  N   UNL     1       0.587  10.074  21.113  0.00  0.00    +0.000 NA
ATOM     12  N   UNL     1       0.740  10.239  19.738  0.00  0.00    +0.000 NA
ATOM     13  C   UNL     1       1.362   9.176  19.327  0.00  0.00    +0.000 A 
ATOM     14  S   UNL     1       1.950   8.541  17.864  0.00  0.00    +0.000 S 
ENDBRANCH   5   7
BRANCH   1  16
ATOM     15  C   UNL     1       3.515   1.546  18.345  0.00  0.00    +0.000 C 
ATOM     16  O   UNL     1       2.865   2.408  17.403  0.00  0.00    +0.000 OA
ENDBRANCH   1  16
BRANCH   6  17
ATOM     17  O   UNL     1       1.353   4.619  18.607  0.00  0.00    +0.000 OA
ATOM     18  C   UNL     1       1.148   3.868  19.783  0.00  0.00    +0.000 C 
ENDBRANCH   6  17
TORSDOF 3
ENDMDL
MODEL 8
REMARK VINA RESULT:      -6.0      1.865      2.886
REMARK  Name = 
REMARK  5 active torsions:
REMARK  status: ('A' for Active; 'I' for Inactive)
REMARK    1  A    between atoms: C_1  and  O_2
REMARK    2  A    between atoms: O_2  and  C_3
REMARK    3  A    between atoms: C_7  and  C_8
REMARK    4  A    between atoms: C_16  and  O_17
REMARK    5  A    between atoms: O_17  and  C_18
REMARK                            x       y       z     vdW  Elec       q    Type
REMARK                         _______ _______ _______ _____ _____    ______ ____
ROOT
ATOM      1  C   UNL     1       1.812   3.431  19.365  0.00  0.00    +0.000 A 
ATOM      2  C   UNL     1       1.718   2.408  18.403  0.00  0.00    +0.000 A 
ATOM      3  C   UNL     1       2.695   2.244  17.432  0.00  0.00    +0.000 A 
ATOM      4  C   UNL     1       3.743   3.147  17.358  0.00  0.00    +0.000 A 
ATOM      5  C   UNL     1       3.809   4.232  18.258  0.00  0.00    +0.000 A 
ATOM      6  C   UNL     1       2.829   4.402  19.264  0.00  0.00    +0.000 A 
ENDROOT
BRANCH   5   7
ATOM      7  C   UNL     1       4.948   5.172  18.152  0.00  0.00    +0.000 A 
ATOM      8  N   UNL     1       4.984   6.235  17.387  0.00  0.00    +0.000 NA
ATOM      9  N   UNL     1       6.179   6.816  17.619  0.00  0.00    +0.000 N 
ATOM     10  C   UNL     1       6.787   7.940  17.146  0.00  0.00    +0.000 A 
ATOM     11  N   UNL     1       7.991   8.029  17.685  0.00  0.00    +0.000 NA
ATOM     12  N   UNL     1       8.168   6.950  18.547  0.00  0.00    +0.000 NA
ATOM     13  C   UNL     1       7.065   6.268  18.483  0.00  0.00    +0.000 A 
ATOM     14  S   UNL     1       6.408   4.858  19.168  0.00  0.00    +0.000 S 
ENDBRANCH   5   7
BRANCH   1  16
ATOM     15  C   UNL     1       1.338   2.740  21.576  0.00  0.00    +0.000 C 
ATOM     16  O   UNL     1       0.923   3.463  20.409  0.00  0.00    +0.000 OA
ENDBRANCH   1  16
BRANCH   6  17
ATOM     17  O   UNL     1       3.028   5.483  20.076  0.00  0.00    +0.000 OA
ATOM     18  C   UNL     1       2.246   6.653  19.977  0.00  0.00    +0.000 C 
ENDBRANCH   6  17
TORSDOF 3
ENDMDL
MODEL 9
REMARK VINA RESULT:      -6.0      1.691      1.853
REMARK  Name = 
REMARK  5 active torsions:
REMARK  status: ('A' for Active; 'I' for Inactive)
REMARK    1  A    between atoms: C_1  and  O_2
REMARK    2  A    between atoms: O_2  and  C_3
REMARK    3  A    between atoms: C_7  and  C_8
REMARK    4  A    between atoms: C_16  and  O_17
REMARK    5  A    between atoms: O_17  and  C_18
REMARK                            x       y       z     vdW  Elec       q    Type
REMARK                         _______ _______ _______ _____ _____    ______ ____
ROOT
ATOM      1  C   UNL     1       2.107   2.865  19.925  0.00  0.00    +0.000 A 
ATOM      2  C   UNL     1       0.849   3.183  19.380  0.00  0.00    +0.000 A 
ATOM      3  C   UNL     1       0.738   3.809  18.147  0.00  0.00    +0.000 A 
ATOM      4  C   UNL     1       1.884   4.199  17.473  0.00  0.00    +0.000 A 
ATOM      5  C   UNL     1       3.154   3.968  18.043  0.00  0.00    +0.000 A 
ATOM      6  C   UNL     1       3.282   3.315  19.292  0.00  0.00    +0.000 A 
ENDROOT
BRANCH   5   7
ATOM      7  C   UNL     1       4.356   4.393  17.290  0.00  0.00    +0.000 A 
ATOM      8  N   UNL     1       4.837   3.791  16.229  0.00  0.00    +0.000 NA
ATOM      9  N   UNL     1       5.907   4.518  15.847  0.00  0.00    +0.000 N 
ATOM     10  C   UNL     1       6.799   4.412  14.823  0.00  0.00    +0.000 A 
ATOM     11  N   UNL     1       7.688   5.385  14.933  0.00  0.00    +0.000 NA
ATOM     12  N   UNL     1       7.359   6.157  16.044  0.00  0.00    +0.000 NA
ATOM     13  C   UNL     1       6.293   5.611  16.544  0.00  0.00    +0.000 A 
ATOM     14  S   UNL     1       5.233   5.869  17.848  0.00  0.00    +0.000 S 
ENDBRANCH   5   7
BRANCH   1  16
ATOM     15  C   UNL     1       1.383   2.568  22.155  0.00  0.00    +0.000 C 
ATOM     16  O   UNL     1       2.179   2.098  21.059  0.00  0.00    +0.000 OA
ENDBRANCH   1  16
BRANCH   6  17
ATOM     17  O   UNL     1       4.571   3.142  19.713  0.00  0.00    +0.000 OA
ATOM     18  C   UNL     1       5.023   1.928  20.272  0.00  0.00    +0.000 C 
ENDBRANCH   6  17
TORSDOF 3
ENDMDL
