MODEL 1
REMARK VINA RESULT:      -8.3      0.000      0.000
REMARK  Name = 
REMARK  3 active torsions:
REMARK  status: ('A' for Active; 'I' for Inactive)
REMARK    1  A    between atoms: C_8  and  C_9
REMARK    2  A    between atoms: N_14  and  C_15
REMARK    3  A    between atoms: C_15  and  C_16
REMARK                            x       y       z     vdW  Elec       q    Type
REMARK                         _______ _______ _______ _____ _____    ______ ____
ROOT
ATOM      1  C   UNL     1       8.504   9.284  18.348  0.00  0.00    +0.000 A 
ATOM      2  N   UNL     1       8.814   8.147  19.095  0.00  0.00    +0.000 NA
ATOM      3  C   UNL     1       8.082   7.224  18.555  0.00  0.00    +0.000 A 
ATOM      4  C   UNL     1       7.945   5.797  18.862  0.00  0.00    +0.000 A 
ATOM      5  C   UNL     1       7.087   5.113  18.082  0.00  0.00    +0.000 A 
ATOM      6  N   UNL     1       6.321   5.663  17.047  0.00  0.00    +0.000 N 
ATOM      7  C   UNL     1       6.484   7.026  16.770  0.00  0.00    +0.000 A 
ATOM      8  C   UNL     1       7.309   7.811  17.465  0.00  0.00    +0.000 A 
ATOM      9  N   UNL     1       7.626   9.130  17.386  0.00  0.00    +0.000 NA
ENDROOT
BRANCH   1  17
ATOM     10  F   UNL     1       7.788  11.788  17.185  0.00  0.00    +0.000 F 
ATOM     11  C   UNL     1       8.788  11.756  18.078  0.00  0.00    +0.000 A 
ATOM     12  C   UNL     1       9.441  12.945  18.407  0.00  0.00    +0.000 A 
ATOM     13 CL   UNL     1       8.963  14.434  17.681  0.00  0.00    +0.000 Cl
ATOM     14  C   UNL     1      10.489  12.948  19.328  0.00  0.00    +0.000 A 
ATOM     15  C   UNL     1      10.890  11.754  19.926  0.00  0.00    +0.000 A 
ATOM     16  C   UNL     1      10.237  10.563  19.603  0.00  0.00    +0.000 A 
ATOM     17  C   UNL     1       9.181  10.558  18.675  0.00  0.00    +0.000 A 
ENDBRANCH   1  17
BRANCH   6  18
ATOM     18  C   UNL     1       5.368   4.844  16.268  0.00  0.00    +0.000 C 
BRANCH  18  19
ATOM     19  C   UNL     1       4.187   4.423  17.117  0.00  0.00    +0.000 A 
ATOM     20  C   UNL     1       3.342   5.387  17.685  0.00  0.00    +0.000 A 
ATOM     21  C   UNL     1       2.356   5.015  18.602  0.00  0.00    +0.000 A 
ATOM     22  C   UNL     1       2.193   3.672  18.936  0.00  0.00    +0.000 A 
ATOM     23 BR   UNL     1       0.951   3.183  20.274  0.00  0.00    +0.000 Br
ATOM     24  C   UNL     1       2.970   2.694  18.321  0.00  0.00    +0.000 A 
ATOM     25  C   UNL     1       3.966   3.068  17.414  0.00  0.00    +0.000 A 
ENDBRANCH  18  19
ENDBRANCH   6  18
TORSDOF 3
ENDMDL
MODEL 2
REMARK VINA RESULT:      -8.3      6.922      9.169
REMARK  Name = 
REMARK  3 active torsions:
REMARK  status: ('A' for Active; 'I' for Inactive)
REMARK    1  A    between atoms: C_8  and  C_9
REMARK    2  A    between atoms: N_14  and  C_15
REMARK    3  A    between atoms: C_15  and  C_16
REMARK                            x       y       z     vdW  Elec       q    Type
REMARK                         _______ _______ _______ _____ _____    ______ ____
ROOT
ATOM      1  C   UNL     1       2.550   7.380  18.417  0.00  0.00    +0.000 A 
ATOM      2  N   UNL     1       2.164   7.400  19.757  0.00  0.00    +0.000 NA
ATOM      3  C   UNL     1       1.532   8.526  19.871  0.00  0.00    +0.000 A 
ATOM      4  C   UNL     1       0.867   9.148  21.020  0.00  0.00    +0.000 A 
ATOM      5  C   UNL     1       0.288  10.340  20.782  0.00  0.00    +0.000 A 
ATOM      6  N   UNL     1       0.302  11.016  19.556  0.00  0.00    +0.000 N 
ATOM      7  C   UNL     1       0.935  10.390  18.475  0.00  0.00    +0.000 A 
ATOM      8  C   UNL     1       1.538   9.204  18.578  0.00  0.00    +0.000 A 
ATOM      9  N   UNL     1       2.205   8.418  17.693  0.00  0.00    +0.000 NA
ENDROOT
BRANCH   1  17
ATOM     10  F   UNL     1       1.556   4.709  18.545  0.00  0.00    +0.000 F 
ATOM     11  C   UNL     1       2.760   4.922  17.994  0.00  0.00    +0.000 A 
ATOM     12  C   UNL     1       3.483   3.833  17.504  0.00  0.00    +0.000 A 
ATOM     13 CL   UNL     1       2.833   2.239  17.598  0.00  0.00    +0.000 Cl
ATOM     14  C   UNL     1       4.740   4.017  16.928  0.00  0.00    +0.000 A 
ATOM     15  C   UNL     1       5.282   5.298  16.841  0.00  0.00    +0.000 A 
ATOM     16  C   UNL     1       4.563   6.391  17.327  0.00  0.00    +0.000 A 
ATOM     17  C   UNL     1       3.295   6.208  17.908  0.00  0.00    +0.000 A 
ENDBRANCH   1  17
BRANCH   6  18
ATOM     18  C   UNL     1      -0.323  12.346  19.395  0.00  0.00    +0.000 C 
BRANCH  18  19
ATOM     19  C   UNL     1      -1.792  12.223  19.050  0.00  0.00    +0.000 A 
ATOM     20  C   UNL     1      -2.773  12.599  19.979  0.00  0.00    +0.000 A 
ATOM     21  C   UNL     1      -4.121  12.332  19.735  0.00  0.00    +0.000 A 
ATOM     22  C   UNL     1      -4.499  11.711  18.547  0.00  0.00    +0.000 A 
ATOM     23 BR   UNL     1      -6.306  11.231  18.273  0.00  0.00    +0.000 Br
ATOM     24  C   UNL     1      -3.547  11.404  17.578  0.00  0.00    +0.000 A 
ATOM     25  C   UNL     1      -2.196  11.659  17.829  0.00  0.00    +0.000 A 
ENDBRANCH  18  19
ENDBRANCH   6  18
TORSDOF 3
ENDMDL
MODEL 3
REMARK VINA RESULT:      -8.2      1.143      1.176
REMARK  Name = 
REMARK  3 active torsions:
REMARK  status: ('A' for Active; 'I' for Inactive)
REMARK    1  A    between atoms: C_8  and  C_9
REMARK    2  A    between atoms: N_14  and  C_15
REMARK    3  A    between atoms: C_15  and  C_16
REMARK                            x       y       z     vdW  Elec       q    Type
REMARK                         _______ _______ _______ _____ _____    ______ ____
ROOT
ATOM      1  C   UNL     1       8.726   9.375  18.718  0.00  0.00    +0.000 A 
ATOM      2  N   UNL     1       8.962   8.132  19.305  0.00  0.00    +0.000 NA
ATOM      3  C   UNL     1       8.159   7.341  18.666  0.00  0.00    +0.000 A 
ATOM      4  C   UNL     1       7.922   5.900  18.788  0.00  0.00    +0.000 A 
ATOM      5  C   UNL     1       7.008   5.386  17.943  0.00  0.00    +0.000 A 
ATOM      6  N   UNL     1       6.273   6.118  17.004  0.00  0.00    +0.000 N 
ATOM      7  C   UNL     1       6.531   7.491  16.902  0.00  0.00    +0.000 A 
ATOM      8  C   UNL     1       7.419   8.118  17.676  0.00  0.00    +0.000 A 
ATOM      9  N   UNL     1       7.830   9.411  17.762  0.00  0.00    +0.000 NA
ENDROOT
BRANCH   1  17
ATOM     10  F   UNL     1      10.540  10.837  17.072  0.00  0.00    +0.000 F 
ATOM     11  C   UNL     1      10.370  11.226  18.344  0.00  0.00    +0.000 A 
ATOM     12  C   UNL     1      11.084  12.328  18.817  0.00  0.00    +0.000 A 
ATOM     13 CL   UNL     1      12.162  13.183  17.777  0.00  0.00    +0.000 Cl
ATOM     14  C   UNL     1      10.936  12.757  20.136  0.00  0.00    +0.000 A 
ATOM     15  C   UNL     1      10.068  12.080  20.992  0.00  0.00    +0.000 A 
ATOM     16  C   UNL     1       9.350  10.979  20.523  0.00  0.00    +0.000 A 
ATOM     17  C   UNL     1       9.498  10.545  19.194  0.00  0.00    +0.000 A 
ENDBRANCH   1  17
BRANCH   6  18
ATOM     18  C   UNL     1       5.255   5.477  16.144  0.00  0.00    +0.000 C 
BRANCH  18  19
ATOM     19  C   UNL     1       4.100   4.946  16.967  0.00  0.00    +0.000 A 
ATOM     20  C   UNL     1       3.324   5.817  17.745  0.00  0.00    +0.000 A 
ATOM     21  C   UNL     1       2.369   5.316  18.632  0.00  0.00    +0.000 A 
ATOM     22  C   UNL     1       2.168   3.942  18.728  0.00  0.00    +0.000 A 
ATOM     23 BR   UNL     1       0.972   3.257  20.022  0.00  0.00    +0.000 Br
ATOM     24  C   UNL     1       2.873   3.067  17.906  0.00  0.00    +0.000 A 
ATOM     25  C   UNL     1       3.838   3.568  17.027  0.00  0.00    +0.000 A 
ENDBRANCH  18  19
ENDBRANCH   6  18
TORSDOF 3
ENDMDL
MODEL 4
REMARK VINA RESULT:      -8.2      1.313      1.445
REMARK  Name = 
REMARK  3 active torsions:
REMARK  status: ('A' for Active; 'I' for Inactive)
REMARK    1  A    between atoms: C_8  and  C_9
REMARK    2  A    between atoms: N_14  and  C_15
REMARK    3  A    between atoms: C_15  and  C_16
REMARK                            x       y       z     vdW  Elec       q    Type
REMARK                         _______ _______ _______ _____ _____    ______ ____
ROOT
ATOM      1  C   UNL     1       8.613   9.316  18.360  0.00  0.00    +0.000 A 
ATOM      2  N   UNL     1       8.874   8.175  19.119  0.00  0.00    +0.000 NA
ATOM      3  C   UNL     1       8.098   7.281  18.593  0.00  0.00    +0.000 A 
ATOM      4  C   UNL     1       7.897   5.865  18.917  0.00  0.00    +0.000 A 
ATOM      5  C   UNL     1       7.006   5.213  18.148  0.00  0.00    +0.000 A 
ATOM      6  N   UNL     1       6.262   5.784  17.108  0.00  0.00    +0.000 N 
ATOM      7  C   UNL     1       6.487   7.135  16.815  0.00  0.00    +0.000 A 
ATOM      8  C   UNL     1       7.349   7.890  17.497  0.00  0.00    +0.000 A 
ATOM      9  N   UNL     1       7.726   9.192  17.402  0.00  0.00    +0.000 NA
ENDROOT
BRANCH   1  17
ATOM     10  F   UNL     1       8.535  10.595  20.908  0.00  0.00    +0.000 F 
ATOM     11  C   UNL     1       9.278  11.144  19.936  0.00  0.00    +0.000 A 
ATOM     12  C   UNL     1       9.984  12.317  20.204  0.00  0.00    +0.000 A 
ATOM     13 CL   UNL     1       9.910  13.045  21.766  0.00  0.00    +0.000 Cl
ATOM     14  C   UNL     1      10.763  12.918  19.215  0.00  0.00    +0.000 A 
ATOM     15  C   UNL     1      10.837  12.345  17.946  0.00  0.00    +0.000 A 
ATOM     16  C   UNL     1      10.135  11.169  17.674  0.00  0.00    +0.000 A 
ATOM     17  C   UNL     1       9.350  10.562  18.670  0.00  0.00    +0.000 A 
ENDBRANCH   1  17
BRANCH   6  18
ATOM     18  C   UNL     1       5.270   5.001  16.342  0.00  0.00    +0.000 C 
BRANCH  18  19
ATOM     19  C   UNL     1       4.133   4.540  17.229  0.00  0.00    +0.000 A 
ATOM     20  C   UNL     1       3.286   5.476  17.841  0.00  0.00    +0.000 A 
ATOM     21  C   UNL     1       2.345   5.069  18.789  0.00  0.00    +0.000 A 
ATOM     22  C   UNL     1       2.229   3.719  19.112  0.00  0.00    +0.000 A 
ATOM     23 BR   UNL     1       1.051   3.183  20.489  0.00  0.00    +0.000 Br
ATOM     24  C   UNL     1       3.006   2.768  18.456  0.00  0.00    +0.000 A 
ATOM     25  C   UNL     1       3.957   3.177  17.517  0.00  0.00    +0.000 A 
ENDBRANCH  18  19
ENDBRANCH   6  18
TORSDOF 3
ENDMDL
MODEL 5
REMARK VINA RESULT:      -8.2      6.320      8.766
REMARK  Name = 
REMARK  3 active torsions:
REMARK  status: ('A' for Active; 'I' for Inactive)
REMARK    1  A    between atoms: C_8  and  C_9
REMARK    2  A    between atoms: N_14  and  C_15
REMARK    3  A    between atoms: C_15  and  C_16
REMARK                            x       y       z     vdW  Elec       q    Type
REMARK                         _______ _______ _______ _____ _____    ______ ____
ROOT
ATOM      1  C   UNL     1       2.637   7.173  18.380  0.00  0.00    +0.000 A 
ATOM      2  N   UNL     1       2.220   7.164  19.712  0.00  0.00    +0.000 NA
ATOM      3  C   UNL     1       1.618   8.304  19.846  0.00  0.00    +0.000 A 
ATOM      4  C   UNL     1       0.944   8.911  20.997  0.00  0.00    +0.000 A 
ATOM      5  C   UNL     1       0.406  10.126  20.782  0.00  0.00    +0.000 A 
ATOM      6  N   UNL     1       0.470  10.838  19.579  0.00  0.00    +0.000 N 
ATOM      7  C   UNL     1       1.110  10.226  18.494  0.00  0.00    +0.000 A 
ATOM      8  C   UNL     1       1.676   9.021  18.575  0.00  0.00    +0.000 A 
ATOM      9  N   UNL     1       2.341   8.242  17.681  0.00  0.00    +0.000 NA
ENDROOT
BRANCH   1  17
ATOM     10  F   UNL     1       5.350   7.258  17.501  0.00  0.00    +0.000 F 
ATOM     11  C   UNL     1       4.690   6.093  17.439  0.00  0.00    +0.000 A 
ATOM     12  C   UNL     1       5.350   4.965  16.948  0.00  0.00    +0.000 A 
ATOM     13 CL   UNL     1       6.994   5.069  16.437  0.00  0.00    +0.000 Cl
ATOM     14  C   UNL     1       4.693   3.737  16.864  0.00  0.00    +0.000 A 
ATOM     15  C   UNL     1       3.365   3.633  17.274  0.00  0.00    +0.000 A 
ATOM     16  C   UNL     1       2.700   4.757  17.768  0.00  0.00    +0.000 A 
ATOM     17  C   UNL     1       3.361   5.995  17.853  0.00  0.00    +0.000 A 
ENDBRANCH   1  17
BRANCH   6  18
ATOM     18  C   UNL     1      -0.112  12.191  19.445  0.00  0.00    +0.000 C 
BRANCH  18  19
ATOM     19  C   UNL     1      -1.573  12.122  19.054  0.00  0.00    +0.000 A 
ATOM     20  C   UNL     1      -2.569  12.511  19.961  0.00  0.00    +0.000 A 
ATOM     21  C   UNL     1      -3.918  12.294  19.671  0.00  0.00    +0.000 A 
ATOM     22  C   UNL     1      -4.279  11.709  18.460  0.00  0.00    +0.000 A 
ATOM     23 BR   UNL     1      -6.092  11.292  18.124  0.00  0.00    +0.000 Br
ATOM     24  C   UNL     1      -3.308  11.390  17.514  0.00  0.00    +0.000 A 
ATOM     25  C   UNL     1      -1.958  11.595  17.810  0.00  0.00    +0.000 A 
ENDBRANCH  18  19
ENDBRANCH   6  18
TORSDOF 3
ENDMDL
MODEL 6
REMARK VINA RESULT:      -8.1      7.060      9.328
REMARK  Name = 
REMARK  3 active torsions:
REMARK  status: ('A' for Active; 'I' for Inactive)
REMARK    1  A    between atoms: C_8  and  C_9
REMARK    2  A    between atoms: N_14  and  C_15
REMARK    3  A    between atoms: C_15  and  C_16
REMARK                            x       y       z     vdW  Elec       q    Type
REMARK                         _______ _______ _______ _____ _____    ______ ____
ROOT
ATOM      1  C   UNL     1       2.510   7.303  18.560  0.00  0.00    +0.000 A 
ATOM      2  N   UNL     1       2.112   7.344  19.897  0.00  0.00    +0.000 NA
ATOM      3  C   UNL     1       1.455   8.457  19.981  0.00  0.00    +0.000 A 
ATOM      4  C   UNL     1       0.766   9.090  21.110  0.00  0.00    +0.000 A 
ATOM      5  C   UNL     1       0.163  10.263  20.841  0.00  0.00    +0.000 A 
ATOM      6  N   UNL     1       0.173  10.912  19.600  0.00  0.00    +0.000 N 
ATOM      7  C   UNL     1       0.829  10.276  18.539  0.00  0.00    +0.000 A 
ATOM      8  C   UNL     1       1.457   9.107  18.673  0.00  0.00    +0.000 A 
ATOM      9  N   UNL     1       2.148   8.316  17.811  0.00  0.00    +0.000 NA
ENDROOT
BRANCH   1  17
ATOM     10  F   UNL     1       1.427   4.672  18.358  0.00  0.00    +0.000 F 
ATOM     11  C   UNL     1       2.704   4.871  18.001  0.00  0.00    +0.000 A 
ATOM     12  C   UNL     1       3.457   3.787  17.545  0.00  0.00    +0.000 A 
ATOM     13 CL   UNL     1       2.751   2.218  17.433  0.00  0.00    +0.000 Cl
ATOM     14  C   UNL     1       4.790   3.957  17.171  0.00  0.00    +0.000 A 
ATOM     15  C   UNL     1       5.379   5.218  17.252  0.00  0.00    +0.000 A 
ATOM     16  C   UNL     1       4.629   6.306  17.706  0.00  0.00    +0.000 A 
ATOM     17  C   UNL     1       3.285   6.137  18.083  0.00  0.00    +0.000 A 
ENDBRANCH   1  17
BRANCH   6  18
ATOM     18  C   UNL     1      -0.480  12.224  19.406  0.00  0.00    +0.000 C 
BRANCH  18  19
ATOM     19  C   UNL     1      -1.986  12.082  19.337  0.00  0.00    +0.000 A 
ATOM     20  C   UNL     1      -2.591  11.469  18.230  0.00  0.00    +0.000 A 
ATOM     21  C   UNL     1      -3.979  11.484  18.081  0.00  0.00    +0.000 A 
ATOM     22  C   UNL     1      -4.772  12.090  19.053  0.00  0.00    +0.000 A 
ATOM     23 BR   UNL     1      -6.639  12.228  18.787  0.00  0.00    +0.000 Br
ATOM     24  C   UNL     1      -4.194  12.632  20.197  0.00  0.00    +0.000 A 
ATOM     25  C   UNL     1      -2.803  12.629  20.339  0.00  0.00    +0.000 A 
ENDBRANCH  18  19
ENDBRANCH   6  18
TORSDOF 3
ENDMDL
MODEL 7
REMARK VINA RESULT:      -8.1      1.187      1.546
REMARK  Name = 
REMARK  3 active torsions:
REMARK  status: ('A' for Active; 'I' for Inactive)
REMARK    1  A    between atoms: C_8  and  C_9
REMARK    2  A    between atoms: N_14  and  C_15
REMARK    3  A    between atoms: C_15  and  C_16
REMARK                            x       y       z     vdW  Elec       q    Type
REMARK                         _______ _______ _______ _____ _____    ______ ____
ROOT
ATOM      1  C   UNL     1       8.737   9.428  18.717  0.00  0.00    +0.000 A 
ATOM      2  N   UNL     1       8.982   8.185  19.302  0.00  0.00    +0.000 NA
ATOM      3  C   UNL     1       8.185   7.390  18.661  0.00  0.00    +0.000 A 
ATOM      4  C   UNL     1       7.960   5.946  18.780  0.00  0.00    +0.000 A 
ATOM      5  C   UNL     1       7.050   5.427  17.935  0.00  0.00    +0.000 A 
ATOM      6  N   UNL     1       6.309   6.156  16.997  0.00  0.00    +0.000 N 
ATOM      7  C   UNL     1       6.556   7.530  16.898  0.00  0.00    +0.000 A 
ATOM      8  C   UNL     1       7.439   8.163  17.672  0.00  0.00    +0.000 A 
ATOM      9  N   UNL     1       7.840   9.459  17.761  0.00  0.00    +0.000 NA
ENDROOT
BRANCH   1  17
ATOM     10  F   UNL     1      10.562  10.889  17.082  0.00  0.00    +0.000 F 
ATOM     11  C   UNL     1      10.379  11.283  18.350  0.00  0.00    +0.000 A 
ATOM     12  C   UNL     1      11.084  12.389  18.825  0.00  0.00    +0.000 A 
ATOM     13 CL   UNL     1      12.169  13.244  17.792  0.00  0.00    +0.000 Cl
ATOM     14  C   UNL     1      10.921  12.824  20.141  0.00  0.00    +0.000 A 
ATOM     15  C   UNL     1      10.047  12.148  20.991  0.00  0.00    +0.000 A 
ATOM     16  C   UNL     1       9.338  11.042  20.521  0.00  0.00    +0.000 A 
ATOM     17  C   UNL     1       9.500  10.603  19.195  0.00  0.00    +0.000 A 
ENDBRANCH   1  17
BRANCH   6  18
ATOM     18  C   UNL     1       5.295   5.509  16.136  0.00  0.00    +0.000 C 
BRANCH  18  19
ATOM     19  C   UNL     1       4.250   4.792  16.966  0.00  0.00    +0.000 A 
ATOM     20  C   UNL     1       4.130   3.397  16.903  0.00  0.00    +0.000 A 
ATOM     21  C   UNL     1       3.066   2.747  17.532  0.00  0.00    +0.000 A 
ATOM     22  C   UNL     1       2.130   3.488  18.249  0.00  0.00    +0.000 A 
ATOM     23 BR   UNL     1       0.618   2.627  18.987  0.00  0.00    +0.000 Br
ATOM     24  C   UNL     1       2.278   4.866  18.388  0.00  0.00    +0.000 A 
ATOM     25  C   UNL     1       3.336   5.517  17.747  0.00  0.00    +0.000 A 
ENDBRANCH  18  19
ENDBRANCH   6  18
TORSDOF 3
ENDMDL
MODEL 8
REMARK VINA RESULT:      -8.1      6.488      8.926
REMARK  Name = 
REMARK  3 active torsions:
REMARK  status: ('A' for Active; 'I' for Inactive)
REMARK    1  A    between atoms: C_8  and  C_9
REMARK    2  A    between atoms: N_14  and  C_15
REMARK    3  A    between atoms: C_15  and  C_16
REMARK                            x       y       z     vdW  Elec       q    Type
REMARK                         _______ _______ _______ _____ _____    ______ ____
ROOT
ATOM      1  C   UNL     1       2.596   7.226  18.367  0.00  0.00    +0.000 A 
ATOM      2  N   UNL     1       2.234   7.237  19.715  0.00  0.00    +0.000 NA
ATOM      3  C   UNL     1       1.603   8.361  19.846  0.00  0.00    +0.000 A 
ATOM      4  C   UNL     1       0.957   8.976  21.010  0.00  0.00    +0.000 A 
ATOM      5  C   UNL     1       0.373  10.169  20.790  0.00  0.00    +0.000 A 
ATOM      6  N   UNL     1       0.365  10.852  19.567  0.00  0.00    +0.000 N 
ATOM      7  C   UNL     1       0.979  10.233  18.472  0.00  0.00    +0.000 A 
ATOM      8  C   UNL     1       1.585   9.047  18.558  0.00  0.00    +0.000 A 
ATOM      9  N   UNL     1       2.237   8.267  17.656  0.00  0.00    +0.000 NA
ENDROOT
BRANCH   1  17
ATOM     10  F   UNL     1       5.281   7.362  17.416  0.00  0.00    +0.000 F 
ATOM     11  C   UNL     1       4.649   6.180  17.388  0.00  0.00    +0.000 A 
ATOM     12  C   UNL     1       5.323   5.062  16.896  0.00  0.00    +0.000 A 
ATOM     13 CL   UNL     1       6.951   5.197  16.342  0.00  0.00    +0.000 Cl
ATOM     14  C   UNL     1       4.695   3.817  16.848  0.00  0.00    +0.000 A 
ATOM     15  C   UNL     1       3.380   3.687  17.294  0.00  0.00    +0.000 A 
ATOM     16  C   UNL     1       2.701   4.802  17.789  0.00  0.00    +0.000 A 
ATOM     17  C   UNL     1       3.333   6.057  17.838  0.00  0.00    +0.000 A 
ENDBRANCH   1  17
BRANCH   6  18
ATOM     18  C   UNL     1      -0.264  12.182  19.426  0.00  0.00    +0.000 C 
BRANCH  18  19
ATOM     19  C   UNL     1      -1.774  12.073  19.386  0.00  0.00    +0.000 A 
ATOM     20  C   UNL     1      -2.411  11.443  18.308  0.00  0.00    +0.000 A 
ATOM     21  C   UNL     1      -3.801  11.486  18.181  0.00  0.00    +0.000 A 
ATOM     22  C   UNL     1      -4.564  12.137  19.148  0.00  0.00    +0.000 A 
ATOM     23 BR   UNL     1      -6.431  12.310  18.909  0.00  0.00    +0.000 Br
ATOM     24  C   UNL     1      -3.954  12.698  20.267  0.00  0.00    +0.000 A 
ATOM     25  C   UNL     1      -2.562  12.667  20.386  0.00  0.00    +0.000 A 
ENDBRANCH  18  19
ENDBRANCH   6  18
TORSDOF 3
ENDMDL
MODEL 9
REMARK VINA RESULT:      -7.9      7.202      9.511
REMARK  Name = 
REMARK  3 active torsions:
REMARK  status: ('A' for Active; 'I' for Inactive)
REMARK    1  A    between atoms: C_8  and  C_9
REMARK    2  A    between atoms: N_14  and  C_15
REMARK    3  A    between atoms: C_15  and  C_16
REMARK                            x       y       z     vdW  Elec       q    Type
REMARK                         _______ _______ _______ _____ _____    ______ ____
ROOT
ATOM      1  C   UNL     1       2.418   7.307  18.707  0.00  0.00    +0.000 A 
ATOM      2  N   UNL     1       2.091   7.208  20.060  0.00  0.00    +0.000 NA
ATOM      3  C   UNL     1       1.545   8.354  20.321  0.00  0.00    +0.000 A 
ATOM      4  C   UNL     1       0.972   8.891  21.559  0.00  0.00    +0.000 A 
ATOM      5  C   UNL     1       0.469  10.137  21.476  0.00  0.00    +0.000 A 
ATOM      6  N   UNL     1       0.481  10.939  20.328  0.00  0.00    +0.000 N 
ATOM      7  C   UNL     1       1.023  10.392  19.158  0.00  0.00    +0.000 A 
ATOM      8  C   UNL     1       1.545   9.166  19.108  0.00  0.00    +0.000 A 
ATOM      9  N   UNL     1       2.118   8.437  18.113  0.00  0.00    +0.000 NA
ENDROOT
BRANCH   1  17
ATOM     10  F   UNL     1       1.364   4.658  18.805  0.00  0.00    +0.000 F 
ATOM     11  C   UNL     1       2.497   4.875  18.121  0.00  0.00    +0.000 A 
ATOM     12  C   UNL     1       3.119   3.801  17.483  0.00  0.00    +0.000 A 
ATOM     13 CL   UNL     1       2.435   2.220  17.565  0.00  0.00    +0.000 Cl
ATOM     14  C   UNL     1       4.301   3.989  16.766  0.00  0.00    +0.000 A 
ATOM     15  C   UNL     1       4.869   5.259  16.686  0.00  0.00    +0.000 A 
ATOM     16  C   UNL     1       4.250   6.338  17.321  0.00  0.00    +0.000 A 
ATOM     17  C   UNL     1       3.058   6.151  18.043  0.00  0.00    +0.000 A 
ENDBRANCH   1  17
BRANCH   6  18
ATOM     18  C   UNL     1      -0.055  12.317  20.338  0.00  0.00    +0.000 C 
BRANCH  18  19
ATOM     19  C   UNL     1      -1.538  12.325  20.641  0.00  0.00    +0.000 A 
ATOM     20  C   UNL     1      -2.475  12.243  19.601  0.00  0.00    +0.000 A 
ATOM     21  C   UNL     1      -3.837  12.418  19.856  0.00  0.00    +0.000 A 
ATOM     22  C   UNL     1      -4.272  12.651  21.158  0.00  0.00    +0.000 A 
ATOM     23 BR   UNL     1      -6.096  13.021  21.485  0.00  0.00    +0.000 Br
ATOM     24  C   UNL     1      -3.364  12.656  22.214  0.00  0.00    +0.000 A 
ATOM     25  C   UNL     1      -2.000  12.494  21.957  0.00  0.00    +0.000 A 
ENDBRANCH  18  19
ENDBRANCH   6  18
TORSDOF 3
ENDMDL
