MODEL 1
REMARK VINA RESULT:      -7.4      0.000      0.000
REMARK  Name = 
REMARK  2 active torsions:
REMARK  status: ('A' for Active; 'I' for Inactive)
REMARK    1  A    between atoms: C_3  and  N_4
REMARK    2  A    between atoms: C_14  and  C_15
REMARK                            x       y       z     vdW  Elec       q    Type
REMARK                         _______ _______ _______ _____ _____    ______ ____
ROOT
ATOM      1  O   UNL     1       3.040   5.181  20.037  0.00  0.00    +0.000 OA
ATOM      2  C   UNL     1       2.940   6.220  19.392  0.00  0.00    +0.000 C 
ATOM      3  C   UNL     1       3.679   6.471  18.094  0.00  0.00    +0.000 C 
ATOM      4  C   UNL     1       3.418   7.618  17.448  0.00  0.00    +0.000 C 
ATOM      5  C   UNL     1       2.469   8.650  17.910  0.00  0.00    +0.000 C 
ATOM      6  O   UNL     1       2.266   9.636  17.212  0.00  0.00    +0.000 OA
ATOM      7  C   UNL     1       1.822   8.436  19.220  0.00  0.00    +0.000 A 
ATOM      8  N   UNL     1       1.011   9.433  19.671  0.00  0.00    +0.000 NA
ATOM      9  C   UNL     1       0.418   9.283  20.881  0.00  0.00    +0.000 A 
ATOM     10  C   UNL     1       0.649   8.150  21.661  0.00  0.00    +0.000 A 
ATOM     11  C   UNL     1       1.474   7.137  21.176  0.00  0.00    +0.000 A 
ATOM     12  C   UNL     1       2.070   7.280  19.925  0.00  0.00    +0.000 A 
ENDROOT
BRANCH   9  13
ATOM     13  C   UNL     1      -0.465  10.385  21.317  0.00  0.00    +0.000 A 
ATOM     14  C   UNL     1      -1.015  11.305  20.404  0.00  0.00    +0.000 A 
ATOM     15  C   UNL     1      -1.863  12.333  20.826  0.00  0.00    +0.000 A 
ATOM     16  C   UNL     1      -2.173  12.470  22.175  0.00  0.00    +0.000 A 
ATOM     17  C   UNL     1      -1.630  11.586  23.102  0.00  0.00    +0.000 A 
ATOM     18  C   UNL     1      -0.786  10.558  22.675  0.00  0.00    +0.000 A 
ENDBRANCH   9  13
BRANCH   3  19
ATOM     19  N   UNL     1       4.574   5.504  17.623  0.00  0.00    +0.000 N 
ATOM     20  C   UNL     1       5.964   5.344  18.045  0.00  0.00    +0.000 C 
ATOM     21  C   UNL     1       6.624   4.705  16.835  0.00  0.00    +0.000 C 
ATOM     22  C   UNL     1       5.557   3.757  16.320  0.00  0.00    +0.000 C 
ATOM     23  C   UNL     1       4.229   4.428  16.679  0.00  0.00    +0.000 C 
ENDBRANCH   3  19
TORSDOF 2
ENDMDL
MODEL 2
REMARK VINA RESULT:      -7.4      0.888      1.388
REMARK  Name = 
REMARK  2 active torsions:
REMARK  status: ('A' for Active; 'I' for Inactive)
REMARK    1  A    between atoms: C_3  and  N_4
REMARK    2  A    between atoms: C_14  and  C_15
REMARK                            x       y       z     vdW  Elec       q    Type
REMARK                         _______ _______ _______ _____ _____    ______ ____
ROOT
ATOM      1  O   UNL     1       2.224   5.643  20.550  0.00  0.00    +0.000 OA
ATOM      2  C   UNL     1       2.246   6.636  19.830  0.00  0.00    +0.000 C 
ATOM      3  C   UNL     1       3.004   6.699  18.520  0.00  0.00    +0.000 C 
ATOM      4  C   UNL     1       2.880   7.818  17.789  0.00  0.00    +0.000 C 
ATOM      5  C   UNL     1       2.065   8.988  18.169  0.00  0.00    +0.000 C 
ATOM      6  O   UNL     1       1.979   9.937  17.400  0.00  0.00    +0.000 OA
ATOM      7  C   UNL     1       1.404   8.952  19.489  0.00  0.00    +0.000 A 
ATOM      8  N   UNL     1       0.722  10.070  19.862  0.00  0.00    +0.000 NA
ATOM      9  C   UNL     1       0.120  10.084  21.077  0.00  0.00    +0.000 A 
ATOM     10  C   UNL     1       0.217   8.992  21.939  0.00  0.00    +0.000 A 
ATOM     11  C   UNL     1       0.912   7.853  21.535  0.00  0.00    +0.000 A 
ATOM     12  C   UNL     1       1.514   7.829  20.279  0.00  0.00    +0.000 A 
ENDROOT
BRANCH   9  13
ATOM     13  C   UNL     1      -0.620  11.313  21.426  0.00  0.00    +0.000 A 
ATOM     14  C   UNL     1      -0.954  11.631  22.756  0.00  0.00    +0.000 A 
ATOM     15  C   UNL     1      -1.640  12.807  23.076  0.00  0.00    +0.000 A 
ATOM     16  C   UNL     1      -2.016  13.689  22.068  0.00  0.00    +0.000 A 
ATOM     17  C   UNL     1      -1.715  13.392  20.742  0.00  0.00    +0.000 A 
ATOM     18  C   UNL     1      -1.026  12.218  20.428  0.00  0.00    +0.000 A 
ENDBRANCH   9  13
BRANCH   3  19
ATOM     19  N   UNL     1       3.774   5.598  18.125  0.00  0.00    +0.000 N 
ATOM     20  C   UNL     1       5.201   5.415  18.381  0.00  0.00    +0.000 C 
ATOM     21  C   UNL     1       5.646   4.520  17.237  0.00  0.00    +0.000 C 
ATOM     22  C   UNL     1       4.471   3.576  17.058  0.00  0.00    +0.000 C 
ATOM     23  C   UNL     1       3.243   4.398  17.457  0.00  0.00    +0.000 C 
ENDBRANCH   3  19
TORSDOF 2
ENDMDL
MODEL 3
REMARK VINA RESULT:      -7.3      0.918      1.296
REMARK  Name = 
REMARK  2 active torsions:
REMARK  status: ('A' for Active; 'I' for Inactive)
REMARK    1  A    between atoms: C_3  and  N_4
REMARK    2  A    between atoms: C_14  and  C_15
REMARK                            x       y       z     vdW  Elec       q    Type
REMARK                         _______ _______ _______ _____ _____    ______ ____
ROOT
ATOM      1  O   UNL     1       2.238   5.685  20.507  0.00  0.00    +0.000 OA
ATOM      2  C   UNL     1       2.224   6.695  19.809  0.00  0.00    +0.000 C 
ATOM      3  C   UNL     1       2.978   6.813  18.501  0.00  0.00    +0.000 C 
ATOM      4  C   UNL     1       2.813   7.943  17.795  0.00  0.00    +0.000 C 
ATOM      5  C   UNL     1       1.957   9.074  18.201  0.00  0.00    +0.000 C 
ATOM      6  O   UNL     1       1.837  10.037  17.453  0.00  0.00    +0.000 OA
ATOM      7  C   UNL     1       1.299   8.986  19.520  0.00  0.00    +0.000 A 
ATOM      8  N   UNL     1       0.578  10.070  19.917  0.00  0.00    +0.000 NA
ATOM      9  C   UNL     1      -0.022  10.035  21.133  0.00  0.00    +0.000 A 
ATOM     10  C   UNL     1       0.114   8.930  21.971  0.00  0.00    +0.000 A 
ATOM     11  C   UNL     1       0.849   7.825  21.541  0.00  0.00    +0.000 A 
ATOM     12  C   UNL     1       1.450   7.851  20.285  0.00  0.00    +0.000 A 
ENDROOT
BRANCH   9  13
ATOM     13  C   UNL     1      -0.806  11.230  21.509  0.00  0.00    +0.000 A 
ATOM     14  C   UNL     1      -1.162  12.215  20.569  0.00  0.00    +0.000 A 
ATOM     15  C   UNL     1      -1.918  13.333  20.933  0.00  0.00    +0.000 A 
ATOM     16  C   UNL     1      -2.330  13.495  22.252  0.00  0.00    +0.000 A 
ATOM     17  C   UNL     1      -1.979  12.546  23.207  0.00  0.00    +0.000 A 
ATOM     18  C   UNL     1      -1.225  11.429  22.837  0.00  0.00    +0.000 A 
ENDBRANCH   9  13
BRANCH   3  19
ATOM     19  N   UNL     1       3.786   5.750  18.081  0.00  0.00    +0.000 N 
ATOM     20  C   UNL     1       3.315   4.496  17.496  0.00  0.00    +0.000 C 
ATOM     21  C   UNL     1       4.409   3.509  17.864  0.00  0.00    +0.000 C 
ATOM     22  C   UNL     1       5.677   4.332  17.729  0.00  0.00    +0.000 C 
ATOM     23  C   UNL     1       5.258   5.760  18.084  0.00  0.00    +0.000 C 
ENDBRANCH   3  19
TORSDOF 2
ENDMDL
MODEL 4
REMARK VINA RESULT:      -7.3      1.329      2.776
REMARK  Name = 
REMARK  2 active torsions:
REMARK  status: ('A' for Active; 'I' for Inactive)
REMARK    1  A    between atoms: C_3  and  N_4
REMARK    2  A    between atoms: C_14  and  C_15
REMARK                            x       y       z     vdW  Elec       q    Type
REMARK                         _______ _______ _______ _____ _____    ______ ____
ROOT
ATOM      1  O   UNL     1       4.310   7.613  16.126  0.00  0.00    +0.000 OA
ATOM      2  C   UNL     1       3.965   6.999  17.131  0.00  0.00    +0.000 C 
ATOM      3  C   UNL     1       4.414   5.586  17.440  0.00  0.00    +0.000 C 
ATOM      4  C   UNL     1       4.029   5.060  18.613  0.00  0.00    +0.000 C 
ATOM      5  C   UNL     1       3.202   5.754  19.619  0.00  0.00    +0.000 C 
ATOM      6  O   UNL     1       2.955   5.198  20.682  0.00  0.00    +0.000 OA
ATOM      7  C   UNL     1       2.696   7.096  19.269  0.00  0.00    +0.000 A 
ATOM      8  N   UNL     1       1.868   7.692  20.171  0.00  0.00    +0.000 NA
ATOM      9  C   UNL     1       1.365   8.915  19.874  0.00  0.00    +0.000 A 
ATOM     10  C   UNL     1       1.662   9.541  18.665  0.00  0.00    +0.000 A 
ATOM     11  C   UNL     1       2.520   8.919  17.759  0.00  0.00    +0.000 A 
ATOM     12  C   UNL     1       3.054   7.670  18.070  0.00  0.00    +0.000 A 
ENDROOT
BRANCH   9  13
ATOM     13  C   UNL     1       0.486   9.524  20.893  0.00  0.00    +0.000 A 
ATOM     14  C   UNL     1       0.383   9.004  22.197  0.00  0.00    +0.000 A 
ATOM     15  C   UNL     1      -0.440   9.599  23.158  0.00  0.00    +0.000 A 
ATOM     16  C   UNL     1      -1.186  10.727  22.834  0.00  0.00    +0.000 A 
ATOM     17  C   UNL     1      -1.117  11.254  21.547  0.00  0.00    +0.000 A 
ATOM     18  C   UNL     1      -0.292  10.657  20.591  0.00  0.00    +0.000 A 
ENDBRANCH   9  13
BRANCH   3  19
ATOM     19  N   UNL     1       5.213   4.907  16.512  0.00  0.00    +0.000 N 
ATOM     20  C   UNL     1       6.665   4.762  16.577  0.00  0.00    +0.000 C 
ATOM     21  C   UNL     1       7.064   4.601  15.120  0.00  0.00    +0.000 C 
ATOM     22  C   UNL     1       5.938   3.760  14.545  0.00  0.00    +0.000 C 
ATOM     23  C   UNL     1       4.702   4.151  15.357  0.00  0.00    +0.000 C 
ENDBRANCH   3  19
TORSDOF 2
ENDMDL
MODEL 5
REMARK VINA RESULT:      -7.2      1.681      7.848
REMARK  Name = 
REMARK  2 active torsions:
REMARK  status: ('A' for Active; 'I' for Inactive)
REMARK    1  A    between atoms: C_3  and  N_4
REMARK    2  A    between atoms: C_14  and  C_15
REMARK                            x       y       z     vdW  Elec       q    Type
REMARK                         _______ _______ _______ _____ _____    ______ ____
ROOT
ATOM      1  O   UNL     1       0.103   8.751  22.071  0.00  0.00    +0.000 OA
ATOM      2  C   UNL     1       0.460   9.179  20.978  0.00  0.00    +0.000 C 
ATOM      3  C   UNL     1       0.058  10.538  20.443  0.00  0.00    +0.000 C 
ATOM      4  C   UNL     1       0.585  10.917  19.268  0.00  0.00    +0.000 C 
ATOM      5  C   UNL     1       1.519  10.110  18.462  0.00  0.00    +0.000 C 
ATOM      6  O   UNL     1       1.982  10.577  17.428  0.00  0.00    +0.000 OA
ATOM      7  C   UNL     1       1.833   8.751  18.948  0.00  0.00    +0.000 A 
ATOM      8  N   UNL     1       2.633   7.987  18.154  0.00  0.00    +0.000 NA
ATOM      9  C   UNL     1       2.924   6.725  18.556  0.00  0.00    +0.000 A 
ATOM     10  C   UNL     1       2.399   6.208  19.740  0.00  0.00    +0.000 A 
ATOM     11  C   UNL     1       1.591   7.010  20.544  0.00  0.00    +0.000 A 
ATOM     12  C   UNL     1       1.306   8.314  20.142  0.00  0.00    +0.000 A 
ENDROOT
BRANCH   9  13
ATOM     13  C   UNL     1       3.808   5.944  17.667  0.00  0.00    +0.000 A 
ATOM     14  C   UNL     1       3.777   4.537  17.632  0.00  0.00    +0.000 A 
ATOM     15  C   UNL     1       4.607   3.809  16.774  0.00  0.00    +0.000 A 
ATOM     16  C   UNL     1       5.495   4.474  15.935  0.00  0.00    +0.000 A 
ATOM     17  C   UNL     1       5.560   5.864  15.960  0.00  0.00    +0.000 A 
ATOM     18  C   UNL     1       4.727   6.587  16.817  0.00  0.00    +0.000 A 
ENDBRANCH   9  13
BRANCH   3  19
ATOM     19  N   UNL     1      -0.815  11.334  21.194  0.00  0.00    +0.000 N 
ATOM     20  C   UNL     1      -0.712  11.602  22.626  0.00  0.00    +0.000 C 
ATOM     21  C   UNL     1      -2.150  11.877  23.032  0.00  0.00    +0.000 C 
ATOM     22  C   UNL     1      -2.702  12.647  21.846  0.00  0.00    +0.000 C 
ATOM     23  C   UNL     1      -1.938  12.105  20.636  0.00  0.00    +0.000 C 
ENDBRANCH   3  19
TORSDOF 2
ENDMDL
MODEL 6
REMARK VINA RESULT:      -7.2      1.675      7.814
REMARK  Name = 
REMARK  2 active torsions:
REMARK  status: ('A' for Active; 'I' for Inactive)
REMARK    1  A    between atoms: C_3  and  N_4
REMARK    2  A    between atoms: C_14  and  C_15
REMARK                            x       y       z     vdW  Elec       q    Type
REMARK                         _______ _______ _______ _____ _____    ______ ____
ROOT
ATOM      1  O   UNL     1       0.137   8.770  22.112  0.00  0.00    +0.000 OA
ATOM      2  C   UNL     1       0.474   9.184  21.007  0.00  0.00    +0.000 C 
ATOM      3  C   UNL     1       0.055  10.532  20.460  0.00  0.00    +0.000 C 
ATOM      4  C   UNL     1       0.560  10.898  19.270  0.00  0.00    +0.000 C 
ATOM      5  C   UNL     1       1.486  10.084  18.460  0.00  0.00    +0.000 C 
ATOM      6  O   UNL     1       1.928  10.540  17.413  0.00  0.00    +0.000 OA
ATOM      7  C   UNL     1       1.816   8.735  18.961  0.00  0.00    +0.000 A 
ATOM      8  N   UNL     1       2.607   7.964  18.165  0.00  0.00    +0.000 NA
ATOM      9  C   UNL     1       2.912   6.709  18.580  0.00  0.00    +0.000 A 
ATOM     10  C   UNL     1       2.411   6.207  19.780  0.00  0.00    +0.000 A 
ATOM     11  C   UNL     1       1.611   7.016  20.585  0.00  0.00    +0.000 A 
ATOM     12  C   UNL     1       1.311   8.312  20.170  0.00  0.00    +0.000 A 
ENDROOT
BRANCH   9  13
ATOM     13  C   UNL     1       3.786   5.921  17.688  0.00  0.00    +0.000 A 
ATOM     14  C   UNL     1       4.718   6.531  16.827  0.00  0.00    +0.000 A 
ATOM     15  C   UNL     1       5.552   5.773  15.999  0.00  0.00    +0.000 A 
ATOM     16  C   UNL     1       5.467   4.385  16.008  0.00  0.00    +0.000 A 
ATOM     17  C   UNL     1       4.544   3.755  16.837  0.00  0.00    +0.000 A 
ATOM     18  C   UNL     1       3.714   4.516  17.664  0.00  0.00    +0.000 A 
ENDBRANCH   9  13
BRANCH   3  19
ATOM     19  N   UNL     1      -0.810  11.334  21.213  0.00  0.00    +0.000 N 
ATOM     20  C   UNL     1      -0.711  11.587  22.649  0.00  0.00    +0.000 C 
ATOM     21  C   UNL     1      -2.147  11.880  23.049  0.00  0.00    +0.000 C 
ATOM     22  C   UNL     1      -2.682  12.669  21.868  0.00  0.00    +0.000 C 
ATOM     23  C   UNL     1      -1.919  12.127  20.657  0.00  0.00    +0.000 C 
ENDBRANCH   3  19
TORSDOF 2
ENDMDL
MODEL 7
REMARK VINA RESULT:      -7.2      1.315      2.582
REMARK  Name = 
REMARK  2 active torsions:
REMARK  status: ('A' for Active; 'I' for Inactive)
REMARK    1  A    between atoms: C_3  and  N_4
REMARK    2  A    between atoms: C_14  and  C_15
REMARK                            x       y       z     vdW  Elec       q    Type
REMARK                         _______ _______ _______ _____ _____    ______ ____
ROOT
ATOM      1  O   UNL     1       4.294   7.607  16.212  0.00  0.00    +0.000 OA
ATOM      2  C   UNL     1       3.932   6.995  17.212  0.00  0.00    +0.000 C 
ATOM      3  C   UNL     1       4.356   5.573  17.517  0.00  0.00    +0.000 C 
ATOM      4  C   UNL     1       3.954   5.048  18.685  0.00  0.00    +0.000 C 
ATOM      5  C   UNL     1       3.132   5.751  19.688  0.00  0.00    +0.000 C 
ATOM      6  O   UNL     1       2.868   5.194  20.748  0.00  0.00    +0.000 OA
ATOM      7  C   UNL     1       2.650   7.103  19.341  0.00  0.00    +0.000 A 
ATOM      8  N   UNL     1       1.826   7.708  20.240  0.00  0.00    +0.000 NA
ATOM      9  C   UNL     1       1.344   8.941  19.946  0.00  0.00    +0.000 A 
ATOM     10  C   UNL     1       1.661   9.567  18.741  0.00  0.00    +0.000 A 
ATOM     11  C   UNL     1       2.514   8.935  17.838  0.00  0.00    +0.000 A 
ATOM     12  C   UNL     1       3.026   7.677  18.147  0.00  0.00    +0.000 A 
ENDROOT
BRANCH   9  13
ATOM     13  C   UNL     1       0.468   9.560  20.962  0.00  0.00    +0.000 A 
ATOM     14  C   UNL     1      -0.340  10.674  20.670  0.00  0.00    +0.000 A 
ATOM     15  C   UNL     1      -1.178  11.241  21.636  0.00  0.00    +0.000 A 
ATOM     16  C   UNL     1      -1.220  10.709  22.920  0.00  0.00    +0.000 A 
ATOM     17  C   UNL     1      -0.419   9.617  23.242  0.00  0.00    +0.000 A 
ATOM     18  C   UNL     1       0.415   9.053  22.273  0.00  0.00    +0.000 A 
ENDBRANCH   9  13
BRANCH   3  19
ATOM     19  N   UNL     1       5.150   4.886  16.591  0.00  0.00    +0.000 N 
ATOM     20  C   UNL     1       6.590   4.659  16.699  0.00  0.00    +0.000 C 
ATOM     21  C   UNL     1       7.030   4.529  15.251  0.00  0.00    +0.000 C 
ATOM     22  C   UNL     1       5.882   3.771  14.608  0.00  0.00    +0.000 C 
ATOM     23  C   UNL     1       4.640   4.200  15.392  0.00  0.00    +0.000 C 
ENDBRANCH   3  19
TORSDOF 2
ENDMDL
MODEL 8
REMARK VINA RESULT:      -7.2      2.740      7.449
REMARK  Name = 
REMARK  2 active torsions:
REMARK  status: ('A' for Active; 'I' for Inactive)
REMARK    1  A    between atoms: C_3  and  N_4
REMARK    2  A    between atoms: C_14  and  C_15
REMARK                            x       y       z     vdW  Elec       q    Type
REMARK                         _______ _______ _______ _____ _____    ______ ____
ROOT
ATOM      1  O   UNL     1       1.940  10.757  17.403  0.00  0.00    +0.000 OA
ATOM      2  C   UNL     1       1.633  10.396  18.535  0.00  0.00    +0.000 C 
ATOM      3  C   UNL     1       1.038  11.325  19.574  0.00  0.00    +0.000 C 
ATOM      4  C   UNL     1       0.672  10.784  20.746  0.00  0.00    +0.000 C 
ATOM      5  C   UNL     1       0.808   9.358  21.097  0.00  0.00    +0.000 C 
ATOM      6  O   UNL     1       0.390   8.961  22.178  0.00  0.00    +0.000 OA
ATOM      7  C   UNL     1       1.471   8.479  20.113  0.00  0.00    +0.000 A 
ATOM      8  N   UNL     1       1.663   7.183  20.482  0.00  0.00    +0.000 NA
ATOM      9  C   UNL     1       2.290   6.351  19.613  0.00  0.00    +0.000 A 
ATOM     10  C   UNL     1       2.752   6.813  18.382  0.00  0.00    +0.000 A 
ATOM     11  C   UNL     1       2.536   8.141  18.018  0.00  0.00    +0.000 A 
ATOM     12  C   UNL     1       1.876   8.993  18.901  0.00  0.00    +0.000 A 
ENDROOT
BRANCH   9  13
ATOM     13  C   UNL     1       2.459   4.952  20.055  0.00  0.00    +0.000 A 
ATOM     14  C   UNL     1       3.569   4.176  19.670  0.00  0.00    +0.000 A 
ATOM     15  C   UNL     1       3.726   2.858  20.109  0.00  0.00    +0.000 A 
ATOM     16  C   UNL     1       2.770   2.282  20.938  0.00  0.00    +0.000 A 
ATOM     17  C   UNL     1       1.654   3.019  21.322  0.00  0.00    +0.000 A 
ATOM     18  C   UNL     1       1.502   4.336  20.883  0.00  0.00    +0.000 A 
ENDBRANCH   9  13
BRANCH   3  19
ATOM     19  N   UNL     1       0.881  12.681  19.264  0.00  0.00    +0.000 N 
ATOM     20  C   UNL     1       1.901  13.717  19.415  0.00  0.00    +0.000 C 
ATOM     21  C   UNL     1       1.084  14.981  19.619  0.00  0.00    +0.000 C 
ATOM     22  C   UNL     1      -0.098  14.783  18.686  0.00  0.00    +0.000 C 
ATOM     23  C   UNL     1      -0.320  13.270  18.651  0.00  0.00    +0.000 C 
ENDBRANCH   3  19
TORSDOF 2
ENDMDL
MODEL 9
REMARK VINA RESULT:      -7.2      2.648      8.789
REMARK  Name = 
REMARK  2 active torsions:
REMARK  status: ('A' for Active; 'I' for Inactive)
REMARK    1  A    between atoms: C_3  and  N_4
REMARK    2  A    between atoms: C_14  and  C_15
REMARK                            x       y       z     vdW  Elec       q    Type
REMARK                         _______ _______ _______ _____ _____    ______ ____
ROOT
ATOM      1  O   UNL     1      -2.417  12.606  19.927  0.00  0.00    +0.000 OA
ATOM      2  C   UNL     1      -1.752  11.999  20.760  0.00  0.00    +0.000 C 
ATOM      3  C   UNL     1      -1.877  12.226  22.253  0.00  0.00    +0.000 C 
ATOM      4  C   UNL     1      -1.149  11.438  23.059  0.00  0.00    +0.000 C 
ATOM      5  C   UNL     1      -0.237  10.373  22.600  0.00  0.00    +0.000 C 
ATOM      6  O   UNL     1       0.339   9.676  23.426  0.00  0.00    +0.000 OA
ATOM      7  C   UNL     1      -0.054  10.220  21.142  0.00  0.00    +0.000 A 
ATOM      8  N   UNL     1       0.851   9.289  20.734  0.00  0.00    +0.000 NA
ATOM      9  C   UNL     1       1.063   9.136  19.403  0.00  0.00    +0.000 A 
ATOM     10  C   UNL     1       0.393   9.929  18.473  0.00  0.00    +0.000 A 
ATOM     11  C   UNL     1      -0.537  10.870  18.911  0.00  0.00    +0.000 A 
ATOM     12  C   UNL     1      -0.771  11.016  20.277  0.00  0.00    +0.000 A 
ENDROOT
BRANCH   9  13
ATOM     13  C   UNL     1       2.042   8.101  19.013  0.00  0.00    +0.000 A 
ATOM     14  C   UNL     1       2.799   8.199  17.830  0.00  0.00    +0.000 A 
ATOM     15  C   UNL     1       3.735   7.221  17.479  0.00  0.00    +0.000 A 
ATOM     16  C   UNL     1       3.929   6.117  18.302  0.00  0.00    +0.000 A 
ATOM     17  C   UNL     1       3.183   5.985  19.469  0.00  0.00    +0.000 A 
ATOM     18  C   UNL     1       2.251   6.966  19.817  0.00  0.00    +0.000 A 
ENDBRANCH   9  13
BRANCH   3  19
ATOM     19  N   UNL     1      -2.747  13.219  22.720  0.00  0.00    +0.000 N 
ATOM     20  C   UNL     1      -2.412  14.628  22.915  0.00  0.00    +0.000 C 
ATOM     21  C   UNL     1      -3.373  15.065  24.007  0.00  0.00    +0.000 C 
ATOM     22  C   UNL     1      -4.648  14.315  23.666  0.00  0.00    +0.000 C 
ATOM     23  C   UNL     1      -4.176  13.016  23.010  0.00  0.00    +0.000 C 
ENDBRANCH   3  19
TORSDOF 2
ENDMDL
