MODEL 1
REMARK VINA RESULT:      -8.6      0.000      0.000
REMARK  Name = 
REMARK  4 active torsions:
REMARK  status: ('A' for Active; 'I' for Inactive)
REMARK    1  A    between atoms: C_1  and  C_2
REMARK    2  A    between atoms: C_5  and  N_6
REMARK    3  A    between atoms: N_6  and  C_14
REMARK    4  A    between atoms: C_7  and  C_9
REMARK                            x       y       z     vdW  Elec       q    Type
REMARK                         _______ _______ _______ _____ _____    ______ ____
ROOT
ATOM      1  N   UNL     1       3.516   6.090  18.050  0.00  0.00    +0.000 N 
ATOM      2  C   UNL     1       3.181   4.720  18.053  0.00  0.00    +0.000 C 
ATOM      3  O   UNL     1       4.007   3.880  17.679  0.00  0.00    +0.000 OA
ENDROOT
BRANCH   1   8
ATOM      4  C   UNL     1       0.845  10.928  19.721  0.00  0.00    +0.000 C 
ATOM      5  C   UNL     1       1.379   9.593  19.266  0.00  0.00    +0.000 A 
ATOM      6  C   UNL     1       1.730   9.396  17.922  0.00  0.00    +0.000 A 
ATOM      7  C   UNL     1       2.353   8.205  17.492  0.00  0.00    +0.000 A 
ATOM      8  C   UNL     1       2.639   7.175  18.397  0.00  0.00    +0.000 A 
ATOM      9  C   UNL     1       2.188   7.334  19.717  0.00  0.00    +0.000 A 
ATOM     10  C   UNL     1       1.603   8.535  20.155  0.00  0.00    +0.000 A 
ATOM     11 CL   UNL     1       1.245   8.688  21.840  0.00  0.00    +0.000 Cl
ENDBRANCH   1   8
BRANCH   1  12
ATOM     12  C   UNL     1       4.913   6.385  17.608  0.00  0.00    +0.000 C 
ATOM     13  C   UNL     1       5.986   5.704  18.416  0.00  0.00    +0.000 C 
ATOM     14  C   UNL     1       6.921   5.035  17.723  0.00  0.00    +0.000 C 
ATOM     15  S   UNL     1       6.639   5.130  16.026  0.00  0.00    +0.000 S 
ATOM     16  O   UNL     1       7.694   5.909  15.412  0.00  0.00    +0.000 OA
ATOM     17  O   UNL     1       6.275   3.818  15.532  0.00  0.00    +0.000 OA
ATOM     18  C   UNL     1       5.159   6.127  16.118  0.00  0.00    +0.000 C 
ENDBRANCH   1  12
BRANCH   2  19
ATOM     19  C   UNL     1       1.812   4.245  18.609  0.00  0.00    +0.000 C 
ATOM     20  C   UNL     1       1.928   3.738  20.051  0.00  0.00    +0.000 C 
ATOM     21  C   UNL     1       0.716   2.851  20.165  0.00  0.00    +0.000 C 
ATOM     22  C   UNL     1       0.723   2.181  18.809  0.00  0.00    +0.000 C 
ATOM     23  O   UNL     1       1.252   3.142  17.874  0.00  0.00    +0.000 OA
ENDBRANCH   2  19
TORSDOF 3
ENDMDL
MODEL 2
REMARK VINA RESULT:      -8.2      1.976      4.373
REMARK  Name = 
REMARK  4 active torsions:
REMARK  status: ('A' for Active; 'I' for Inactive)
REMARK    1  A    between atoms: C_1  and  C_2
REMARK    2  A    between atoms: C_5  and  N_6
REMARK    3  A    between atoms: N_6  and  C_14
REMARK    4  A    between atoms: C_7  and  C_9
REMARK                            x       y       z     vdW  Elec       q    Type
REMARK                         _______ _______ _______ _____ _____    ______ ____
ROOT
ATOM      1  N   UNL     1       4.088   6.436  17.766  0.00  0.00    +0.000 N 
ATOM      2  C   UNL     1       3.535   7.728  17.879  0.00  0.00    +0.000 C 
ATOM      3  O   UNL     1       4.190   8.715  17.524  0.00  0.00    +0.000 OA
ENDROOT
BRANCH   1   8
ATOM      4  C   UNL     1       0.756   2.078  19.567  0.00  0.00    +0.000 C 
ATOM      5  C   UNL     1       1.765   3.103  19.115  0.00  0.00    +0.000 A 
ATOM      6  C   UNL     1       1.988   3.316  17.746  0.00  0.00    +0.000 A 
ATOM      7  C   UNL     1       2.827   4.357  17.291  0.00  0.00    +0.000 A 
ATOM      8  C   UNL     1       3.469   5.211  18.196  0.00  0.00    +0.000 A 
ATOM      9  C   UNL     1       3.327   4.926  19.563  0.00  0.00    +0.000 A 
ATOM     10  C   UNL     1       2.462   3.916  20.017  0.00  0.00    +0.000 A 
ATOM     11 CL   UNL     1       2.228   3.765  21.725  0.00  0.00    +0.000 Cl
ENDBRANCH   1   8
BRANCH   1  12
ATOM     12  C   UNL     1       5.457   6.397  17.166  0.00  0.00    +0.000 C 
ATOM     13  C   UNL     1       6.444   5.531  17.905  0.00  0.00    +0.000 C 
ATOM     14  C   UNL     1       7.129   4.644  17.166  0.00  0.00    +0.000 C 
ATOM     15  S   UNL     1       6.684   4.727  15.503  0.00  0.00    +0.000 S 
ATOM     16  O   UNL     1       7.806   5.228  14.736  0.00  0.00    +0.000 OA
ATOM     17  O   UNL     1       5.993   3.508  15.137  0.00  0.00    +0.000 OA
ATOM     18  C   UNL     1       5.473   6.028  15.679  0.00  0.00    +0.000 C 
ENDBRANCH   1  12
BRANCH   2  19
ATOM     19  C   UNL     1       2.073   7.920  18.362  0.00  0.00    +0.000 C 
ATOM     20  C   UNL     1       1.473   9.234  17.852  0.00  0.00    +0.000 C 
ATOM     21  C   UNL     1       0.367   9.475  18.846  0.00  0.00    +0.000 C 
ATOM     22  C   UNL     1       1.041   9.055  20.133  0.00  0.00    +0.000 C 
ATOM     23  O   UNL     1       1.954   7.991  19.794  0.00  0.00    +0.000 OA
ENDBRANCH   2  19
TORSDOF 3
ENDMDL
MODEL 3
REMARK VINA RESULT:      -7.9      1.079      1.477
REMARK  Name = 
REMARK  4 active torsions:
REMARK  status: ('A' for Active; 'I' for Inactive)
REMARK    1  A    between atoms: C_1  and  C_2
REMARK    2  A    between atoms: C_5  and  N_6
REMARK    3  A    between atoms: N_6  and  C_14
REMARK    4  A    between atoms: C_7  and  C_9
REMARK                            x       y       z     vdW  Elec       q    Type
REMARK                         _______ _______ _______ _____ _____    ______ ____
ROOT
ATOM      1  N   UNL     1       3.640   5.993  18.166  0.00  0.00    +0.000 N 
ATOM      2  C   UNL     1       3.149   4.695  17.914  0.00  0.00    +0.000 C 
ATOM      3  O   UNL     1       3.824   3.893  17.259  0.00  0.00    +0.000 OA
ENDROOT
BRANCH   1   8
ATOM      4  C   UNL     1      -0.015   9.726  20.622  0.00  0.00    +0.000 C 
ATOM      5  C   UNL     1       1.070   8.867  20.025  0.00  0.00    +0.000 A 
ATOM      6  C   UNL     1       1.616   7.807  20.765  0.00  0.00    +0.000 A 
ATOM      7  C   UNL     1       2.536   6.905  20.188  0.00  0.00    +0.000 A 
ATOM      8  C   UNL     1       2.939   7.043  18.854  0.00  0.00    +0.000 A 
ATOM      9  C   UNL     1       2.472   8.167  18.153  0.00  0.00    +0.000 A 
ATOM     10  C   UNL     1       1.526   9.042  18.713  0.00  0.00    +0.000 A 
ATOM     11 CL   UNL     1       0.888  10.291  17.701  0.00  0.00    +0.000 Cl
ENDBRANCH   1   8
BRANCH   1  12
ATOM     12  C   UNL     1       5.006   6.255  17.619  0.00  0.00    +0.000 C 
ATOM     13  C   UNL     1       6.118   5.521  18.322  0.00  0.00    +0.000 C 
ATOM     14  C   UNL     1       6.971   4.840  17.540  0.00  0.00    +0.000 C 
ATOM     15  S   UNL     1       6.556   4.987  15.874  0.00  0.00    +0.000 S 
ATOM     16  O   UNL     1       7.585   5.748  15.194  0.00  0.00    +0.000 OA
ATOM     17  O   UNL     1       6.110   3.700  15.382  0.00  0.00    +0.000 OA
ATOM     18  C   UNL     1       5.124   6.027  16.109  0.00  0.00    +0.000 C 
ENDBRANCH   1  12
BRANCH   2  19
ATOM     19  C   UNL     1       1.801   4.231  18.528  0.00  0.00    +0.000 C 
ATOM     20  C   UNL     1       1.983   3.676  19.945  0.00  0.00    +0.000 C 
ATOM     21  C   UNL     1       0.760   2.810  20.098  0.00  0.00    +0.000 C 
ATOM     22  C   UNL     1       0.681   2.182  18.724  0.00  0.00    +0.000 C 
ATOM     23  O   UNL     1       1.180   3.162  17.791  0.00  0.00    +0.000 OA
ENDBRANCH   2  19
TORSDOF 3
ENDMDL
MODEL 4
REMARK VINA RESULT:      -7.8      2.563      4.875
REMARK  Name = 
REMARK  4 active torsions:
REMARK  status: ('A' for Active; 'I' for Inactive)
REMARK    1  A    between atoms: C_1  and  C_2
REMARK    2  A    between atoms: C_5  and  N_6
REMARK    3  A    between atoms: N_6  and  C_14
REMARK    4  A    between atoms: C_7  and  C_9
REMARK                            x       y       z     vdW  Elec       q    Type
REMARK                         _______ _______ _______ _____ _____    ______ ____
ROOT
ATOM      1  N   UNL     1       2.881   6.735  18.086  0.00  0.00    +0.000 N 
ATOM      2  C   UNL     1       2.437   8.062  17.912  0.00  0.00    +0.000 C 
ATOM      3  O   UNL     1       3.018   8.810  17.118  0.00  0.00    +0.000 OA
ENDROOT
BRANCH   1   8
ATOM      4  C   UNL     1       1.566   2.363  21.620  0.00  0.00    +0.000 C 
ATOM      5  C   UNL     1       1.745   3.567  20.731  0.00  0.00    +0.000 A 
ATOM      6  C   UNL     1       2.388   4.714  21.219  0.00  0.00    +0.000 A 
ATOM      7  C   UNL     1       2.686   5.805  20.374  0.00  0.00    +0.000 A 
ATOM      8  C   UNL     1       2.344   5.779  19.017  0.00  0.00    +0.000 A 
ATOM      9  C   UNL     1       1.606   4.676  18.560  0.00  0.00    +0.000 A 
ATOM     10  C   UNL     1       1.343   3.572  19.389  0.00  0.00    +0.000 A 
ATOM     11 CL   UNL     1       0.580   2.194  18.676  0.00  0.00    +0.000 Cl
ENDBRANCH   1   8
BRANCH   1  12
ATOM     12  C   UNL     1       4.039   6.350  17.222  0.00  0.00    +0.000 C 
ATOM     13  C   UNL     1       5.312   7.106  17.502  0.00  0.00    +0.000 C 
ATOM     14  C   UNL     1       6.419   6.367  17.676  0.00  0.00    +0.000 C 
ATOM     15  S   UNL     1       6.083   4.682  17.532  0.00  0.00    +0.000 S 
ATOM     16  O   UNL     1       6.733   4.169  16.343  0.00  0.00    +0.000 OA
ATOM     17  O   UNL     1       6.255   4.054  18.826  0.00  0.00    +0.000 OA
ATOM     18  C   UNL     1       4.334   4.847  17.213  0.00  0.00    +0.000 C 
ENDBRANCH   1  12
BRANCH   2  19
ATOM     19  C   UNL     1       1.166   8.569  18.643  0.00  0.00    +0.000 C 
ATOM     20  C   UNL     1       0.537   9.768  17.925  0.00  0.00    +0.000 C 
ATOM     21  C   UNL     1      -0.256  10.411  19.033  0.00  0.00    +0.000 C 
ATOM     22  C   UNL     1       0.703  10.263  20.193  0.00  0.00    +0.000 C 
ATOM     23  O   UNL     1       1.427   9.035  19.979  0.00  0.00    +0.000 OA
ENDBRANCH   2  19
TORSDOF 3
ENDMDL
MODEL 5
REMARK VINA RESULT:      -7.7      0.960      1.025
REMARK  Name = 
REMARK  4 active torsions:
REMARK  status: ('A' for Active; 'I' for Inactive)
REMARK    1  A    between atoms: C_1  and  C_2
REMARK    2  A    between atoms: C_5  and  N_6
REMARK    3  A    between atoms: N_6  and  C_14
REMARK    4  A    between atoms: C_7  and  C_9
REMARK                            x       y       z     vdW  Elec       q    Type
REMARK                         _______ _______ _______ _____ _____    ______ ____
ROOT
ATOM      1  N   UNL     1       3.539   6.158  18.063  0.00  0.00    +0.000 N 
ATOM      2  C   UNL     1       3.561   4.833  18.546  0.00  0.00    +0.000 C 
ATOM      3  O   UNL     1       4.392   4.029  18.109  0.00  0.00    +0.000 OA
ENDROOT
BRANCH   1   8
ATOM      4  C   UNL     1       0.564  10.807  19.756  0.00  0.00    +0.000 C 
ATOM      5  C   UNL     1       1.183   9.508  19.308  0.00  0.00    +0.000 A 
ATOM      6  C   UNL     1       1.470   9.296  17.951  0.00  0.00    +0.000 A 
ATOM      7  C   UNL     1       2.168   8.147  17.517  0.00  0.00    +0.000 A 
ATOM      8  C   UNL     1       2.594   7.176  18.432  0.00  0.00    +0.000 A 
ATOM      9  C   UNL     1       2.210   7.342  19.772  0.00  0.00    +0.000 A 
ATOM     10  C   UNL     1       1.550   8.503  20.211  0.00  0.00    +0.000 A 
ATOM     11 CL   UNL     1       1.281   8.682  21.910  0.00  0.00    +0.000 Cl
ENDBRANCH   1   8
BRANCH   1  12
ATOM     12  C   UNL     1       4.599   6.468  17.055  0.00  0.00    +0.000 C 
ATOM     13  C   UNL     1       5.747   7.290  17.581  0.00  0.00    +0.000 C 
ATOM     14  C   UNL     1       6.980   6.822  17.329  0.00  0.00    +0.000 C 
ATOM     15  S   UNL     1       6.927   5.347  16.440  0.00  0.00    +0.000 S 
ATOM     16  O   UNL     1       7.465   5.574  15.114  0.00  0.00    +0.000 OA
ATOM     17  O   UNL     1       7.404   4.270  17.282  0.00  0.00    +0.000 OA
ATOM     18  C   UNL     1       5.148   5.234  16.333  0.00  0.00    +0.000 C 
ENDBRANCH   1  12
BRANCH   2  19
ATOM     19  C   UNL     1       2.607   4.396  19.689  0.00  0.00    +0.000 C 
ATOM     20  C   UNL     1       3.133   3.160  20.428  0.00  0.00    +0.000 C 
ATOM     21  C   UNL     1       1.873   2.607  21.040  0.00  0.00    +0.000 C 
ATOM     22  C   UNL     1       0.889   2.819  19.911  0.00  0.00    +0.000 C 
ATOM     23  O   UNL     1       1.299   4.019  19.224  0.00  0.00    +0.000 OA
ENDBRANCH   2  19
TORSDOF 3
ENDMDL
MODEL 6
REMARK VINA RESULT:      -7.5      2.534      4.783
REMARK  Name = 
REMARK  4 active torsions:
REMARK  status: ('A' for Active; 'I' for Inactive)
REMARK    1  A    between atoms: C_1  and  C_2
REMARK    2  A    between atoms: C_5  and  N_6
REMARK    3  A    between atoms: N_6  and  C_14
REMARK    4  A    between atoms: C_7  and  C_9
REMARK                            x       y       z     vdW  Elec       q    Type
REMARK                         _______ _______ _______ _____ _____    ______ ____
ROOT
ATOM      1  N   UNL     1       3.388   7.014  18.187  0.00  0.00    +0.000 N 
ATOM      2  C   UNL     1       2.824   8.295  18.019  0.00  0.00    +0.000 C 
ATOM      3  O   UNL     1       3.483   9.198  17.491  0.00  0.00    +0.000 OA
ENDROOT
BRANCH   1   8
ATOM      4  C   UNL     1       1.836   2.203  20.975  0.00  0.00    +0.000 C 
ATOM      5  C   UNL     1       2.067   3.480  20.209  0.00  0.00    +0.000 A 
ATOM      6  C   UNL     1       2.170   4.702  20.891  0.00  0.00    +0.000 A 
ATOM      7  C   UNL     1       2.516   5.894  20.217  0.00  0.00    +0.000 A 
ATOM      8  C   UNL     1       2.765   5.895  18.839  0.00  0.00    +0.000 A 
ATOM      9  C   UNL     1       2.556   4.692  18.146  0.00  0.00    +0.000 A 
ATOM     10  C   UNL     1       2.250   3.498  18.821  0.00  0.00    +0.000 A 
ATOM     11 CL   UNL     1       2.186   2.041  17.890  0.00  0.00    +0.000 Cl
ENDBRANCH   1   8
BRANCH   1  12
ATOM     12  C   UNL     1       4.776   6.872  17.648  0.00  0.00    +0.000 C 
ATOM     13  C   UNL     1       5.663   5.939  18.431  0.00  0.00    +0.000 C 
ATOM     14  C   UNL     1       6.313   5.001  17.724  0.00  0.00    +0.000 C 
ATOM     15  S   UNL     1       5.947   5.109  16.043  0.00  0.00    +0.000 S 
ATOM     16  O   UNL     1       7.135   5.522  15.325  0.00  0.00    +0.000 OA
ATOM     17  O   UNL     1       5.185   3.942  15.648  0.00  0.00    +0.000 OA
ATOM     18  C   UNL     1       4.829   6.496  16.164  0.00  0.00    +0.000 C 
ENDBRANCH   1  12
BRANCH   2  19
ATOM     19  C   UNL     1       1.346   8.562  18.411  0.00  0.00    +0.000 C 
ATOM     20  C   UNL     1       0.749   9.729  17.617  0.00  0.00    +0.000 C 
ATOM     21  C   UNL     1      -0.389  10.158  18.506  0.00  0.00    +0.000 C 
ATOM     22  C   UNL     1       0.251  10.031  19.870  0.00  0.00    +0.000 C 
ATOM     23  O   UNL     1       1.183   8.933  19.791  0.00  0.00    +0.000 OA
ENDBRANCH   2  19
TORSDOF 3
ENDMDL
MODEL 7
REMARK VINA RESULT:      -7.4      2.348      5.081
REMARK  Name = 
REMARK  4 active torsions:
REMARK  status: ('A' for Active; 'I' for Inactive)
REMARK    1  A    between atoms: C_1  and  C_2
REMARK    2  A    between atoms: C_5  and  N_6
REMARK    3  A    between atoms: N_6  and  C_14
REMARK    4  A    between atoms: C_7  and  C_9
REMARK                            x       y       z     vdW  Elec       q    Type
REMARK                         _______ _______ _______ _____ _____    ______ ____
ROOT
ATOM      1  N   UNL     1       3.697   5.223  18.201  0.00  0.00    +0.000 N 
ATOM      2  C   UNL     1       5.047   5.193  17.793  0.00  0.00    +0.000 C 
ATOM      3  O   UNL     1       5.494   4.204  17.202  0.00  0.00    +0.000 OA
ENDROOT
BRANCH   1   8
ATOM      4  C   UNL     1       0.286   9.075  20.818  0.00  0.00    +0.000 C 
ATOM      5  C   UNL     1       1.315   8.167  20.195  0.00  0.00    +0.000 A 
ATOM      6  C   UNL     1       1.715   6.997  20.858  0.00  0.00    +0.000 A 
ATOM      7  C   UNL     1       2.576   6.061  20.244  0.00  0.00    +0.000 A 
ATOM      8  C   UNL     1       3.063   6.274  18.949  0.00  0.00    +0.000 A 
ATOM      9  C   UNL     1       2.745   7.496  18.334  0.00  0.00    +0.000 A 
ATOM     10  C   UNL     1       1.858   8.409  18.928  0.00  0.00    +0.000 A 
ATOM     11 CL   UNL     1       1.399   9.800  18.007  0.00  0.00    +0.000 Cl
ENDBRANCH   1   8
BRANCH   1  12
ATOM     12  C   UNL     1       2.908   4.011  17.821  0.00  0.00    +0.000 C 
ATOM     13  C   UNL     1       3.438   2.715  18.380  0.00  0.00    +0.000 C 
ATOM     14  C   UNL     1       2.549   1.929  19.008  0.00  0.00    +0.000 C 
ATOM     15  S   UNL     1       0.976   2.634  19.014  0.00  0.00    +0.000 S 
ATOM     16  O   UNL     1       0.095   1.835  18.187  0.00  0.00    +0.000 OA
ATOM     17  O   UNL     1       0.625   2.996  20.373  0.00  0.00    +0.000 OA
ATOM     18  C   UNL     1       1.412   4.122  18.130  0.00  0.00    +0.000 C 
ENDBRANCH   1  12
BRANCH   2  19
ATOM     19  C   UNL     1       5.959   6.431  18.000  0.00  0.00    +0.000 C 
ATOM     20  C   UNL     1       6.793   6.739  16.752  0.00  0.00    +0.000 C 
ATOM     21  C   UNL     1       7.936   7.532  17.331  0.00  0.00    +0.000 C 
ATOM     22  C   UNL     1       8.196   6.766  18.610  0.00  0.00    +0.000 C 
ATOM     23  O   UNL     1       6.923   6.257  19.054  0.00  0.00    +0.000 OA
ENDBRANCH   2  19
TORSDOF 3
ENDMDL
MODEL 8
REMARK VINA RESULT:      -7.4      2.175      4.911
REMARK  Name = 
REMARK  4 active torsions:
REMARK  status: ('A' for Active; 'I' for Inactive)
REMARK    1  A    between atoms: C_1  and  C_2
REMARK    2  A    between atoms: C_5  and  N_6
REMARK    3  A    between atoms: N_6  and  C_14
REMARK    4  A    between atoms: C_7  and  C_9
REMARK                            x       y       z     vdW  Elec       q    Type
REMARK                         _______ _______ _______ _____ _____    ______ ____
ROOT
ATOM      1  N   UNL     1       3.815   5.110  18.451  0.00  0.00    +0.000 N 
ATOM      2  C   UNL     1       5.223   5.078  18.533  0.00  0.00    +0.000 C 
ATOM      3  O   UNL     1       5.821   3.997  18.498  0.00  0.00    +0.000 OA
ENDROOT
BRANCH   1   8
ATOM      4  C   UNL     1       1.346  10.282  19.149  0.00  0.00    +0.000 C 
ATOM      5  C   UNL     1       1.825   8.869  18.936  0.00  0.00    +0.000 A 
ATOM      6  C   UNL     1       2.322   8.475  17.684  0.00  0.00    +0.000 A 
ATOM      7  C   UNL     1       2.899   7.201  17.489  0.00  0.00    +0.000 A 
ATOM      8  C   UNL     1       2.990   6.283  18.543  0.00  0.00    +0.000 A 
ATOM      9  C   UNL     1       2.394   6.643  19.762  0.00  0.00    +0.000 A 
ATOM     10  C   UNL     1       1.856   7.924  19.969  0.00  0.00    +0.000 A 
ATOM     11 CL   UNL     1       1.307   8.319  21.561  0.00  0.00    +0.000 Cl
ENDBRANCH   1   8
BRANCH   1  12
ATOM     12  C   UNL     1       3.174   3.770  18.284  0.00  0.00    +0.000 C 
ATOM     13  C   UNL     1       3.389   2.822  19.435  0.00  0.00    +0.000 C 
ATOM     14  C   UNL     1       2.292   2.229  19.932  0.00  0.00    +0.000 C 
ATOM     15  S   UNL     1       0.870   2.727  19.095  0.00  0.00    +0.000 S 
ATOM     16  O   UNL     1       0.333   1.600  18.360  0.00  0.00    +0.000 OA
ATOM     17  O   UNL     1       0.046   3.516  19.989  0.00  0.00    +0.000 OA
ATOM     18  C   UNL     1       1.680   3.834  17.952  0.00  0.00    +0.000 C 
ENDBRANCH   1  12
BRANCH   2  19
ATOM     19  C   UNL     1       6.039   6.398  18.579  0.00  0.00    +0.000 C 
ATOM     20  C   UNL     1       6.448   6.862  17.177  0.00  0.00    +0.000 C 
ATOM     21  C   UNL     1       7.631   7.745  17.477  0.00  0.00    +0.000 C 
ATOM     22  C   UNL     1       8.316   6.946  18.563  0.00  0.00    +0.000 C 
ATOM     23  O   UNL     1       7.276   6.275  19.303  0.00  0.00    +0.000 OA
ENDBRANCH   2  19
TORSDOF 3
ENDMDL
MODEL 9
REMARK VINA RESULT:      -7.3      2.328      4.768
REMARK  Name = 
REMARK  4 active torsions:
REMARK  status: ('A' for Active; 'I' for Inactive)
REMARK    1  A    between atoms: C_1  and  C_2
REMARK    2  A    between atoms: C_5  and  N_6
REMARK    3  A    between atoms: N_6  and  C_14
REMARK    4  A    between atoms: C_7  and  C_9
REMARK                            x       y       z     vdW  Elec       q    Type
REMARK                         _______ _______ _______ _____ _____    ______ ____
ROOT
ATOM      1  N   UNL     1       2.555   5.783  19.230  0.00  0.00    +0.000 N 
ATOM      2  C   UNL     1       3.801   5.278  18.806  0.00  0.00    +0.000 C 
ATOM      3  O   UNL     1       4.134   4.124  19.098  0.00  0.00    +0.000 OA
ENDROOT
BRANCH   1   8
ATOM      4  C   UNL     1       1.532  11.437  18.668  0.00  0.00    +0.000 C 
ATOM      5  C   UNL     1       1.623   9.937  18.785  0.00  0.00    +0.000 A 
ATOM      6  C   UNL     1       2.018   9.167  17.681  0.00  0.00    +0.000 A 
ATOM      7  C   UNL     1       2.240   7.778  17.794  0.00  0.00    +0.000 A 
ATOM      8  C   UNL     1       2.068   7.119  19.018  0.00  0.00    +0.000 A 
ATOM      9  C   UNL     1       1.570   7.875  20.091  0.00  0.00    +0.000 A 
ATOM     10  C   UNL     1       1.387   9.265  19.990  0.00  0.00    +0.000 A 
ATOM     11 CL   UNL     1       0.937  10.124  21.423  0.00  0.00    +0.000 Cl
ENDBRANCH   1   8
BRANCH   1  12
ATOM     12  C   UNL     1       1.717   4.807  19.991  0.00  0.00    +0.000 C 
ATOM     13  C   UNL     1       1.377   3.548  19.237  0.00  0.00    +0.000 C 
ATOM     14  C   UNL     1       1.615   2.389  19.873  0.00  0.00    +0.000 C 
ATOM     15  S   UNL     1       2.276   2.653  21.442  0.00  0.00    +0.000 S 
ATOM     16  O   UNL     1       1.314   2.232  22.439  0.00  0.00    +0.000 OA
ATOM     17  O   UNL     1       3.648   2.187  21.462  0.00  0.00    +0.000 OA
ATOM     18  C   UNL     1       2.289   4.437  21.363  0.00  0.00    +0.000 C 
ENDBRANCH   1  12
BRANCH   2  19
ATOM     19  C   UNL     1       4.727   6.129  17.895  0.00  0.00    +0.000 C 
ATOM     20  C   UNL     1       4.835   5.540  16.485  0.00  0.00    +0.000 C 
ATOM     21  C   UNL     1       6.134   6.131  16.002  0.00  0.00    +0.000 C 
ATOM     22  C   UNL     1       6.977   6.028  17.253  0.00  0.00    +0.000 C 
ATOM     23  O   UNL     1       6.083   6.199  18.371  0.00  0.00    +0.000 OA
ENDBRANCH   2  19
TORSDOF 3
ENDMDL
