MODEL 1
REMARK VINA RESULT:      -9.5      0.000      0.000
REMARK  Name = 
REMARK  5 active torsions:
REMARK  status: ('A' for Active; 'I' for Inactive)
REMARK    1  A    between atoms: C_1  and  C_2
REMARK    2  A    between atoms: C_6  and  C_7
REMARK    3  A    between atoms: C_14  and  C_15
REMARK    4  A    between atoms: C_20  and  C_22
REMARK    5  A    between atoms: C_22  and  N_23
REMARK                            x       y       z     vdW  Elec       q    Type
REMARK                         _______ _______ _______ _____ _____    ______ ____
ROOT
ATOM      1  C   UNL     1       4.430   4.177  18.646  0.00  0.00    +0.000 C 
ATOM      2  O   UNL     1       4.604   3.097  19.231  0.00  0.00    +0.000 OA
ATOM      3  N   UNL     1       3.492   5.087  19.156  0.00  0.00    +0.000 N 
ATOM      4  C   UNL     1       2.775   4.607  20.352  0.00  0.00    +0.000 C 
ATOM      5  C   UNL     1       1.756   5.651  20.770  0.00  0.00    +0.000 C 
ATOM      6  C   UNL     1       2.011   6.735  19.778  0.00  0.00    +0.000 A 
ATOM      7  C   UNL     1       1.312   7.945  19.745  0.00  0.00    +0.000 A 
ATOM      8  C   UNL     1       1.624   8.881  18.761  0.00  0.00    +0.000 A 
ATOM      9  C   UNL     1       2.656   8.569  17.856  0.00  0.00    +0.000 A 
ATOM     10  C   UNL     1       3.384   7.354  17.936  0.00  0.00    +0.000 A 
ATOM     11  C   UNL     1       3.033   6.401  18.876  0.00  0.00    +0.000 A 
ENDROOT
BRANCH   8  12
ATOM     12  C   UNL     1       0.892  10.143  18.651  0.00  0.00    +0.000 A 
ATOM     13  C   UNL     1       1.386  11.380  19.032  0.00  0.00    +0.000 A 
ATOM     14  S   UNL     1       0.212  12.605  18.724  0.00  0.00    +0.000 S 
ATOM     15  C   UNL     1      -0.873  11.397  18.190  0.00  0.00    +0.000 A 
ATOM     16  N   UNL     1      -2.137  11.842  17.885  0.00  0.00    +0.000 N 
ATOM     17  C   UNL     1      -3.168  10.945  17.718  0.00  0.00    +0.000 C 
ATOM     18  O   UNL     1      -3.074   9.717  17.801  0.00  0.00    +0.000 OA
ATOM     19  N   UNL     1      -0.400  10.177  18.157  0.00  0.00    +0.000 NA
ATOM     20  H   UNL     1      -2.305  12.836  17.905  0.00  0.00    +0.000 HD
BRANCH  17  21
ATOM     21  C   UNL     1      -4.546  11.581  17.485  0.00  0.00    +0.000 C 
BRANCH  21  22
ATOM     22  N   UNL     1      -5.458  11.415  18.638  0.00  0.00    +0.000 NA
ATOM     23  C   UNL     1      -6.857  11.341  18.164  0.00  0.00    +0.000 C 
ATOM     24  C   UNL     1      -7.313  12.785  18.040  0.00  0.00    +0.000 C 
ATOM     25  C   UNL     1      -6.674  13.438  19.246  0.00  0.00    +0.000 C 
ATOM     26  C   UNL     1      -5.449  12.581  19.553  0.00  0.00    +0.000 C 
ENDBRANCH  21  22
ENDBRANCH  17  21
ENDBRANCH   8  12
BRANCH   1  32
ATOM     27  C   UNL     1       5.197   4.037  13.691  0.00  0.00    +0.000 C 
ATOM     28  C   UNL     1       5.739   4.249  15.073  0.00  0.00    +0.000 A 
ATOM     29  C   UNL     1       7.009   4.804  15.275  0.00  0.00    +0.000 A 
ATOM     30  C   UNL     1       7.448   5.077  16.568  0.00  0.00    +0.000 A 
ATOM     31  C   UNL     1       6.581   4.880  17.644  0.00  0.00    +0.000 A 
ATOM     32  C   UNL     1       5.283   4.360  17.451  0.00  0.00    +0.000 A 
ATOM     33  C   UNL     1       4.922   3.951  16.176  0.00  0.00    +0.000 A 
ENDBRANCH   1  32
TORSDOF 4
ENDMDL
MODEL 2
REMARK VINA RESULT:      -9.0      2.445      2.802
REMARK  Name = 
REMARK  5 active torsions:
REMARK  status: ('A' for Active; 'I' for Inactive)
REMARK    1  A    between atoms: C_1  and  C_2
REMARK    2  A    between atoms: C_6  and  C_7
REMARK    3  A    between atoms: C_14  and  C_15
REMARK    4  A    between atoms: C_20  and  C_22
REMARK    5  A    between atoms: C_22  and  N_23
REMARK                            x       y       z     vdW  Elec       q    Type
REMARK                         _______ _______ _______ _____ _____    ______ ____
ROOT
ATOM      1  C   UNL     1       4.449   3.918  18.452  0.00  0.00    +0.000 C 
ATOM      2  O   UNL     1       4.615   2.767  18.886  0.00  0.00    +0.000 OA
ATOM      3  N   UNL     1       3.536   4.766  19.095  0.00  0.00    +0.000 N 
ATOM      4  C   UNL     1       2.831   4.143  20.231  0.00  0.00    +0.000 C 
ATOM      5  C   UNL     1       1.838   5.137  20.803  0.00  0.00    +0.000 C 
ATOM      6  C   UNL     1       2.095   6.339  19.958  0.00  0.00    +0.000 A 
ATOM      7  C   UNL     1       1.417   7.554  20.099  0.00  0.00    +0.000 A 
ATOM      8  C   UNL     1       1.728   8.607  19.241  0.00  0.00    +0.000 A 
ATOM      9  C   UNL     1       2.739   8.402  18.283  0.00  0.00    +0.000 A 
ATOM     10  C   UNL     1       3.447   7.177  18.188  0.00  0.00    +0.000 A 
ATOM     11  C   UNL     1       3.095   6.112  19.000  0.00  0.00    +0.000 A 
ENDROOT
BRANCH   8  12
ATOM     12  C   UNL     1       1.017   9.883  19.313  0.00  0.00    +0.000 A 
ATOM     13  C   UNL     1       1.153  10.918  18.402  0.00  0.00    +0.000 A 
ATOM     14  S   UNL     1       0.130  12.233  18.846  0.00  0.00    +0.000 S 
ATOM     15  C   UNL     1      -0.345  11.364  20.238  0.00  0.00    +0.000 A 
ATOM     16  N   UNL     1      -1.162  12.050  21.103  0.00  0.00    +0.000 N 
ATOM     17  C   UNL     1      -1.382  11.575  22.376  0.00  0.00    +0.000 C 
ATOM     18  O   UNL     1      -0.913  10.534  22.847  0.00  0.00    +0.000 OA
ATOM     19  N   UNL     1       0.141  10.154  20.350  0.00  0.00    +0.000 NA
ATOM     20  H   UNL     1      -1.494  12.959  20.819  0.00  0.00    +0.000 HD
BRANCH  17  21
ATOM     21  C   UNL     1      -2.229  12.491  23.271  0.00  0.00    +0.000 C 
BRANCH  21  22
ATOM     22  N   UNL     1      -3.659  12.112  23.292  0.00  0.00    +0.000 NA
ATOM     23  C   UNL     1      -4.362  12.740  22.152  0.00  0.00    +0.000 C 
ATOM     24  C   UNL     1      -4.745  14.128  22.635  0.00  0.00    +0.000 C 
ATOM     25  C   UNL     1      -5.147  13.878  24.073  0.00  0.00    +0.000 C 
ATOM     26  C   UNL     1      -4.374  12.627  24.484  0.00  0.00    +0.000 C 
ENDBRANCH  21  22
ENDBRANCH  17  21
ENDBRANCH   8  12
BRANCH   1  32
ATOM     27  C   UNL     1       5.443   3.735  13.539  0.00  0.00    +0.000 C 
ATOM     28  C   UNL     1       5.859   4.136  14.923  0.00  0.00    +0.000 A 
ATOM     29  C   UNL     1       6.949   4.989  15.134  0.00  0.00    +0.000 A 
ATOM     30  C   UNL     1       7.253   5.420  16.421  0.00  0.00    +0.000 A 
ATOM     31  C   UNL     1       6.412   5.071  17.480  0.00  0.00    +0.000 A 
ATOM     32  C   UNL     1       5.286   4.245  17.276  0.00  0.00    +0.000 A 
ATOM     33  C   UNL     1       5.089   3.702  16.015  0.00  0.00    +0.000 A 
ENDBRANCH   1  32
TORSDOF 4
ENDMDL
MODEL 3
REMARK VINA RESULT:      -8.8      2.934      3.426
REMARK  Name = 
REMARK  5 active torsions:
REMARK  status: ('A' for Active; 'I' for Inactive)
REMARK    1  A    between atoms: C_1  and  C_2
REMARK    2  A    between atoms: C_6  and  C_7
REMARK    3  A    between atoms: C_14  and  C_15
REMARK    4  A    between atoms: C_20  and  C_22
REMARK    5  A    between atoms: C_22  and  N_23
REMARK                            x       y       z     vdW  Elec       q    Type
REMARK                         _______ _______ _______ _____ _____    ______ ____
ROOT
ATOM      1  C   UNL     1       4.445   3.940  18.495  0.00  0.00    +0.000 C 
ATOM      2  O   UNL     1       4.651   2.792  18.918  0.00  0.00    +0.000 OA
ATOM      3  N   UNL     1       3.506   4.751  19.149  0.00  0.00    +0.000 N 
ATOM      4  C   UNL     1       2.826   4.094  20.281  0.00  0.00    +0.000 C 
ATOM      5  C   UNL     1       1.801   5.049  20.864  0.00  0.00    +0.000 C 
ATOM      6  C   UNL     1       2.015   6.266  20.031  0.00  0.00    +0.000 A 
ATOM      7  C   UNL     1       1.297   7.456  20.185  0.00  0.00    +0.000 A 
ATOM      8  C   UNL     1       1.569   8.527  19.336  0.00  0.00    +0.000 A 
ATOM      9  C   UNL     1       2.584   8.365  18.373  0.00  0.00    +0.000 A 
ATOM     10  C   UNL     1       3.333   7.166  18.265  0.00  0.00    +0.000 A 
ATOM     11  C   UNL     1       3.019   6.082  19.068  0.00  0.00    +0.000 A 
ENDROOT
BRANCH   8  12
ATOM     12  C   UNL     1       0.815   9.778  19.422  0.00  0.00    +0.000 A 
ATOM     13  C   UNL     1       0.884  10.809  18.499  0.00  0.00    +0.000 A 
ATOM     14  S   UNL     1      -0.170  12.090  18.966  0.00  0.00    +0.000 S 
ATOM     15  C   UNL     1      -0.568  11.217  20.380  0.00  0.00    +0.000 A 
ATOM     16  N   UNL     1      -1.380  11.881  21.267  0.00  0.00    +0.000 N 
ATOM     17  C   UNL     1      -1.541  11.409  22.549  0.00  0.00    +0.000 C 
ATOM     18  O   UNL     1      -1.020  10.390  23.013  0.00  0.00    +0.000 OA
ATOM     19  N   UNL     1      -0.035  10.026  20.485  0.00  0.00    +0.000 NA
ATOM     20  H   UNL     1      -1.753  12.775  20.987  0.00  0.00    +0.000 HD
BRANCH  17  21
ATOM     21  C   UNL     1      -2.391  12.303  23.465  0.00  0.00    +0.000 C 
BRANCH  21  22
ATOM     22  N   UNL     1      -2.404  13.719  23.035  0.00  0.00    +0.000 NA
ATOM     23  C   UNL     1      -1.421  14.492  23.825  0.00  0.00    +0.000 C 
ATOM     24  C   UNL     1      -2.155  14.893  25.093  0.00  0.00    +0.000 C 
ATOM     25  C   UNL     1      -3.543  15.219  24.583  0.00  0.00    +0.000 C 
ATOM     26  C   UNL     1      -3.696  14.391  23.309  0.00  0.00    +0.000 C 
ENDBRANCH  21  22
ENDBRANCH  17  21
ENDBRANCH   8  12
BRANCH   1  32
ATOM     27  C   UNL     1       5.509   3.725  13.598  0.00  0.00    +0.000 C 
ATOM     28  C   UNL     1       5.874   4.190  14.976  0.00  0.00    +0.000 A 
ATOM     29  C   UNL     1       6.890   5.133  15.177  0.00  0.00    +0.000 A 
ATOM     30  C   UNL     1       7.143   5.616  16.457  0.00  0.00    +0.000 A 
ATOM     31  C   UNL     1       6.321   5.225  17.515  0.00  0.00    +0.000 A 
ATOM     32  C   UNL     1       5.267   4.307  17.320  0.00  0.00    +0.000 A 
ATOM     33  C   UNL     1       5.129   3.721  16.071  0.00  0.00    +0.000 A 
ENDBRANCH   1  32
TORSDOF 4
ENDMDL
MODEL 4
REMARK VINA RESULT:      -8.8      1.344      1.586
REMARK  Name = 
REMARK  5 active torsions:
REMARK  status: ('A' for Active; 'I' for Inactive)
REMARK    1  A    between atoms: C_1  and  C_2
REMARK    2  A    between atoms: C_6  and  C_7
REMARK    3  A    between atoms: C_14  and  C_15
REMARK    4  A    between atoms: C_20  and  C_22
REMARK    5  A    between atoms: C_22  and  N_23
REMARK                            x       y       z     vdW  Elec       q    Type
REMARK                         _______ _______ _______ _____ _____    ______ ____
ROOT
ATOM      1  C   UNL     1       4.251   3.350  18.683  0.00  0.00    +0.000 C 
ATOM      2  O   UNL     1       4.393   2.133  18.880  0.00  0.00    +0.000 OA
ATOM      3  N   UNL     1       3.308   4.060  19.440  0.00  0.00    +0.000 N 
ATOM      4  C   UNL     1       2.545   3.227  20.389  0.00  0.00    +0.000 C 
ATOM      5  C   UNL     1       1.526   4.095  21.102  0.00  0.00    +0.000 C 
ATOM      6  C   UNL     1       1.826   5.441  20.534  0.00  0.00    +0.000 A 
ATOM      7  C   UNL     1       1.144   6.609  20.886  0.00  0.00    +0.000 A 
ATOM      8  C   UNL     1       1.499   7.811  20.278  0.00  0.00    +0.000 A 
ATOM      9  C   UNL     1       2.557   7.794  19.349  0.00  0.00    +0.000 A 
ATOM     10  C   UNL     1       3.268   6.606  19.041  0.00  0.00    +0.000 A 
ATOM     11  C   UNL     1       2.873   5.402  19.601  0.00  0.00    +0.000 A 
ENDROOT
BRANCH   8  12
ATOM     12  C   UNL     1       0.786   9.054  20.574  0.00  0.00    +0.000 A 
ATOM     13  C   UNL     1       0.892   9.765  21.758  0.00  0.00    +0.000 A 
ATOM     14  S   UNL     1      -0.100  11.173  21.692  0.00  0.00    +0.000 S 
ATOM     15  C   UNL     1      -0.644  10.689  20.146  0.00  0.00    +0.000 A 
ATOM     16  N   UNL     1      -1.633  11.473  19.604  0.00  0.00    +0.000 N 
ATOM     17  C   UNL     1      -2.345  11.037  18.510  0.00  0.00    +0.000 C 
ATOM     18  O   UNL     1      -2.173   9.966  17.919  0.00  0.00    +0.000 OA
ATOM     19  N   UNL     1      -0.089   9.609  19.657  0.00  0.00    +0.000 NA
ATOM     20  H   UNL     1      -1.895  12.313  20.099  0.00  0.00    +0.000 HD
BRANCH  17  21
ATOM     21  C   UNL     1      -3.487  11.964  18.071  0.00  0.00    +0.000 C 
BRANCH  21  22
ATOM     22  N   UNL     1      -4.640  11.228  17.506  0.00  0.00    +0.000 NA
ATOM     23  C   UNL     1      -5.554  12.171  16.826  0.00  0.00    +0.000 C 
ATOM     24  C   UNL     1      -6.460  12.708  17.920  0.00  0.00    +0.000 C 
ATOM     25  C   UNL     1      -6.705  11.484  18.777  0.00  0.00    +0.000 C 
ATOM     26  C   UNL     1      -5.485  10.596  18.547  0.00  0.00    +0.000 C 
ENDBRANCH  21  22
ENDBRANCH  17  21
ENDBRANCH   8  12
BRANCH   1  32
ATOM     27  C   UNL     1       5.491   4.162  13.891  0.00  0.00    +0.000 C 
ATOM     28  C   UNL     1       5.836   4.267  15.346  0.00  0.00    +0.000 A 
ATOM     29  C   UNL     1       6.916   5.046  15.780  0.00  0.00    +0.000 A 
ATOM     30  C   UNL     1       7.155   5.201  17.142  0.00  0.00    +0.000 A 
ATOM     31  C   UNL     1       6.262   4.653  18.064  0.00  0.00    +0.000 A 
ATOM     32  C   UNL     1       5.146   3.901  17.641  0.00  0.00    +0.000 A 
ATOM     33  C   UNL     1       5.012   3.628  16.288  0.00  0.00    +0.000 A 
ENDBRANCH   1  32
TORSDOF 4
ENDMDL
MODEL 5
REMARK VINA RESULT:      -8.6      3.093      3.697
REMARK  Name = 
REMARK  5 active torsions:
REMARK  status: ('A' for Active; 'I' for Inactive)
REMARK    1  A    between atoms: C_1  and  C_2
REMARK    2  A    between atoms: C_6  and  C_7
REMARK    3  A    between atoms: C_14  and  C_15
REMARK    4  A    between atoms: C_20  and  C_22
REMARK    5  A    between atoms: C_22  and  N_23
REMARK                            x       y       z     vdW  Elec       q    Type
REMARK                         _______ _______ _______ _____ _____    ______ ____
ROOT
ATOM      1  C   UNL     1       4.628   4.135  18.702  0.00  0.00    +0.000 C 
ATOM      2  O   UNL     1       4.931   3.042  19.204  0.00  0.00    +0.000 OA
ATOM      3  N   UNL     1       3.636   4.916  19.312  0.00  0.00    +0.000 N 
ATOM      4  C   UNL     1       3.027   4.295  20.503  0.00  0.00    +0.000 C 
ATOM      5  C   UNL     1       1.938   5.207  21.035  0.00  0.00    +0.000 C 
ATOM      6  C   UNL     1       2.041   6.372  20.109  0.00  0.00    +0.000 A 
ATOM      7  C   UNL     1       1.233   7.509  20.189  0.00  0.00    +0.000 A 
ATOM      8  C   UNL     1       1.406   8.532  19.258  0.00  0.00    +0.000 A 
ATOM      9  C   UNL     1       2.417   8.378  18.290  0.00  0.00    +0.000 A 
ATOM     10  C   UNL     1       3.258   7.236  18.256  0.00  0.00    +0.000 A 
ATOM     11  C   UNL     1       3.044   6.195  19.142  0.00  0.00    +0.000 A 
ENDROOT
BRANCH   8  12
ATOM     12  C   UNL     1       0.556   9.722  19.266  0.00  0.00    +0.000 A 
ATOM     13  C   UNL     1       0.251  10.484  18.150  0.00  0.00    +0.000 A 
ATOM     14  S   UNL     1      -0.788  11.787  18.592  0.00  0.00    +0.000 S 
ATOM     15  C   UNL     1      -0.686  11.285  20.222  0.00  0.00    +0.000 A 
ATOM     16  N   UNL     1      -1.308  12.111  21.127  0.00  0.00    +0.000 N 
ATOM     17  C   UNL     1      -1.063  11.975  22.474  0.00  0.00    +0.000 C 
ATOM     18  O   UNL     1      -0.318  11.137  22.990  0.00  0.00    +0.000 OA
ATOM     19  N   UNL     1      -0.004  10.190  20.442  0.00  0.00    +0.000 NA
ATOM     20  H   UNL     1      -1.848  12.883  20.768  0.00  0.00    +0.000 HD
BRANCH  17  21
ATOM     21  C   UNL     1      -1.741  13.028  23.364  0.00  0.00    +0.000 C 
BRANCH  21  22
ATOM     22  N   UNL     1      -0.814  14.098  23.796  0.00  0.00    +0.000 NA
ATOM     23  C   UNL     1      -1.558  15.132  24.548  0.00  0.00    +0.000 C 
ATOM     24  C   UNL     1      -2.114  16.071  23.492  0.00  0.00    +0.000 C 
ATOM     25  C   UNL     1      -0.982  16.149  22.490  0.00  0.00    +0.000 C 
ATOM     26  C   UNL     1      -0.219  14.838  22.658  0.00  0.00    +0.000 C 
ENDBRANCH  21  22
ENDBRANCH  17  21
ENDBRANCH   8  12
BRANCH   1  32
ATOM     27  C   UNL     1       5.530   3.764  13.781  0.00  0.00    +0.000 C 
ATOM     28  C   UNL     1       5.931   4.286  15.129  0.00  0.00    +0.000 A 
ATOM     29  C   UNL     1       6.932   5.256  15.260  0.00  0.00    +0.000 A 
ATOM     30  C   UNL     1       7.218   5.791  16.513  0.00  0.00    +0.000 A 
ATOM     31  C   UNL     1       6.441   5.421  17.612  0.00  0.00    +0.000 A 
ATOM     32  C   UNL     1       5.401   4.476  17.486  0.00  0.00    +0.000 A 
ATOM     33  C   UNL     1       5.234   3.841  16.264  0.00  0.00    +0.000 A 
ENDBRANCH   1  32
TORSDOF 4
ENDMDL
MODEL 6
REMARK VINA RESULT:      -8.6      3.674      4.520
REMARK  Name = 
REMARK  5 active torsions:
REMARK  status: ('A' for Active; 'I' for Inactive)
REMARK    1  A    between atoms: C_1  and  C_2
REMARK    2  A    between atoms: C_6  and  C_7
REMARK    3  A    between atoms: C_14  and  C_15
REMARK    4  A    between atoms: C_20  and  C_22
REMARK    5  A    between atoms: C_22  and  N_23
REMARK                            x       y       z     vdW  Elec       q    Type
REMARK                         _______ _______ _______ _____ _____    ______ ____
ROOT
ATOM      1  C   UNL     1       3.887   3.036  18.258  0.00  0.00    +0.000 C 
ATOM      2  O   UNL     1       3.884   1.795  18.256  0.00  0.00    +0.000 OA
ATOM      3  N   UNL     1       2.978   3.720  19.078  0.00  0.00    +0.000 N 
ATOM      4  C   UNL     1       2.070   2.840  19.837  0.00  0.00    +0.000 C 
ATOM      5  C   UNL     1       1.105   3.696  20.636  0.00  0.00    +0.000 C 
ATOM      6  C   UNL     1       1.585   5.071  20.316  0.00  0.00    +0.000 A 
ATOM      7  C   UNL     1       1.010   6.238  20.826  0.00  0.00    +0.000 A 
ATOM      8  C   UNL     1       1.531   7.473  20.444  0.00  0.00    +0.000 A 
ATOM      9  C   UNL     1       2.640   7.482  19.576  0.00  0.00    +0.000 A 
ATOM     10  C   UNL     1       3.238   6.284  19.108  0.00  0.00    +0.000 A 
ATOM     11  C   UNL     1       2.681   5.060  19.439  0.00  0.00    +0.000 A 
ENDROOT
BRANCH   8  12
ATOM     12  C   UNL     1       0.939   8.727  20.909  0.00  0.00    +0.000 A 
ATOM     13  C   UNL     1       0.019   8.834  21.940  0.00  0.00    +0.000 A 
ATOM     14  S   UNL     1      -0.414  10.486  22.176  0.00  0.00    +0.000 S 
ATOM     15  C   UNL     1       0.583  10.911  20.854  0.00  0.00    +0.000 A 
ATOM     16  N   UNL     1       0.534  12.235  20.490  0.00  0.00    +0.000 N 
ATOM     17  C   UNL     1       1.061  12.645  19.287  0.00  0.00    +0.000 C 
ATOM     18  O   UNL     1       1.618  11.917  18.459  0.00  0.00    +0.000 OA
ATOM     19  N   UNL     1       1.260   9.933  20.310  0.00  0.00    +0.000 NA
ATOM     20  H   UNL     1       0.003  12.866  21.071  0.00  0.00    +0.000 HD
BRANCH  17  21
ATOM     21  C   UNL     1       0.847  14.130  18.959  0.00  0.00    +0.000 C 
BRANCH  21  22
ATOM     22  N   UNL     1       1.844  15.011  19.607  0.00  0.00    +0.000 NA
ATOM     23  C   UNL     1       1.426  16.424  19.475  0.00  0.00    +0.000 C 
ATOM     24  C   UNL     1       1.947  16.868  18.119  0.00  0.00    +0.000 C 
ATOM     25  C   UNL     1       3.298  16.189  18.045  0.00  0.00    +0.000 C 
ATOM     26  C   UNL     1       3.170  14.964  18.947  0.00  0.00    +0.000 C 
ENDBRANCH  21  22
ENDBRANCH  17  21
ENDBRANCH   8  12
BRANCH   1  32
ATOM     27  C   UNL     1       5.680   4.148  13.708  0.00  0.00    +0.000 C 
ATOM     28  C   UNL     1       5.857   4.146  15.197  0.00  0.00    +0.000 A 
ATOM     29  C   UNL     1       6.889   4.872  15.805  0.00  0.00    +0.000 A 
ATOM     30  C   UNL     1       6.972   4.930  17.193  0.00  0.00    +0.000 A 
ATOM     31  C   UNL     1       5.972   4.338  17.966  0.00  0.00    +0.000 A 
ATOM     32  C   UNL     1       4.903   3.638  17.366  0.00  0.00    +0.000 A 
ATOM     33  C   UNL     1       4.923   3.461  15.991  0.00  0.00    +0.000 A 
ENDBRANCH   1  32
TORSDOF 4
ENDMDL
MODEL 7
REMARK VINA RESULT:      -8.4      3.222      4.553
REMARK  Name = 
REMARK  5 active torsions:
REMARK  status: ('A' for Active; 'I' for Inactive)
REMARK    1  A    between atoms: C_1  and  C_2
REMARK    2  A    between atoms: C_6  and  C_7
REMARK    3  A    between atoms: C_14  and  C_15
REMARK    4  A    between atoms: C_20  and  C_22
REMARK    5  A    between atoms: C_22  and  N_23
REMARK                            x       y       z     vdW  Elec       q    Type
REMARK                         _______ _______ _______ _____ _____    ______ ____
ROOT
ATOM      1  C   UNL     1       4.577   4.133  18.620  0.00  0.00    +0.000 C 
ATOM      2  O   UNL     1       4.825   3.035  19.141  0.00  0.00    +0.000 OA
ATOM      3  N   UNL     1       3.620   4.970  19.211  0.00  0.00    +0.000 N 
ATOM      4  C   UNL     1       2.976   4.397  20.408  0.00  0.00    +0.000 C 
ATOM      5  C   UNL     1       1.928   5.368  20.919  0.00  0.00    +0.000 C 
ATOM      6  C   UNL     1       2.090   6.511  19.975  0.00  0.00    +0.000 A 
ATOM      7  C   UNL     1       1.336   7.686  20.032  0.00  0.00    +0.000 A 
ATOM      8  C   UNL     1       1.562   8.684  19.085  0.00  0.00    +0.000 A 
ATOM      9  C   UNL     1       2.570   8.467  18.126  0.00  0.00    +0.000 A 
ATOM     10  C   UNL     1       3.356   7.287  18.115  0.00  0.00    +0.000 A 
ATOM     11  C   UNL     1       3.088   6.272  19.018  0.00  0.00    +0.000 A 
ENDROOT
BRANCH   8  12
ATOM     12  C   UNL     1       0.769   9.912  19.069  0.00  0.00    +0.000 A 
ATOM     13  C   UNL     1      -0.355  10.119  18.285  0.00  0.00    +0.000 A 
ATOM     14  S   UNL     1      -0.997  11.692  18.577  0.00  0.00    +0.000 S 
ATOM     15  C   UNL     1       0.299  11.997  19.648  0.00  0.00    +0.000 A 
ATOM     16  N   UNL     1       0.353  13.275  20.149  0.00  0.00    +0.000 N 
ATOM     17  C   UNL     1       1.487  13.724  20.787  0.00  0.00    +0.000 C 
ATOM     18  O   UNL     1       2.512  13.063  20.984  0.00  0.00    +0.000 OA
ATOM     19  N   UNL     1       1.118  10.997  19.854  0.00  0.00    +0.000 NA
ATOM     20  H   UNL     1      -0.408  13.900  19.932  0.00  0.00    +0.000 HD
BRANCH  17  21
ATOM     21  C   UNL     1       1.452  15.201  21.204  0.00  0.00    +0.000 C 
BRANCH  21  22
ATOM     22  N   UNL     1       2.492  16.013  20.534  0.00  0.00    +0.000 NA
ATOM     23  C   UNL     1       2.267  17.447  20.813  0.00  0.00    +0.000 C 
ATOM     24  C   UNL     1       1.267  17.905  19.766  0.00  0.00    +0.000 C 
ATOM     25  C   UNL     1       1.720  17.162  18.527  0.00  0.00    +0.000 C 
ATOM     26  C   UNL     1       2.432  15.919  19.056  0.00  0.00    +0.000 C 
ENDBRANCH  21  22
ENDBRANCH  17  21
ENDBRANCH   8  12
BRANCH   1  32
ATOM     27  C   UNL     1       5.394   3.775  13.684  0.00  0.00    +0.000 C 
ATOM     28  C   UNL     1       5.859   4.223  15.037  0.00  0.00    +0.000 A 
ATOM     29  C   UNL     1       6.957   5.080  15.178  0.00  0.00    +0.000 A 
ATOM     30  C   UNL     1       7.308   5.555  16.438  0.00  0.00    +0.000 A 
ATOM     31  C   UNL     1       6.505   5.245  17.538  0.00  0.00    +0.000 A 
ATOM     32  C   UNL     1       5.371   4.417  17.403  0.00  0.00    +0.000 A 
ATOM     33  C   UNL     1       5.129   3.829  16.171  0.00  0.00    +0.000 A 
ENDBRANCH   1  32
TORSDOF 4
ENDMDL
MODEL 8
REMARK VINA RESULT:      -8.3      3.159      4.146
REMARK  Name = 
REMARK  5 active torsions:
REMARK  status: ('A' for Active; 'I' for Inactive)
REMARK    1  A    between atoms: C_1  and  C_2
REMARK    2  A    between atoms: C_6  and  C_7
REMARK    3  A    between atoms: C_14  and  C_15
REMARK    4  A    between atoms: C_20  and  C_22
REMARK    5  A    between atoms: C_22  and  N_23
REMARK                            x       y       z     vdW  Elec       q    Type
REMARK                         _______ _______ _______ _____ _____    ______ ____
ROOT
ATOM      1  C   UNL     1       4.603   4.256  18.648  0.00  0.00    +0.000 C 
ATOM      2  O   UNL     1       4.859   3.195  19.239  0.00  0.00    +0.000 OA
ATOM      3  N   UNL     1       3.636   5.119  19.182  0.00  0.00    +0.000 N 
ATOM      4  C   UNL     1       2.992   4.618  20.410  0.00  0.00    +0.000 C 
ATOM      5  C   UNL     1       1.933   5.609  20.854  0.00  0.00    +0.000 C 
ATOM      6  C   UNL     1       2.089   6.692  19.840  0.00  0.00    +0.000 A 
ATOM      7  C   UNL     1       1.323   7.861  19.820  0.00  0.00    +0.000 A 
ATOM      8  C   UNL     1       1.545   8.799  18.813  0.00  0.00    +0.000 A 
ATOM      9  C   UNL     1       2.559   8.531  17.873  0.00  0.00    +0.000 A 
ATOM     10  C   UNL     1       3.356   7.360  17.940  0.00  0.00    +0.000 A 
ATOM     11  C   UNL     1       3.094   6.402  18.904  0.00  0.00    +0.000 A 
ENDROOT
BRANCH   8  12
ATOM     12  C   UNL     1       0.741  10.017  18.716  0.00  0.00    +0.000 A 
ATOM     13  C   UNL     1      -0.524  10.087  18.155  0.00  0.00    +0.000 A 
ATOM     14  S   UNL     1      -1.124  11.701  18.254  0.00  0.00    +0.000 S 
ATOM     15  C   UNL     1       0.359  12.184  18.953  0.00  0.00    +0.000 A 
ATOM     16  N   UNL     1       0.489  13.535  19.166  0.00  0.00    +0.000 N 
ATOM     17  C   UNL     1       1.721  14.077  19.456  0.00  0.00    +0.000 C 
ATOM     18  O   UNL     1       2.777  13.447  19.565  0.00  0.00    +0.000 OA
ATOM     19  N   UNL     1       1.222  11.228  19.181  0.00  0.00    +0.000 NA
ATOM     20  H   UNL     1      -0.313  14.121  18.990  0.00  0.00    +0.000 HD
BRANCH  17  21
ATOM     21  C   UNL     1       1.742  15.609  19.568  0.00  0.00    +0.000 C 
BRANCH  21  22
ATOM     22  N   UNL     1       0.457  16.232  19.181  0.00  0.00    +0.000 NA
ATOM     23  C   UNL     1       0.694  17.284  18.169  0.00  0.00    +0.000 C 
ATOM     24  C   UNL     1       1.036  18.532  18.964  0.00  0.00    +0.000 C 
ATOM     25  C   UNL     1       0.092  18.441  20.144  0.00  0.00    +0.000 C 
ATOM     26  C   UNL     1      -0.195  16.950  20.302  0.00  0.00    +0.000 C 
ENDBRANCH  21  22
ENDBRANCH  17  21
ENDBRANCH   8  12
BRANCH   1  32
ATOM     27  C   UNL     1       5.323   3.802  13.705  0.00  0.00    +0.000 C 
ATOM     28  C   UNL     1       5.839   4.222  15.048  0.00  0.00    +0.000 A 
ATOM     29  C   UNL     1       7.002   4.994  15.168  0.00  0.00    +0.000 A 
ATOM     30  C   UNL     1       7.405   5.450  16.420  0.00  0.00    +0.000 A 
ATOM     31  C   UNL     1       6.596   5.210  17.532  0.00  0.00    +0.000 A 
ATOM     32  C   UNL     1       5.400   4.469  17.419  0.00  0.00    +0.000 A 
ATOM     33  C   UNL     1       5.096   3.894  16.194  0.00  0.00    +0.000 A 
ENDBRANCH   1  32
TORSDOF 4
ENDMDL
MODEL 9
REMARK VINA RESULT:      -8.3      3.139      3.979
REMARK  Name = 
REMARK  5 active torsions:
REMARK  status: ('A' for Active; 'I' for Inactive)
REMARK    1  A    between atoms: C_1  and  C_2
REMARK    2  A    between atoms: C_6  and  C_7
REMARK    3  A    between atoms: C_14  and  C_15
REMARK    4  A    between atoms: C_20  and  C_22
REMARK    5  A    between atoms: C_22  and  N_23
REMARK                            x       y       z     vdW  Elec       q    Type
REMARK                         _______ _______ _______ _____ _____    ______ ____
ROOT
ATOM      1  C   UNL     1       3.866   3.415  18.151  0.00  0.00    +0.000 C 
ATOM      2  O   UNL     1       3.947   2.179  18.093  0.00  0.00    +0.000 OA
ATOM      3  N   UNL     1       2.959   4.000  19.047  0.00  0.00    +0.000 N 
ATOM      4  C   UNL     1       2.156   3.028  19.812  0.00  0.00    +0.000 C 
ATOM      5  C   UNL     1       1.180   3.780  20.698  0.00  0.00    +0.000 C 
ATOM      6  C   UNL     1       1.548   5.198  20.416  0.00  0.00    +0.000 A 
ATOM      7  C   UNL     1       0.925   6.300  21.007  0.00  0.00    +0.000 A 
ATOM      8  C   UNL     1       1.340   7.583  20.655  0.00  0.00    +0.000 A 
ATOM      9  C   UNL     1       2.396   7.705  19.732  0.00  0.00    +0.000 A 
ATOM     10  C   UNL     1       3.047   6.572  19.180  0.00  0.00    +0.000 A 
ATOM     11  C   UNL     1       2.593   5.300  19.484  0.00  0.00    +0.000 A 
ENDROOT
BRANCH   8  12
ATOM     12  C   UNL     1       0.690   8.772  21.206  0.00  0.00    +0.000 A 
ATOM     13  C   UNL     1       0.044   8.825  22.430  0.00  0.00    +0.000 A 
ATOM     14  S   UNL     1      -0.570  10.413  22.705  0.00  0.00    +0.000 S 
ATOM     15  C   UNL     1      -0.004  10.874  21.160  0.00  0.00    +0.000 A 
ATOM     16  N   UNL     1      -0.345  12.146  20.770  0.00  0.00    +0.000 N 
ATOM     17  C   UNL     1      -0.196  12.534  19.458  0.00  0.00    +0.000 C 
ATOM     18  O   UNL     1       0.248  11.832  18.545  0.00  0.00    +0.000 OA
ATOM     19  N   UNL     1       0.664   9.962  20.500  0.00  0.00    +0.000 NA
ATOM     20  H   UNL     1      -0.810  12.738  21.442  0.00  0.00    +0.000 HD
BRANCH  17  21
ATOM     21  C   UNL     1      -0.712  13.945  19.139  0.00  0.00    +0.000 C 
BRANCH  21  22
ATOM     22  N   UNL     1       0.058  15.007  19.823  0.00  0.00    +0.000 NA
ATOM     23  C   UNL     1      -0.785  16.211  19.989  0.00  0.00    +0.000 C 
ATOM     24  C   UNL     1      -0.645  16.979  18.686  0.00  0.00    +0.000 C 
ATOM     25  C   UNL     1       0.819  16.794  18.349  0.00  0.00    +0.000 C 
ATOM     26  C   UNL     1       1.214  15.484  19.027  0.00  0.00    +0.000 C 
ENDBRANCH  21  22
ENDBRANCH  17  21
ENDBRANCH   8  12
BRANCH   1  32
ATOM     27  C   UNL     1       7.467   6.784  17.230  0.00  0.00    +0.000 C 
ATOM     28  C   UNL     1       6.477   5.782  16.714  0.00  0.00    +0.000 A 
ATOM     29  C   UNL     1       6.515   5.347  15.383  0.00  0.00    +0.000 A 
ATOM     30  C   UNL     1       5.646   4.347  14.957  0.00  0.00    +0.000 A 
ATOM     31  C   UNL     1       4.807   3.724  15.883  0.00  0.00    +0.000 A 
ATOM     32  C   UNL     1       4.788   4.124  17.236  0.00  0.00    +0.000 A 
ATOM     33  C   UNL     1       5.548   5.223  17.607  0.00  0.00    +0.000 A 
ENDBRANCH   1  32
TORSDOF 4
ENDMDL
