MODEL 1
REMARK VINA RESULT:      -8.0      0.000      0.000
REMARK  Name = 
REMARK  9 active torsions:
REMARK  status: ('A' for Active; 'I' for Inactive)
REMARK    1  A    between atoms: C_1  and  C_2
REMARK    2  A    between atoms: C_5  and  C_6
REMARK    3  A    between atoms: C_6  and  C_8
REMARK    4  A    between atoms: C_8  and  S_9
REMARK    5  A    between atoms: S_9  and  C_10
REMARK    6  A    between atoms: C_13  and  C_14
REMARK    7  A    between atoms: C_14  and  O_15
REMARK    8  A    between atoms: O_15  and  C_16
REMARK    9  A    between atoms: C_20  and  C_21
REMARK                            x       y       z     vdW  Elec       q    Type
REMARK                         _______ _______ _______ _____ _____    ______ ____
ROOT
ATOM      1  C   UNL     1       7.110   5.549  16.938  0.00  0.00    +0.000 A 
ATOM      2  N   UNL     1       7.523   5.331  18.171  0.00  0.00    +0.000 NA
ATOM      3  N   UNL     1       7.933   6.537  18.682  0.00  0.00    +0.000 NA
ATOM      4  C   UNL     1       7.732   7.425  17.744  0.00  0.00    +0.000 A 
ATOM      5  O   UNL     1       7.232   6.875  16.577  0.00  0.00    +0.000 OA
ENDROOT
BRANCH   1   6
ATOM      6  S   UNL     1       6.509   4.242  15.965  0.00  0.00    +0.000 S 
BRANCH   6   7
ATOM      7  C   UNL     1       4.710   4.447  15.907  0.00  0.00    +0.000 C 
BRANCH   7   8
ATOM      8  C   UNL     1       4.081   3.978  17.229  0.00  0.00    +0.000 C 
ATOM      9  O   UNL     1       4.081   2.806  17.606  0.00  0.00    +0.000 OA
BRANCH   8  14
ATOM     10  C   UNL     1       1.554   8.013  20.591  0.00  0.00    +0.000 C 
ATOM     11  C   UNL     1       2.219   6.977  19.731  0.00  0.00    +0.000 A 
ATOM     12  C   UNL     1       2.872   7.330  18.549  0.00  0.00    +0.000 A 
ATOM     13  C   UNL     1       3.473   6.347  17.754  0.00  0.00    +0.000 A 
ATOM     14  C   UNL     1       3.431   4.991  18.127  0.00  0.00    +0.000 A 
ATOM     15  C   UNL     1       2.784   4.642  19.313  0.00  0.00    +0.000 A 
ATOM     16  C   UNL     1       2.183   5.628  20.108  0.00  0.00    +0.000 A 
ENDBRANCH   8  14
ENDBRANCH   7   8
ENDBRANCH   6   7
ENDBRANCH   1   6
BRANCH   4  17
ATOM     17  C   UNL     1       8.077   8.870  17.795  0.00  0.00    +0.000 C 
BRANCH  17  18
ATOM     18  O   UNL     1       8.901   9.118  18.943  0.00  0.00    +0.000 OA
BRANCH  18  19
ATOM     19  C   UNL     1       9.314  10.423  19.085  0.00  0.00    +0.000 A 
ATOM     20  C   UNL     1       9.745  11.240  18.036  0.00  0.00    +0.000 A 
ATOM     21  C   UNL     1      10.095  12.569  18.272  0.00  0.00    +0.000 A 
ATOM     22  C   UNL     1      10.026  13.094  19.561  0.00  0.00    +0.000 A 
ATOM     23  C   UNL     1       9.608  12.292  20.627  0.00  0.00    +0.000 A 
ATOM     24  C   UNL     1       9.540  12.851  22.019  0.00  0.00    +0.000 C 
ATOM     25  C   UNL     1       9.256  10.955  20.381  0.00  0.00    +0.000 A 
ENDBRANCH  18  19
ENDBRANCH  17  18
ENDBRANCH   4  17
TORSDOF 7
ENDMDL
MODEL 2
REMARK VINA RESULT:      -7.7      1.539      2.106
REMARK  Name = 
REMARK  9 active torsions:
REMARK  status: ('A' for Active; 'I' for Inactive)
REMARK    1  A    between atoms: C_1  and  C_2
REMARK    2  A    between atoms: C_5  and  C_6
REMARK    3  A    between atoms: C_6  and  C_8
REMARK    4  A    between atoms: C_8  and  S_9
REMARK    5  A    between atoms: S_9  and  C_10
REMARK    6  A    between atoms: C_13  and  C_14
REMARK    7  A    between atoms: C_14  and  O_15
REMARK    8  A    between atoms: O_15  and  C_16
REMARK    9  A    between atoms: C_20  and  C_21
REMARK                            x       y       z     vdW  Elec       q    Type
REMARK                         _______ _______ _______ _____ _____    ______ ____
ROOT
ATOM      1  C   UNL     1       7.089   6.506  16.944  0.00  0.00    +0.000 A 
ATOM      2  N   UNL     1       7.639   6.034  18.046  0.00  0.00    +0.000 NA
ATOM      3  N   UNL     1       8.230   7.091  18.691  0.00  0.00    +0.000 NA
ATOM      4  C   UNL     1       7.994   8.150  17.962  0.00  0.00    +0.000 A 
ATOM      5  O   UNL     1       7.291   7.864  16.804  0.00  0.00    +0.000 OA
ENDROOT
BRANCH   1   6
ATOM      6  S   UNL     1       6.237   5.449  15.860  0.00  0.00    +0.000 S 
BRANCH   6   7
ATOM      7  C   UNL     1       5.296   4.310  16.908  0.00  0.00    +0.000 C 
BRANCH   7   8
ATOM      8  C   UNL     1       4.164   5.064  17.624  0.00  0.00    +0.000 C 
ATOM      9  O   UNL     1       3.800   6.199  17.317  0.00  0.00    +0.000 OA
BRANCH   8  14
ATOM     10  C   UNL     1       1.242   2.527  21.983  0.00  0.00    +0.000 C 
ATOM     11  C   UNL     1       2.000   3.192  20.870  0.00  0.00    +0.000 A 
ATOM     12  C   UNL     1       1.462   4.279  20.177  0.00  0.00    +0.000 A 
ATOM     13  C   UNL     1       2.178   4.874  19.133  0.00  0.00    +0.000 A 
ATOM     14  C   UNL     1       3.446   4.394  18.760  0.00  0.00    +0.000 A 
ATOM     15  C   UNL     1       3.985   3.312  19.459  0.00  0.00    +0.000 A 
ATOM     16  C   UNL     1       3.266   2.717  20.505  0.00  0.00    +0.000 A 
ENDBRANCH   8  14
ENDBRANCH   7   8
ENDBRANCH   6   7
ENDBRANCH   1   6
BRANCH   4  17
ATOM     17  C   UNL     1       8.484   9.532  18.210  0.00  0.00    +0.000 C 
BRANCH  17  18
ATOM     18  O   UNL     1       9.188   9.565  19.459  0.00  0.00    +0.000 OA
BRANCH  18  19
ATOM     19  C   UNL     1       9.758  10.779  19.767  0.00  0.00    +0.000 A 
ATOM     20  C   UNL     1      10.801  11.372  19.051  0.00  0.00    +0.000 A 
ATOM     21  C   UNL     1      11.278  12.633  19.410  0.00  0.00    +0.000 A 
ATOM     22  C   UNL     1      10.724  13.310  20.493  0.00  0.00    +0.000 A 
ATOM     23  C   UNL     1       9.688  12.731  21.231  0.00  0.00    +0.000 A 
ATOM     24  C   UNL     1       9.092  13.453  22.405  0.00  0.00    +0.000 C 
ATOM     25  C   UNL     1       9.212  11.462  20.862  0.00  0.00    +0.000 A 
ENDBRANCH  18  19
ENDBRANCH  17  18
ENDBRANCH   4  17
TORSDOF 7
ENDMDL
MODEL 3
REMARK VINA RESULT:      -7.6      1.700      2.348
REMARK  Name = 
REMARK  9 active torsions:
REMARK  status: ('A' for Active; 'I' for Inactive)
REMARK    1  A    between atoms: C_1  and  C_2
REMARK    2  A    between atoms: C_5  and  C_6
REMARK    3  A    between atoms: C_6  and  C_8
REMARK    4  A    between atoms: C_8  and  S_9
REMARK    5  A    between atoms: S_9  and  C_10
REMARK    6  A    between atoms: C_13  and  C_14
REMARK    7  A    between atoms: C_14  and  O_15
REMARK    8  A    between atoms: O_15  and  C_16
REMARK    9  A    between atoms: C_20  and  C_21
REMARK                            x       y       z     vdW  Elec       q    Type
REMARK                         _______ _______ _______ _____ _____    ______ ____
ROOT
ATOM      1  C   UNL     1       7.724   6.631  17.925  0.00  0.00    +0.000 A 
ATOM      2  N   UNL     1       7.172   7.377  16.987  0.00  0.00    +0.000 NA
ATOM      3  N   UNL     1       7.569   8.672  17.210  0.00  0.00    +0.000 NA
ATOM      4  C   UNL     1       8.353   8.644  18.255  0.00  0.00    +0.000 A 
ATOM      5  O   UNL     1       8.488   7.378  18.799  0.00  0.00    +0.000 OA
ENDROOT
BRANCH   1   6
ATOM      6  S   UNL     1       7.447   4.917  17.965  0.00  0.00    +0.000 S 
BRANCH   6   7
ATOM      7  C   UNL     1       5.900   4.638  17.066  0.00  0.00    +0.000 C 
BRANCH   7   8
ATOM      8  C   UNL     1       4.726   4.536  18.053  0.00  0.00    +0.000 C 
ATOM      9  O   UNL     1       4.444   3.511  18.674  0.00  0.00    +0.000 OA
BRANCH   8  14
ATOM     10  C   UNL     1       1.380   9.186  19.126  0.00  0.00    +0.000 C 
ATOM     11  C   UNL     1       2.230   7.980  18.845  0.00  0.00    +0.000 A 
ATOM     12  C   UNL     1       2.309   6.923  19.754  0.00  0.00    +0.000 A 
ATOM     13  C   UNL     1       3.118   5.815  19.480  0.00  0.00    +0.000 A 
ATOM     14  C   UNL     1       3.865   5.743  18.289  0.00  0.00    +0.000 A 
ATOM     15  C   UNL     1       3.777   6.798  17.378  0.00  0.00    +0.000 A 
ATOM     16  C   UNL     1       2.966   7.906  17.656  0.00  0.00    +0.000 A 
ENDBRANCH   8  14
ENDBRANCH   7   8
ENDBRANCH   6   7
ENDBRANCH   1   6
BRANCH   4  17
ATOM     17  C   UNL     1       8.987   9.810  18.927  0.00  0.00    +0.000 C 
BRANCH  17  18
ATOM     18  O   UNL     1       8.546  11.017  18.291  0.00  0.00    +0.000 OA
BRANCH  18  19
ATOM     19  C   UNL     1       9.536  11.945  18.064  0.00  0.00    +0.000 A 
ATOM     20  C   UNL     1      10.862  11.633  17.749  0.00  0.00    +0.000 A 
ATOM     21  C   UNL     1      11.783  12.646  17.484  0.00  0.00    +0.000 A 
ATOM     22  C   UNL     1      11.392  13.981  17.538  0.00  0.00    +0.000 A 
ATOM     23  C   UNL     1      10.075  14.318  17.863  0.00  0.00    +0.000 A 
ATOM     24  C   UNL     1       9.650  15.756  17.932  0.00  0.00    +0.000 C 
ATOM     25  C   UNL     1       9.152  13.291  18.127  0.00  0.00    +0.000 A 
ENDBRANCH  18  19
ENDBRANCH  17  18
ENDBRANCH   4  17
TORSDOF 7
ENDMDL
MODEL 4
REMARK VINA RESULT:      -7.4      1.591      1.979
REMARK  Name = 
REMARK  9 active torsions:
REMARK  status: ('A' for Active; 'I' for Inactive)
REMARK    1  A    between atoms: C_1  and  C_2
REMARK    2  A    between atoms: C_5  and  C_6
REMARK    3  A    between atoms: C_6  and  C_8
REMARK    4  A    between atoms: C_8  and  S_9
REMARK    5  A    between atoms: S_9  and  C_10
REMARK    6  A    between atoms: C_13  and  C_14
REMARK    7  A    between atoms: C_14  and  O_15
REMARK    8  A    between atoms: O_15  and  C_16
REMARK    9  A    between atoms: C_20  and  C_21
REMARK                            x       y       z     vdW  Elec       q    Type
REMARK                         _______ _______ _______ _____ _____    ______ ____
ROOT
ATOM      1  C   UNL     1       7.522   6.367  17.621  0.00  0.00    +0.000 A 
ATOM      2  N   UNL     1       7.054   7.181  16.694  0.00  0.00    +0.000 NA
ATOM      3  N   UNL     1       7.479   8.447  17.011  0.00  0.00    +0.000 NA
ATOM      4  C   UNL     1       8.196   8.335  18.099  0.00  0.00    +0.000 A 
ATOM      5  O   UNL     1       8.254   7.038  18.579  0.00  0.00    +0.000 OA
ENDROOT
BRANCH   1   6
ATOM      6  S   UNL     1       7.186   4.664  17.550  0.00  0.00    +0.000 S 
BRANCH   6   7
ATOM      7  C   UNL     1       5.400   4.516  17.287  0.00  0.00    +0.000 C 
BRANCH   7   8
ATOM      8  C   UNL     1       4.650   4.745  18.610  0.00  0.00    +0.000 C 
ATOM      9  O   UNL     1       4.751   4.003  19.587  0.00  0.00    +0.000 OA
BRANCH   8  14
ATOM     10  C   UNL     1       1.141   9.385  18.952  0.00  0.00    +0.000 C 
ATOM     11  C   UNL     1       2.057   8.198  18.869  0.00  0.00    +0.000 A 
ATOM     12  C   UNL     1       2.882   7.998  17.760  0.00  0.00    +0.000 A 
ATOM     13  C   UNL     1       3.718   6.878  17.695  0.00  0.00    +0.000 A 
ATOM     14  C   UNL     1       3.743   5.935  18.739  0.00  0.00    +0.000 A 
ATOM     15  C   UNL     1       2.923   6.141  19.849  0.00  0.00    +0.000 A 
ATOM     16  C   UNL     1       2.087   7.264  19.912  0.00  0.00    +0.000 A 
ENDBRANCH   8  14
ENDBRANCH   7   8
ENDBRANCH   6   7
ENDBRANCH   1   6
BRANCH   4  17
ATOM     17  C   UNL     1       8.825   9.440  18.870  0.00  0.00    +0.000 C 
BRANCH  17  18
ATOM     18  O   UNL     1       9.372  10.401  17.957  0.00  0.00    +0.000 OA
BRANCH  18  19
ATOM     19  C   UNL     1       9.891  11.529  18.549  0.00  0.00    +0.000 A 
ATOM     20  C   UNL     1      11.024  11.548  19.367  0.00  0.00    +0.000 A 
ATOM     21  C   UNL     1      11.507  12.752  19.879  0.00  0.00    +0.000 A 
ATOM     22  C   UNL     1      10.858  13.949  19.586  0.00  0.00    +0.000 A 
ATOM     23  C   UNL     1       9.716  13.953  18.780  0.00  0.00    +0.000 A 
ATOM     24  C   UNL     1       9.008  15.239  18.467  0.00  0.00    +0.000 C 
ATOM     25  C   UNL     1       9.237  12.736  18.266  0.00  0.00    +0.000 A 
ENDBRANCH  18  19
ENDBRANCH  17  18
ENDBRANCH   4  17
TORSDOF 7
ENDMDL
MODEL 5
REMARK VINA RESULT:      -7.4      4.863      6.605
REMARK  Name = 
REMARK  9 active torsions:
REMARK  status: ('A' for Active; 'I' for Inactive)
REMARK    1  A    between atoms: C_1  and  C_2
REMARK    2  A    between atoms: C_5  and  C_6
REMARK    3  A    between atoms: C_6  and  C_8
REMARK    4  A    between atoms: C_8  and  S_9
REMARK    5  A    between atoms: S_9  and  C_10
REMARK    6  A    between atoms: C_13  and  C_14
REMARK    7  A    between atoms: C_14  and  O_15
REMARK    8  A    between atoms: O_15  and  C_16
REMARK    9  A    between atoms: C_20  and  C_21
REMARK                            x       y       z     vdW  Elec       q    Type
REMARK                         _______ _______ _______ _____ _____    ______ ____
ROOT
ATOM      1  C   UNL     1       4.771   3.233  19.140  0.00  0.00    +0.000 A 
ATOM      2  N   UNL     1       5.659   4.029  19.702  0.00  0.00    +0.000 NA
ATOM      3  N   UNL     1       6.110   4.888  18.731  0.00  0.00    +0.000 NA
ATOM      4  C   UNL     1       5.461   4.583  17.638  0.00  0.00    +0.000 A 
ATOM      5  O   UNL     1       4.600   3.511  17.799  0.00  0.00    +0.000 OA
ENDROOT
BRANCH   1   6
ATOM      6  S   UNL     1       3.975   2.003  20.072  0.00  0.00    +0.000 S 
BRANCH   6   7
ATOM      7  C   UNL     1       2.746   2.861  21.088  0.00  0.00    +0.000 C 
BRANCH   7   8
ATOM      8  C   UNL     1       1.635   3.441  20.197  0.00  0.00    +0.000 C 
ATOM      9  O   UNL     1       0.580   2.855  19.956  0.00  0.00    +0.000 OA
BRANCH   8  14
ATOM     10  C   UNL     1       2.441   8.757  17.948  0.00  0.00    +0.000 C 
ATOM     11  C   UNL     1       2.218   7.391  18.530  0.00  0.00    +0.000 A 
ATOM     12  C   UNL     1       2.205   7.186  19.911  0.00  0.00    +0.000 A 
ATOM     13  C   UNL     1       2.011   5.903  20.433  0.00  0.00    +0.000 A 
ATOM     14  C   UNL     1       1.827   4.798  19.583  0.00  0.00    +0.000 A 
ATOM     15  C   UNL     1       1.832   5.006  18.202  0.00  0.00    +0.000 A 
ATOM     16  C   UNL     1       2.027   6.292  17.682  0.00  0.00    +0.000 A 
ENDBRANCH   8  14
ENDBRANCH   7   8
ENDBRANCH   6   7
ENDBRANCH   1   6
BRANCH   4  17
ATOM     17  C   UNL     1       5.645   5.191  16.293  0.00  0.00    +0.000 C 
BRANCH  17  18
ATOM     18  O   UNL     1       6.937   4.832  15.785  0.00  0.00    +0.000 OA
BRANCH  18  19
ATOM     19  C   UNL     1       7.013   4.742  14.414  0.00  0.00    +0.000 A 
ATOM     20  C   UNL     1       7.856   5.517  13.612  0.00  0.00    +0.000 A 
ATOM     21  C   UNL     1       7.902   5.316  12.233  0.00  0.00    +0.000 A 
ATOM     22  C   UNL     1       7.100   4.344  11.639  0.00  0.00    +0.000 A 
ATOM     23  C   UNL     1       6.241   3.565  12.420  0.00  0.00    +0.000 A 
ATOM     24  C   UNL     1       5.368   2.522  11.783  0.00  0.00    +0.000 C 
ATOM     25  C   UNL     1       6.202   3.773  13.809  0.00  0.00    +0.000 A 
ENDBRANCH  18  19
ENDBRANCH  17  18
ENDBRANCH   4  17
TORSDOF 7
ENDMDL
MODEL 6
REMARK VINA RESULT:      -7.3      1.584      2.343
REMARK  Name = 
REMARK  9 active torsions:
REMARK  status: ('A' for Active; 'I' for Inactive)
REMARK    1  A    between atoms: C_1  and  C_2
REMARK    2  A    between atoms: C_5  and  C_6
REMARK    3  A    between atoms: C_6  and  C_8
REMARK    4  A    between atoms: C_8  and  S_9
REMARK    5  A    between atoms: S_9  and  C_10
REMARK    6  A    between atoms: C_13  and  C_14
REMARK    7  A    between atoms: C_14  and  O_15
REMARK    8  A    between atoms: O_15  and  C_16
REMARK    9  A    between atoms: C_20  and  C_21
REMARK                            x       y       z     vdW  Elec       q    Type
REMARK                         _______ _______ _______ _____ _____    ______ ____
ROOT
ATOM      1  C   UNL     1       7.303   6.080  17.159  0.00  0.00    +0.000 A 
ATOM      2  N   UNL     1       7.788   5.957  18.379  0.00  0.00    +0.000 NA
ATOM      3  N   UNL     1       8.111   7.217  18.819  0.00  0.00    +0.000 NA
ATOM      4  C   UNL     1       7.790   8.039  17.855  0.00  0.00    +0.000 A 
ATOM      5  O   UNL     1       7.290   7.394  16.737  0.00  0.00    +0.000 OA
ENDROOT
BRANCH   1   6
ATOM      6  S   UNL     1       6.779   4.682  16.273  0.00  0.00    +0.000 S 
BRANCH   6   7
ATOM      7  C   UNL     1       5.034   4.963  15.880  0.00  0.00    +0.000 C 
BRANCH   7   8
ATOM      8  C   UNL     1       4.340   5.691  17.043  0.00  0.00    +0.000 C 
ATOM      9  O   UNL     1       4.307   6.916  17.157  0.00  0.00    +0.000 OA
BRANCH   8  14
ATOM     10  C   UNL     1       1.546   2.579  21.102  0.00  0.00    +0.000 C 
ATOM     11  C   UNL     1       2.267   3.393  20.066  0.00  0.00    +0.000 A 
ATOM     12  C   UNL     1       1.589   4.327  19.280  0.00  0.00    +0.000 A 
ATOM     13  C   UNL     1       2.277   5.065  18.310  0.00  0.00    +0.000 A 
ATOM     14  C   UNL     1       3.657   4.881  18.107  0.00  0.00    +0.000 A 
ATOM     15  C   UNL     1       4.333   3.952  18.899  0.00  0.00    +0.000 A 
ATOM     16  C   UNL     1       3.642   3.215  19.870  0.00  0.00    +0.000 A 
ENDBRANCH   8  14
ENDBRANCH   7   8
ENDBRANCH   6   7
ENDBRANCH   1   6
BRANCH   4  17
ATOM     17  C   UNL     1       8.006   9.510  17.828  0.00  0.00    +0.000 C 
BRANCH  17  18
ATOM     18  O   UNL     1       9.411   9.782  17.909  0.00  0.00    +0.000 OA
BRANCH  18  19
ATOM     19  C   UNL     1       9.766  10.711  18.860  0.00  0.00    +0.000 A 
ATOM     20  C   UNL     1       9.220  10.781  20.145  0.00  0.00    +0.000 A 
ATOM     21  C   UNL     1       9.683  11.727  21.059  0.00  0.00    +0.000 A 
ATOM     22  C   UNL     1      10.691  12.618  20.697  0.00  0.00    +0.000 A 
ATOM     23  C   UNL     1      11.243  12.574  19.413  0.00  0.00    +0.000 A 
ATOM     24  C   UNL     1      12.323  13.537  19.015  0.00  0.00    +0.000 C 
ATOM     25  C   UNL     1      10.772  11.617  18.499  0.00  0.00    +0.000 A 
ENDBRANCH  18  19
ENDBRANCH  17  18
ENDBRANCH   4  17
TORSDOF 7
ENDMDL
MODEL 7
REMARK VINA RESULT:      -7.2      1.790      8.684
REMARK  Name = 
REMARK  9 active torsions:
REMARK  status: ('A' for Active; 'I' for Inactive)
REMARK    1  A    between atoms: C_1  and  C_2
REMARK    2  A    between atoms: C_5  and  C_6
REMARK    3  A    between atoms: C_6  and  C_8
REMARK    4  A    between atoms: C_8  and  S_9
REMARK    5  A    between atoms: S_9  and  C_10
REMARK    6  A    between atoms: C_13  and  C_14
REMARK    7  A    between atoms: C_14  and  O_15
REMARK    8  A    between atoms: O_15  and  C_16
REMARK    9  A    between atoms: C_20  and  C_21
REMARK                            x       y       z     vdW  Elec       q    Type
REMARK                         _______ _______ _______ _____ _____    ______ ____
ROOT
ATOM      1  C   UNL     1       7.794   7.671  17.721  0.00  0.00    +0.000 A 
ATOM      2  N   UNL     1       8.149   6.940  18.760  0.00  0.00    +0.000 NA
ATOM      3  N   UNL     1       7.765   5.648  18.499  0.00  0.00    +0.000 NA
ATOM      4  C   UNL     1       7.216   5.657  17.313  0.00  0.00    +0.000 A 
ATOM      5  O   UNL     1       7.165   6.921  16.749  0.00  0.00    +0.000 OA
ENDROOT
BRANCH   1   6
ATOM      6  S   UNL     1       8.123   9.376  17.690  0.00  0.00    +0.000 S 
BRANCH   6   7
ATOM      7  C   UNL     1       9.147   9.716  19.144  0.00  0.00    +0.000 C 
BRANCH   7   8
ATOM      8  C   UNL     1       9.930  11.024  18.945  0.00  0.00    +0.000 C 
ATOM      9  O   UNL     1      10.664  11.239  17.980  0.00  0.00    +0.000 OA
BRANCH   8  14
ATOM     10  C   UNL     1       9.424  15.140  23.041  0.00  0.00    +0.000 C 
ATOM     11  C   UNL     1       9.540  14.082  21.981  0.00  0.00    +0.000 A 
ATOM     12  C   UNL     1       9.096  12.778  22.211  0.00  0.00    +0.000 A 
ATOM     13  C   UNL     1       9.226  11.802  21.216  0.00  0.00    +0.000 A 
ATOM     14  C   UNL     1       9.804  12.113  19.972  0.00  0.00    +0.000 A 
ATOM     15  C   UNL     1      10.240  13.419  19.742  0.00  0.00    +0.000 A 
ATOM     16  C   UNL     1      10.108  14.394  20.740  0.00  0.00    +0.000 A 
ENDBRANCH   8  14
ENDBRANCH   7   8
ENDBRANCH   6   7
ENDBRANCH   1   6
BRANCH   4  17
ATOM     17  C   UNL     1       6.587   4.507  16.613  0.00  0.00    +0.000 C 
BRANCH  17  18
ATOM     18  O   UNL     1       5.333   4.923  16.054  0.00  0.00    +0.000 OA
BRANCH  18  19
ATOM     19  C   UNL     1       4.281   4.929  16.941  0.00  0.00    +0.000 A 
ATOM     20  C   UNL     1       3.803   6.064  17.601  0.00  0.00    +0.000 A 
ATOM     21  C   UNL     1       2.694   5.979  18.442  0.00  0.00    +0.000 A 
ATOM     22  C   UNL     1       2.055   4.758  18.639  0.00  0.00    +0.000 A 
ATOM     23  C   UNL     1       2.522   3.606  17.998  0.00  0.00    +0.000 A 
ATOM     24  C   UNL     1       1.841   2.285  18.213  0.00  0.00    +0.000 C 
ATOM     25  C   UNL     1       3.639   3.701  17.151  0.00  0.00    +0.000 A 
ENDBRANCH  18  19
ENDBRANCH  17  18
ENDBRANCH   4  17
TORSDOF 7
ENDMDL
MODEL 8
REMARK VINA RESULT:      -7.2      3.822      7.344
REMARK  Name = 
REMARK  9 active torsions:
REMARK  status: ('A' for Active; 'I' for Inactive)
REMARK    1  A    between atoms: C_1  and  C_2
REMARK    2  A    between atoms: C_5  and  C_6
REMARK    3  A    between atoms: C_6  and  C_8
REMARK    4  A    between atoms: C_8  and  S_9
REMARK    5  A    between atoms: S_9  and  C_10
REMARK    6  A    between atoms: C_13  and  C_14
REMARK    7  A    between atoms: C_14  and  O_15
REMARK    8  A    between atoms: O_15  and  C_16
REMARK    9  A    between atoms: C_20  and  C_21
REMARK                            x       y       z     vdW  Elec       q    Type
REMARK                         _______ _______ _______ _____ _____    ______ ____
ROOT
ATOM      1  C   UNL     1       2.161   5.372  18.722  0.00  0.00    +0.000 A 
ATOM      2  N   UNL     1       2.370   5.845  19.935  0.00  0.00    +0.000 NA
ATOM      3  N   UNL     1       2.279   7.212  19.861  0.00  0.00    +0.000 NA
ATOM      4  C   UNL     1       2.002   7.498  18.616  0.00  0.00    +0.000 A 
ATOM      5  O   UNL     1       1.936   6.378  17.804  0.00  0.00    +0.000 OA
ENDROOT
BRANCH   1   6
ATOM      6  S   UNL     1       2.196   3.661  18.424  0.00  0.00    +0.000 S 
BRANCH   6   7
ATOM      7  C   UNL     1       3.816   3.314  17.693  0.00  0.00    +0.000 C 
BRANCH   7   8
ATOM      8  C   UNL     1       4.935   3.730  18.663  0.00  0.00    +0.000 C 
ATOM      9  O   UNL     1       5.221   3.102  19.682  0.00  0.00    +0.000 OA
BRANCH   8  14
ATOM     10  C   UNL     1       8.171   8.453  17.573  0.00  0.00    +0.000 C 
ATOM     11  C   UNL     1       7.331   7.243  17.866  0.00  0.00    +0.000 A 
ATOM     12  C   UNL     1       7.745   6.283  18.792  0.00  0.00    +0.000 A 
ATOM     13  C   UNL     1       6.955   5.155  19.040  0.00  0.00    +0.000 A 
ATOM     14  C   UNL     1       5.735   4.965  18.366  0.00  0.00    +0.000 A 
ATOM     15  C   UNL     1       5.320   5.930  17.446  0.00  0.00    +0.000 A 
ATOM     16  C   UNL     1       6.114   7.058  17.200  0.00  0.00    +0.000 A 
ENDBRANCH   8  14
ENDBRANCH   7   8
ENDBRANCH   6   7
ENDBRANCH   1   6
BRANCH   4  17
ATOM     17  C   UNL     1       1.867   8.854  18.020  0.00  0.00    +0.000 C 
BRANCH  17  18
ATOM     18  O   UNL     1       1.412   9.768  19.027  0.00  0.00    +0.000 OA
BRANCH  18  19
ATOM     19  C   UNL     1       0.283  10.480  18.693  0.00  0.00    +0.000 A 
ATOM     20  C   UNL     1       0.001  11.776  19.133  0.00  0.00    +0.000 A 
ATOM     21  C   UNL     1      -1.147  12.437  18.696  0.00  0.00    +0.000 A 
ATOM     22  C   UNL     1      -2.029  11.807  17.821  0.00  0.00    +0.000 A 
ATOM     23  C   UNL     1      -1.773  10.506  17.377  0.00  0.00    +0.000 A 
ATOM     24  C   UNL     1      -2.724   9.820  16.440  0.00  0.00    +0.000 C 
ATOM     25  C   UNL     1      -0.614   9.848  17.821  0.00  0.00    +0.000 A 
ENDBRANCH  18  19
ENDBRANCH  17  18
ENDBRANCH   4  17
TORSDOF 7
ENDMDL
MODEL 9
REMARK VINA RESULT:      -7.1      3.605      6.810
REMARK  Name = 
REMARK  9 active torsions:
REMARK  status: ('A' for Active; 'I' for Inactive)
REMARK    1  A    between atoms: C_1  and  C_2
REMARK    2  A    between atoms: C_5  and  C_6
REMARK    3  A    between atoms: C_6  and  C_8
REMARK    4  A    between atoms: C_8  and  S_9
REMARK    5  A    between atoms: S_9  and  C_10
REMARK    6  A    between atoms: C_13  and  C_14
REMARK    7  A    between atoms: C_14  and  O_15
REMARK    8  A    between atoms: O_15  and  C_16
REMARK    9  A    between atoms: C_20  and  C_21
REMARK                            x       y       z     vdW  Elec       q    Type
REMARK                         _______ _______ _______ _____ _____    ______ ____
ROOT
ATOM      1  C   UNL     1       2.290   4.354  18.833  0.00  0.00    +0.000 A 
ATOM      2  N   UNL     1       2.021   3.937  20.055  0.00  0.00    +0.000 NA
ATOM      3  N   UNL     1       1.861   5.051  20.840  0.00  0.00    +0.000 NA
ATOM      4  C   UNL     1       2.021   6.084  20.055  0.00  0.00    +0.000 A 
ATOM      5  O   UNL     1       2.329   5.731  18.752  0.00  0.00    +0.000 OA
ENDROOT
BRANCH   1   6
ATOM      6  S   UNL     1       2.556   3.214  17.550  0.00  0.00    +0.000 S 
BRANCH   6   7
ATOM      7  C   UNL     1       4.315   3.328  17.135  0.00  0.00    +0.000 C 
BRANCH   7   8
ATOM      8  C   UNL     1       5.106   3.879  18.333  0.00  0.00    +0.000 C 
ATOM      9  O   UNL     1       5.152   3.325  19.432  0.00  0.00    +0.000 OA
BRANCH   8  14
ATOM     10  C   UNL     1       8.219   8.774  17.768  0.00  0.00    +0.000 C 
ATOM     11  C   UNL     1       7.411   7.518  17.927  0.00  0.00    +0.000 A 
ATOM     12  C   UNL     1       7.848   6.476  18.747  0.00  0.00    +0.000 A 
ATOM     13  C   UNL     1       7.088   5.307  18.870  0.00  0.00    +0.000 A 
ATOM     14  C   UNL     1       5.875   5.159  18.173  0.00  0.00    +0.000 A 
ATOM     15  C   UNL     1       5.436   6.205  17.360  0.00  0.00    +0.000 A 
ATOM     16  C   UNL     1       6.200   7.374  17.239  0.00  0.00    +0.000 A 
ENDBRANCH   8  14
ENDBRANCH   7   8
ENDBRANCH   6   7
ENDBRANCH   1   6
BRANCH   4  17
ATOM     17  C   UNL     1       2.004   7.517  20.451  0.00  0.00    +0.000 C 
BRANCH  17  18
ATOM     18  O   UNL     1       1.873   8.329  19.277  0.00  0.00    +0.000 OA
BRANCH  18  19
ATOM     19  C   UNL     1       0.968   9.360  19.387  0.00  0.00    +0.000 A 
ATOM     20  C   UNL     1       0.369  10.011  18.304  0.00  0.00    +0.000 A 
ATOM     21  C   UNL     1      -0.579  11.012  18.518  0.00  0.00    +0.000 A 
ATOM     22  C   UNL     1      -0.933  11.378  19.814  0.00  0.00    +0.000 A 
ATOM     23  C   UNL     1      -0.338  10.749  20.912  0.00  0.00    +0.000 A 
ATOM     24  C   UNL     1      -0.710  11.145  22.311  0.00  0.00    +0.000 C 
ATOM     25  C   UNL     1       0.615   9.741  20.688  0.00  0.00    +0.000 A 
ENDBRANCH  18  19
ENDBRANCH  17  18
ENDBRANCH   4  17
TORSDOF 7
ENDMDL
