MODEL 1
REMARK VINA RESULT:      -8.7      0.000      0.000
REMARK  Name = 
REMARK  13 active torsions:
REMARK  status: ('A' for Active; 'I' for Inactive)
REMARK    1  A    between atoms: C_1  and  O_2
REMARK    2  A    between atoms: O_2  and  C_3
REMARK    3  A    between atoms: C_7  and  C_8
REMARK    4  A    between atoms: N_13  and  C_14
REMARK    5  A    between atoms: C_14  and  C_15
REMARK    6  A    between atoms: C_19  and  C_20
REMARK    7  A    between atoms: C_23  and  O_24
REMARK    8  A    between atoms: O_24  and  C_25
REMARK    9  A    between atoms: C_25  and  C_26
REMARK   10  A    between atoms: C_26  and  C_27
REMARK   11  A    between atoms: C_27  and  N_28
REMARK   12  A    between atoms: N_28  and  C_29
REMARK   13  A    between atoms: N_28  and  C_30
REMARK                            x       y       z     vdW  Elec       q    Type
REMARK                         _______ _______ _______ _____ _____    ______ ____
ROOT
ATOM      1  C   UNL     1       1.834   7.197  20.108  0.00  0.00    +0.000 A 
ATOM      2  C   UNL     1       2.307   7.604  18.854  0.00  0.00    +0.000 A 
ATOM      3  C   UNL     1       2.025   8.879  18.377  0.00  0.00    +0.000 A 
ATOM      4  C   UNL     1       1.271   9.759  19.156  0.00  0.00    +0.000 A 
ATOM      5  C   UNL     1       0.793   9.395  20.432  0.00  0.00    +0.000 A 
ATOM      6  C   UNL     1       1.102   8.105  20.892  0.00  0.00    +0.000 A 
ENDROOT
BRANCH   5   7
ATOM      7  C   UNL     1      -0.006  10.330  21.241  0.00  0.00    +0.000 A 
ATOM      8  N   UNL     1      -0.487   9.862  22.407  0.00  0.00    +0.000 NA
ATOM      9  C   UNL     1      -1.204  10.723  23.151  0.00  0.00    +0.000 A 
ATOM     10  C   UNL     1      -1.473  12.026  22.791  0.00  0.00    +0.000 A 
ATOM     11  C   UNL     1      -0.930  12.405  21.582  0.00  0.00    +0.000 A 
ATOM     12  N   UNL     1      -0.198  11.588  20.791  0.00  0.00    +0.000 NA
BRANCH  10  13
ATOM     13  O   UNL     1      -2.205  12.936  23.497  0.00  0.00    +0.000 OA
BRANCH  13  14
ATOM     14  C   UNL     1      -3.475  12.438  23.931  0.00  0.00    +0.000 C 
BRANCH  14  15
ATOM     15  C   UNL     1      -4.516  13.546  23.913  0.00  0.00    +0.000 C 
BRANCH  15  16
ATOM     16  C   UNL     1      -5.898  12.993  23.538  0.00  0.00    +0.000 C 
BRANCH  16  17
ATOM     17  N   UNL     1      -5.993  12.482  22.159  0.00  0.00    +0.000 NA
ATOM     18  C   UNL     1      -7.344  12.019  21.830  0.00  0.00    +0.000 C 
ATOM     19  C   UNL     1      -5.583  13.519  21.207  0.00  0.00    +0.000 C 
ENDBRANCH  16  17
ENDBRANCH  15  16
ENDBRANCH  14  15
ENDBRANCH  13  14
ENDBRANCH  10  13
ENDBRANCH   5   7
BRANCH   1  20
ATOM     20  C   UNL     1       2.120   5.811  20.634  0.00  0.00    +0.000 C 
BRANCH  20  26
ATOM     21  C   UNL     1       3.677   4.330  17.743  0.00  0.00    +0.000 A 
ATOM     22  C   UNL     1       2.795   3.190  17.398  0.00  0.00    +0.000 A 
ATOM     23  C   UNL     1       1.782   2.931  18.222  0.00  0.00    +0.000 A 
ATOM     24  C   UNL     1       1.523   3.784  19.396  0.00  0.00    +0.000 A 
ATOM     25  O   UNL     1       0.578   3.502  20.131  0.00  0.00    +0.000 OA
ATOM     26  N   UNL     1       2.377   4.862  19.561  0.00  0.00    +0.000 N 
ATOM     27  N   UNL     1       3.464   5.126  18.746  0.00  0.00    +0.000 NA
BRANCH  21  32
ATOM     28  C   UNL     1       6.875   5.794  16.288  0.00  0.00    +0.000 A 
ATOM     29  C   UNL     1       7.074   4.947  15.197  0.00  0.00    +0.000 A 
ATOM     30  C   UNL     1       6.166   3.920  14.921  0.00  0.00    +0.000 A 
ATOM     31  C   UNL     1       5.059   3.726  15.749  0.00  0.00    +0.000 A 
ATOM     32  C   UNL     1       4.861   4.556  16.858  0.00  0.00    +0.000 A 
ATOM     33  C   UNL     1       5.762   5.604  17.108  0.00  0.00    +0.000 A 
BRANCH  28  35
ATOM     34  C   UNL     1       7.576   7.749  17.450  0.00  0.00    +0.000 C 
ATOM     35  O   UNL     1       7.820   6.774  16.442  0.00  0.00    +0.000 OA
ENDBRANCH  28  35
ENDBRANCH  21  32
ENDBRANCH  20  26
ENDBRANCH   1  20
TORSDOF 10
ENDMDL
MODEL 2
REMARK VINA RESULT:      -8.5      0.746      1.133
REMARK  Name = 
REMARK  13 active torsions:
REMARK  status: ('A' for Active; 'I' for Inactive)
REMARK    1  A    between atoms: C_1  and  O_2
REMARK    2  A    between atoms: O_2  and  C_3
REMARK    3  A    between atoms: C_7  and  C_8
REMARK    4  A    between atoms: N_13  and  C_14
REMARK    5  A    between atoms: C_14  and  C_15
REMARK    6  A    between atoms: C_19  and  C_20
REMARK    7  A    between atoms: C_23  and  O_24
REMARK    8  A    between atoms: O_24  and  C_25
REMARK    9  A    between atoms: C_25  and  C_26
REMARK   10  A    between atoms: C_26  and  C_27
REMARK   11  A    between atoms: C_27  and  N_28
REMARK   12  A    between atoms: N_28  and  C_29
REMARK   13  A    between atoms: N_28  and  C_30
REMARK                            x       y       z     vdW  Elec       q    Type
REMARK                         _______ _______ _______ _____ _____    ______ ____
ROOT
ATOM      1  C   UNL     1       1.838   6.985  20.074  0.00  0.00    +0.000 A 
ATOM      2  C   UNL     1       2.268   7.363  18.795  0.00  0.00    +0.000 A 
ATOM      3  C   UNL     1       2.000   8.639  18.314  0.00  0.00    +0.000 A 
ATOM      4  C   UNL     1       1.303   9.548  19.112  0.00  0.00    +0.000 A 
ATOM      5  C   UNL     1       0.870   9.213  20.412  0.00  0.00    +0.000 A 
ATOM      6  C   UNL     1       1.165   7.921  20.875  0.00  0.00    +0.000 A 
ENDROOT
BRANCH   5   7
ATOM      7  C   UNL     1       0.132  10.179  21.242  0.00  0.00    +0.000 A 
ATOM      8  N   UNL     1       0.073  11.444  20.789  0.00  0.00    +0.000 NA
ATOM      9  C   UNL     1      -0.615  12.321  21.540  0.00  0.00    +0.000 A 
ATOM     10  C   UNL     1      -1.243  12.006  22.727  0.00  0.00    +0.000 A 
ATOM     11  C   UNL     1      -1.125  10.683  23.097  0.00  0.00    +0.000 A 
ATOM     12  N   UNL     1      -0.451   9.754  22.383  0.00  0.00    +0.000 NA
BRANCH  10  13
ATOM     13  O   UNL     1      -1.940  12.856  23.536  0.00  0.00    +0.000 OA
BRANCH  13  14
ATOM     14  C   UNL     1      -3.241  12.374  23.889  0.00  0.00    +0.000 C 
BRANCH  14  15
ATOM     15  C   UNL     1      -4.150  13.530  24.274  0.00  0.00    +0.000 C 
BRANCH  15  16
ATOM     16  C   UNL     1      -5.587  13.278  23.798  0.00  0.00    +0.000 C 
BRANCH  16  17
ATOM     17  N   UNL     1      -6.123  14.326  22.910  0.00  0.00    +0.000 NA
ATOM     18  C   UNL     1      -7.250  15.042  23.512  0.00  0.00    +0.000 C 
ATOM     19  C   UNL     1      -5.066  15.279  22.556  0.00  0.00    +0.000 C 
ENDBRANCH  16  17
ENDBRANCH  15  16
ENDBRANCH  14  15
ENDBRANCH  13  14
ENDBRANCH  10  13
ENDBRANCH   5   7
BRANCH   1  20
ATOM     20  C   UNL     1       2.111   5.598  20.606  0.00  0.00    +0.000 C 
BRANCH  20  26
ATOM     21  C   UNL     1       3.728   4.169  17.721  0.00  0.00    +0.000 A 
ATOM     22  C   UNL     1       2.902   2.984  17.389  0.00  0.00    +0.000 A 
ATOM     23  C   UNL     1       1.904   2.684  18.218  0.00  0.00    +0.000 A 
ATOM     24  C   UNL     1       1.608   3.533  19.387  0.00  0.00    +0.000 A 
ATOM     25  O   UNL     1       0.680   3.213  20.127  0.00  0.00    +0.000 OA
ATOM     26  N   UNL     1       2.410   4.653  19.540  0.00  0.00    +0.000 N 
ATOM     27  N   UNL     1       3.480   4.962  18.718  0.00  0.00    +0.000 NA
BRANCH  21  32
ATOM     28  C   UNL     1       6.893   5.723  16.287  0.00  0.00    +0.000 A 
ATOM     29  C   UNL     1       7.082   4.927  15.156  0.00  0.00    +0.000 A 
ATOM     30  C   UNL     1       6.178   3.907  14.848  0.00  0.00    +0.000 A 
ATOM     31  C   UNL     1       5.085   3.667  15.682  0.00  0.00    +0.000 A 
ATOM     32  C   UNL     1       4.897   4.444  16.831  0.00  0.00    +0.000 A 
ATOM     33  C   UNL     1       5.794   5.487  17.114  0.00  0.00    +0.000 A 
BRANCH  28  35
ATOM     34  C   UNL     1       7.592   7.635  17.520  0.00  0.00    +0.000 C 
ATOM     35  O   UNL     1       7.833   6.703  16.471  0.00  0.00    +0.000 OA
ENDBRANCH  28  35
ENDBRANCH  21  32
ENDBRANCH  20  26
ENDBRANCH   1  20
TORSDOF 10
ENDMDL
MODEL 3
REMARK VINA RESULT:      -8.3      1.159      1.895
REMARK  Name = 
REMARK  13 active torsions:
REMARK  status: ('A' for Active; 'I' for Inactive)
REMARK    1  A    between atoms: C_1  and  O_2
REMARK    2  A    between atoms: O_2  and  C_3
REMARK    3  A    between atoms: C_7  and  C_8
REMARK    4  A    between atoms: N_13  and  C_14
REMARK    5  A    between atoms: C_14  and  C_15
REMARK    6  A    between atoms: C_19  and  C_20
REMARK    7  A    between atoms: C_23  and  O_24
REMARK    8  A    between atoms: O_24  and  C_25
REMARK    9  A    between atoms: C_25  and  C_26
REMARK   10  A    between atoms: C_26  and  C_27
REMARK   11  A    between atoms: C_27  and  N_28
REMARK   12  A    between atoms: N_28  and  C_29
REMARK   13  A    between atoms: N_28  and  C_30
REMARK                            x       y       z     vdW  Elec       q    Type
REMARK                         _______ _______ _______ _____ _____    ______ ____
ROOT
ATOM      1  C   UNL     1       1.950   7.251  19.835  0.00  0.00    +0.000 A 
ATOM      2  C   UNL     1       2.362   7.631  18.551  0.00  0.00    +0.000 A 
ATOM      3  C   UNL     1       1.990   8.866  18.031  0.00  0.00    +0.000 A 
ATOM      4  C   UNL     1       1.207   9.732  18.797  0.00  0.00    +0.000 A 
ATOM      5  C   UNL     1       0.788   9.395  20.101  0.00  0.00    +0.000 A 
ATOM      6  C   UNL     1       1.188   8.147  20.603  0.00  0.00    +0.000 A 
ENDROOT
BRANCH   5   7
ATOM      7  C   UNL     1      -0.042  10.315  20.896  0.00  0.00    +0.000 A 
ATOM      8  N   UNL     1      -0.767  11.219  20.212  0.00  0.00    +0.000 NA
ATOM      9  C   UNL     1      -1.536  12.048  20.939  0.00  0.00    +0.000 A 
ATOM     10  C   UNL     1      -1.616  12.030  22.315  0.00  0.00    +0.000 A 
ATOM     11  C   UNL     1      -0.838  11.063  22.916  0.00  0.00    +0.000 A 
ATOM     12  N   UNL     1      -0.048  10.199  22.241  0.00  0.00    +0.000 NA
BRANCH  10  13
ATOM     13  O   UNL     1      -2.365  12.855  23.104  0.00  0.00    +0.000 OA
BRANCH  13  14
ATOM     14  C   UNL     1      -3.436  12.186  23.779  0.00  0.00    +0.000 C 
BRANCH  14  15
ATOM     15  C   UNL     1      -4.723  12.984  23.656  0.00  0.00    +0.000 C 
BRANCH  15  16
ATOM     16  C   UNL     1      -5.327  12.835  22.253  0.00  0.00    +0.000 C 
BRANCH  16  17
ATOM     17  N   UNL     1      -6.562  12.031  22.206  0.00  0.00    +0.000 NA
ATOM     18  C   UNL     1      -7.558  12.485  23.179  0.00  0.00    +0.000 C 
ATOM     19  C   UNL     1      -7.139  12.068  20.858  0.00  0.00    +0.000 C 
ENDBRANCH  16  17
ENDBRANCH  15  16
ENDBRANCH  14  15
ENDBRANCH  13  14
ENDBRANCH  10  13
ENDBRANCH   5   7
BRANCH   1  20
ATOM     20  C   UNL     1       2.335   5.908  20.408  0.00  0.00    +0.000 C 
BRANCH  20  26
ATOM     21  C   UNL     1       3.703   4.208  17.542  0.00  0.00    +0.000 A 
ATOM     22  C   UNL     1       2.743   3.111  17.276  0.00  0.00    +0.000 A 
ATOM     23  C   UNL     1       1.743   2.952  18.140  0.00  0.00    +0.000 A 
ATOM     24  C   UNL     1       1.575   3.870  19.282  0.00  0.00    +0.000 A 
ATOM     25  O   UNL     1       0.639   3.680  20.057  0.00  0.00    +0.000 OA
ATOM     26  N   UNL     1       2.498   4.899  19.372  0.00  0.00    +0.000 N 
ATOM     27  N   UNL     1       3.572   5.059  18.513  0.00  0.00    +0.000 NA
BRANCH  21  32
ATOM     28  C   UNL     1       5.798   4.314  14.366  0.00  0.00    +0.000 A 
ATOM     29  C   UNL     1       7.065   4.550  14.900  0.00  0.00    +0.000 A 
ATOM     30  C   UNL     1       7.244   4.652  16.283  0.00  0.00    +0.000 A 
ATOM     31  C   UNL     1       6.149   4.535  17.139  0.00  0.00    +0.000 A 
ATOM     32  C   UNL     1       4.869   4.320  16.613  0.00  0.00    +0.000 A 
ATOM     33  C   UNL     1       4.706   4.188  15.225  0.00  0.00    +0.000 A 
BRANCH  28  35
ATOM     34  C   UNL     1       6.306   3.032  12.425  0.00  0.00    +0.000 C 
ATOM     35  O   UNL     1       5.753   4.212  13.000  0.00  0.00    +0.000 OA
ENDBRANCH  28  35
ENDBRANCH  21  32
ENDBRANCH  20  26
ENDBRANCH   1  20
TORSDOF 10
ENDMDL
MODEL 4
REMARK VINA RESULT:      -8.3      1.263      1.630
REMARK  Name = 
REMARK  13 active torsions:
REMARK  status: ('A' for Active; 'I' for Inactive)
REMARK    1  A    between atoms: C_1  and  O_2
REMARK    2  A    between atoms: O_2  and  C_3
REMARK    3  A    between atoms: C_7  and  C_8
REMARK    4  A    between atoms: N_13  and  C_14
REMARK    5  A    between atoms: C_14  and  C_15
REMARK    6  A    between atoms: C_19  and  C_20
REMARK    7  A    between atoms: C_23  and  O_24
REMARK    8  A    between atoms: O_24  and  C_25
REMARK    9  A    between atoms: C_25  and  C_26
REMARK   10  A    between atoms: C_26  and  C_27
REMARK   11  A    between atoms: C_27  and  N_28
REMARK   12  A    between atoms: N_28  and  C_29
REMARK   13  A    between atoms: N_28  and  C_30
REMARK                            x       y       z     vdW  Elec       q    Type
REMARK                         _______ _______ _______ _____ _____    ______ ____
ROOT
ATOM      1  C   UNL     1       1.821   6.928  20.124  0.00  0.00    +0.000 A 
ATOM      2  C   UNL     1       2.301   7.373  18.885  0.00  0.00    +0.000 A 
ATOM      3  C   UNL     1       1.986   8.647  18.427  0.00  0.00    +0.000 A 
ATOM      4  C   UNL     1       1.191   9.488  19.210  0.00  0.00    +0.000 A 
ATOM      5  C   UNL     1       0.705   9.085  20.471  0.00  0.00    +0.000 A 
ATOM      6  C   UNL     1       1.048   7.797  20.912  0.00  0.00    +0.000 A 
ENDROOT
BRANCH   5   7
ATOM      7  C   UNL     1      -0.136   9.978  21.284  0.00  0.00    +0.000 A 
ATOM      8  N   UNL     1      -0.254   9.676  22.589  0.00  0.00    +0.000 NA
ATOM      9  C   UNL     1      -1.010  10.502  23.332  0.00  0.00    +0.000 A 
ATOM     10  C   UNL     1      -1.664  11.612  22.841  0.00  0.00    +0.000 A 
ATOM     11  C   UNL     1      -1.474  11.833  21.494  0.00  0.00    +0.000 A 
ATOM     12  N   UNL     1      -0.723  11.043  20.695  0.00  0.00    +0.000 NA
BRANCH  10  13
ATOM     13  O   UNL     1      -2.455  12.475  23.544  0.00  0.00    +0.000 OA
BRANCH  13  14
ATOM     14  C   UNL     1      -3.384  13.196  22.726  0.00  0.00    +0.000 C 
BRANCH  14  15
ATOM     15  C   UNL     1      -4.470  13.825  23.584  0.00  0.00    +0.000 C 
BRANCH  15  16
ATOM     16  C   UNL     1      -3.977  15.133  24.218  0.00  0.00    +0.000 C 
BRANCH  16  17
ATOM     17  N   UNL     1      -4.823  16.305  23.928  0.00  0.00    +0.000 NA
ATOM     18  C   UNL     1      -4.866  17.250  25.046  0.00  0.00    +0.000 C 
ATOM     19  C   UNL     1      -4.342  16.989  22.723  0.00  0.00    +0.000 C 
ENDBRANCH  16  17
ENDBRANCH  15  16
ENDBRANCH  14  15
ENDBRANCH  13  14
ENDBRANCH  10  13
ENDBRANCH   5   7
BRANCH   1  20
ATOM     20  C   UNL     1       2.143   5.541  20.629  0.00  0.00    +0.000 C 
BRANCH  20  26
ATOM     21  C   UNL     1       3.725   4.157  17.703  0.00  0.00    +0.000 A 
ATOM     22  C   UNL     1       2.885   2.987  17.354  0.00  0.00    +0.000 A 
ATOM     23  C   UNL     1       1.891   2.679  18.185  0.00  0.00    +0.000 A 
ATOM     24  C   UNL     1       1.612   3.507  19.373  0.00  0.00    +0.000 A 
ATOM     25  O   UNL     1       0.687   3.180  20.113  0.00  0.00    +0.000 OA
ATOM     26  N   UNL     1       2.425   4.616  19.542  0.00  0.00    +0.000 N 
ATOM     27  N   UNL     1       3.492   4.932  18.718  0.00  0.00    +0.000 NA
BRANCH  21  32
ATOM     28  C   UNL     1       6.890   5.715  16.274  0.00  0.00    +0.000 A 
ATOM     29  C   UNL     1       7.066   4.936  15.128  0.00  0.00    +0.000 A 
ATOM     30  C   UNL     1       6.153   3.927  14.809  0.00  0.00    +0.000 A 
ATOM     31  C   UNL     1       5.065   3.680  15.647  0.00  0.00    +0.000 A 
ATOM     32  C   UNL     1       4.890   4.439  16.809  0.00  0.00    +0.000 A 
ATOM     33  C   UNL     1       5.795   5.471  17.104  0.00  0.00    +0.000 A 
BRANCH  28  35
ATOM     34  C   UNL     1       7.563   7.660  17.469  0.00  0.00    +0.000 C 
ATOM     35  O   UNL     1       7.837   6.685  16.468  0.00  0.00    +0.000 OA
ENDBRANCH  28  35
ENDBRANCH  21  32
ENDBRANCH  20  26
ENDBRANCH   1  20
TORSDOF 10
ENDMDL
MODEL 5
REMARK VINA RESULT:      -8.3      0.830      1.246
REMARK  Name = 
REMARK  13 active torsions:
REMARK  status: ('A' for Active; 'I' for Inactive)
REMARK    1  A    between atoms: C_1  and  O_2
REMARK    2  A    between atoms: O_2  and  C_3
REMARK    3  A    between atoms: C_7  and  C_8
REMARK    4  A    between atoms: N_13  and  C_14
REMARK    5  A    between atoms: C_14  and  C_15
REMARK    6  A    between atoms: C_19  and  C_20
REMARK    7  A    between atoms: C_23  and  O_24
REMARK    8  A    between atoms: O_24  and  C_25
REMARK    9  A    between atoms: C_25  and  C_26
REMARK   10  A    between atoms: C_26  and  C_27
REMARK   11  A    between atoms: C_27  and  N_28
REMARK   12  A    between atoms: N_28  and  C_29
REMARK   13  A    between atoms: N_28  and  C_30
REMARK                            x       y       z     vdW  Elec       q    Type
REMARK                         _______ _______ _______ _____ _____    ______ ____
ROOT
ATOM      1  C   UNL     1       1.769   7.621  19.859  0.00  0.00    +0.000 A 
ATOM      2  C   UNL     1       2.285   7.913  18.589  0.00  0.00    +0.000 A 
ATOM      3  C   UNL     1       2.040   9.149  18.001  0.00  0.00    +0.000 A 
ATOM      4  C   UNL     1       1.281  10.103  18.682  0.00  0.00    +0.000 A 
ATOM      5  C   UNL     1       0.762   9.854  19.969  0.00  0.00    +0.000 A 
ATOM      6  C   UNL     1       1.034   8.602  20.543  0.00  0.00    +0.000 A 
ENDROOT
BRANCH   5   7
ATOM      7  C   UNL     1      -0.041  10.867  20.675  0.00  0.00    +0.000 A 
ATOM      8  N   UNL     1      -0.809  11.667  19.914  0.00  0.00    +0.000 NA
ATOM      9  C   UNL     1      -1.553  12.581  20.561  0.00  0.00    +0.000 A 
ATOM     10  C   UNL     1      -1.567  12.745  21.930  0.00  0.00    +0.000 A 
ATOM     11  C   UNL     1      -0.749  11.872  22.615  0.00  0.00    +0.000 A 
ATOM     12  N   UNL     1       0.019  10.930  22.022  0.00  0.00    +0.000 NA
BRANCH  10  13
ATOM     13  O   UNL     1      -2.287  13.663  22.638  0.00  0.00    +0.000 OA
BRANCH  13  14
ATOM     14  C   UNL     1      -3.605  13.880  22.121  0.00  0.00    +0.000 C 
BRANCH  14  15
ATOM     15  C   UNL     1      -4.630  13.109  22.937  0.00  0.00    +0.000 C 
BRANCH  15  16
ATOM     16  C   UNL     1      -5.789  12.633  22.051  0.00  0.00    +0.000 C 
BRANCH  16  17
ATOM     17  N   UNL     1      -7.111  13.151  22.452  0.00  0.00    +0.000 NA
ATOM     18  C   UNL     1      -7.836  13.750  21.330  0.00  0.00    +0.000 C 
ATOM     19  C   UNL     1      -7.916  12.077  23.042  0.00  0.00    +0.000 C 
ENDBRANCH  16  17
ENDBRANCH  15  16
ENDBRANCH  14  15
ENDBRANCH  13  14
ENDBRANCH  10  13
ENDBRANCH   5   7
BRANCH   1  20
ATOM     20  C   UNL     1       2.015   6.278  20.506  0.00  0.00    +0.000 C 
BRANCH  20  26
ATOM     21  C   UNL     1       3.626   4.561  17.779  0.00  0.00    +0.000 A 
ATOM     22  C   UNL     1       2.755   3.390  17.521  0.00  0.00    +0.000 A 
ATOM     23  C   UNL     1       1.729   3.198  18.347  0.00  0.00    +0.000 A 
ATOM     24  C   UNL     1       1.447   4.148  19.439  0.00  0.00    +0.000 A 
ATOM     25  O   UNL     1       0.491   3.926  20.180  0.00  0.00    +0.000 OA
ATOM     26  N   UNL     1       2.293   5.241  19.523  0.00  0.00    +0.000 N 
ATOM     27  N   UNL     1       3.392   5.440  18.705  0.00  0.00    +0.000 NA
BRANCH  21  32
ATOM     28  C   UNL     1       6.880   5.867  16.300  0.00  0.00    +0.000 A 
ATOM     29  C   UNL     1       7.060   4.974  15.242  0.00  0.00    +0.000 A 
ATOM     30  C   UNL     1       6.121   3.969  14.996  0.00  0.00    +0.000 A 
ATOM     31  C   UNL     1       5.003   3.841  15.820  0.00  0.00    +0.000 A 
ATOM     32  C   UNL     1       4.823   4.716  16.897  0.00  0.00    +0.000 A 
ATOM     33  C   UNL     1       5.756   5.742  17.117  0.00  0.00    +0.000 A 
BRANCH  28  35
ATOM     34  C   UNL     1       7.667   7.802  17.441  0.00  0.00    +0.000 C 
ATOM     35  O   UNL     1       7.856   6.821  16.427  0.00  0.00    +0.000 OA
ENDBRANCH  28  35
ENDBRANCH  21  32
ENDBRANCH  20  26
ENDBRANCH   1  20
TORSDOF 10
ENDMDL
MODEL 6
REMARK VINA RESULT:      -8.2      2.020      3.066
REMARK  Name = 
REMARK  13 active torsions:
REMARK  status: ('A' for Active; 'I' for Inactive)
REMARK    1  A    between atoms: C_1  and  O_2
REMARK    2  A    between atoms: O_2  and  C_3
REMARK    3  A    between atoms: C_7  and  C_8
REMARK    4  A    between atoms: N_13  and  C_14
REMARK    5  A    between atoms: C_14  and  C_15
REMARK    6  A    between atoms: C_19  and  C_20
REMARK    7  A    between atoms: C_23  and  O_24
REMARK    8  A    between atoms: O_24  and  C_25
REMARK    9  A    between atoms: C_25  and  C_26
REMARK   10  A    between atoms: C_26  and  C_27
REMARK   11  A    between atoms: C_27  and  N_28
REMARK   12  A    between atoms: N_28  and  C_29
REMARK   13  A    between atoms: N_28  and  C_30
REMARK                            x       y       z     vdW  Elec       q    Type
REMARK                         _______ _______ _______ _____ _____    ______ ____
ROOT
ATOM      1  C   UNL     1       2.073   6.454  20.183  0.00  0.00    +0.000 A 
ATOM      2  C   UNL     1       2.497   6.770  18.885  0.00  0.00    +0.000 A 
ATOM      3  C   UNL     1       2.234   8.025  18.348  0.00  0.00    +0.000 A 
ATOM      4  C   UNL     1       1.548   8.974  19.108  0.00  0.00    +0.000 A 
ATOM      5  C   UNL     1       1.122   8.702  20.425  0.00  0.00    +0.000 A 
ATOM      6  C   UNL     1       1.412   7.431  20.945  0.00  0.00    +0.000 A 
ENDROOT
BRANCH   5   7
ATOM      7  C   UNL     1       0.396   9.710  21.214  0.00  0.00    +0.000 A 
ATOM      8  N   UNL     1       0.258  10.928  20.659  0.00  0.00    +0.000 NA
ATOM      9  C   UNL     1      -0.419  11.842  21.375  0.00  0.00    +0.000 A 
ATOM     10  C   UNL     1      -0.961  11.610  22.622  0.00  0.00    +0.000 A 
ATOM     11  C   UNL     1      -0.767  10.330  23.095  0.00  0.00    +0.000 A 
ATOM     12  N   UNL     1      -0.099   9.366  22.422  0.00  0.00    +0.000 NA
BRANCH  10  13
ATOM     13  O   UNL     1      -1.642  12.502  23.398  0.00  0.00    +0.000 OA
BRANCH  13  14
ATOM     14  C   UNL     1      -1.848  13.771  22.768  0.00  0.00    +0.000 C 
BRANCH  14  15
ATOM     15  C   UNL     1      -0.978  14.835  23.417  0.00  0.00    +0.000 C 
BRANCH  15  16
ATOM     16  C   UNL     1      -0.059  15.497  22.382  0.00  0.00    +0.000 C 
BRANCH  16  17
ATOM     17  N   UNL     1       1.381  15.317  22.644  0.00  0.00    +0.000 NA
ATOM     18  C   UNL     1       2.065  14.631  21.546  0.00  0.00    +0.000 C 
ATOM     19  C   UNL     1       2.017  16.617  22.885  0.00  0.00    +0.000 C 
ENDBRANCH  16  17
ENDBRANCH  15  16
ENDBRANCH  14  15
ENDBRANCH  13  14
ENDBRANCH  10  13
ENDBRANCH   5   7
BRANCH   1  20
ATOM     20  C   UNL     1       2.340   5.091  20.776  0.00  0.00    +0.000 C 
BRANCH  20  26
ATOM     21  C   UNL     1       4.096   3.779  17.917  0.00  0.00    +0.000 A 
ATOM     22  C   UNL     1       3.534   2.419  17.737  0.00  0.00    +0.000 A 
ATOM     23  C   UNL     1       2.667   1.991  18.651  0.00  0.00    +0.000 A 
ATOM     24  C   UNL     1       2.246   2.862  19.764  0.00  0.00    +0.000 A 
ATOM     25  O   UNL     1       1.446   2.421  20.587  0.00  0.00    +0.000 OA
ATOM     26  N   UNL     1       2.789   4.137  19.773  0.00  0.00    +0.000 N 
ATOM     27  N   UNL     1       3.726   4.590  18.860  0.00  0.00    +0.000 NA
BRANCH  21  32
ATOM     28  C   UNL     1       6.910   5.731  16.256  0.00  0.00    +0.000 A 
ATOM     29  C   UNL     1       7.075   4.996  15.081  0.00  0.00    +0.000 A 
ATOM     30  C   UNL     1       6.265   3.888  14.818  0.00  0.00    +0.000 A 
ATOM     31  C   UNL     1       5.294   3.498  15.740  0.00  0.00    +0.000 A 
ATOM     32  C   UNL     1       5.133   4.214  16.932  0.00  0.00    +0.000 A 
ATOM     33  C   UNL     1       5.931   5.345  17.172  0.00  0.00    +0.000 A 
BRANCH  28  35
ATOM     34  C   UNL     1       7.644   7.554  17.598  0.00  0.00    +0.000 C 
ATOM     35  O   UNL     1       7.747   6.807  16.391  0.00  0.00    +0.000 OA
ENDBRANCH  28  35
ENDBRANCH  21  32
ENDBRANCH  20  26
ENDBRANCH   1  20
TORSDOF 10
ENDMDL
MODEL 7
REMARK VINA RESULT:      -8.2      1.614      2.308
REMARK  Name = 
REMARK  13 active torsions:
REMARK  status: ('A' for Active; 'I' for Inactive)
REMARK    1  A    between atoms: C_1  and  O_2
REMARK    2  A    between atoms: O_2  and  C_3
REMARK    3  A    between atoms: C_7  and  C_8
REMARK    4  A    between atoms: N_13  and  C_14
REMARK    5  A    between atoms: C_14  and  C_15
REMARK    6  A    between atoms: C_19  and  C_20
REMARK    7  A    between atoms: C_23  and  O_24
REMARK    8  A    between atoms: O_24  and  C_25
REMARK    9  A    between atoms: C_25  and  C_26
REMARK   10  A    between atoms: C_26  and  C_27
REMARK   11  A    between atoms: C_27  and  N_28
REMARK   12  A    between atoms: N_28  and  C_29
REMARK   13  A    between atoms: N_28  and  C_30
REMARK                            x       y       z     vdW  Elec       q    Type
REMARK                         _______ _______ _______ _____ _____    ______ ____
ROOT
ATOM      1  C   UNL     1       1.748   7.282  20.112  0.00  0.00    +0.000 A 
ATOM      2  C   UNL     1       2.274   7.718  18.888  0.00  0.00    +0.000 A 
ATOM      3  C   UNL     1       1.969   8.985  18.404  0.00  0.00    +0.000 A 
ATOM      4  C   UNL     1       1.138   9.828  19.146  0.00  0.00    +0.000 A 
ATOM      5  C   UNL     1       0.604   9.434  20.391  0.00  0.00    +0.000 A 
ATOM      6  C   UNL     1       0.939   8.154  20.859  0.00  0.00    +0.000 A 
ENDROOT
BRANCH   5   7
ATOM      7  C   UNL     1      -0.275  10.330  21.160  0.00  0.00    +0.000 A 
ATOM      8  N   UNL     1      -0.862  11.331  20.480  0.00  0.00    +0.000 NA
ATOM      9  C   UNL     1      -1.676  12.139  21.181  0.00  0.00    +0.000 A 
ATOM     10  C   UNL     1      -1.931  12.007  22.530  0.00  0.00    +0.000 A 
ATOM     11  C   UNL     1      -1.284  10.947  23.129  0.00  0.00    +0.000 A 
ATOM     12  N   UNL     1      -0.457  10.099  22.477  0.00  0.00    +0.000 NA
BRANCH  10  13
ATOM     13  O   UNL     1      -2.734  12.804  23.294  0.00  0.00    +0.000 OA
BRANCH  13  14
ATOM     14  C   UNL     1      -3.233  13.951  22.598  0.00  0.00    +0.000 C 
BRANCH  14  15
ATOM     15  C   UNL     1      -2.610  15.222  23.153  0.00  0.00    +0.000 C 
BRANCH  15  16
ATOM     16  C   UNL     1      -2.289  15.067  24.645  0.00  0.00    +0.000 C 
BRANCH  16  17
ATOM     17  N   UNL     1      -2.768  16.177  25.488  0.00  0.00    +0.000 NA
ATOM     18  C   UNL     1      -1.820  17.293  25.530  0.00  0.00    +0.000 C 
ATOM     19  C   UNL     1      -4.068  16.654  25.004  0.00  0.00    +0.000 C 
ENDBRANCH  16  17
ENDBRANCH  15  16
ENDBRANCH  14  15
ENDBRANCH  13  14
ENDBRANCH  10  13
ENDBRANCH   5   7
BRANCH   1  20
ATOM     20  C   UNL     1       2.060   5.904  20.644  0.00  0.00    +0.000 C 
BRANCH  20  26
ATOM     21  C   UNL     1       3.639   4.382  17.785  0.00  0.00    +0.000 A 
ATOM     22  C   UNL     1       2.731   3.270  17.416  0.00  0.00    +0.000 A 
ATOM     23  C   UNL     1       1.691   3.041  18.214  0.00  0.00    +0.000 A 
ATOM     24  C   UNL     1       1.431   3.899  19.386  0.00  0.00    +0.000 A 
ATOM     25  O   UNL     1       0.460   3.645  20.096  0.00  0.00    +0.000 OA
ATOM     26  N   UNL     1       2.313   4.950  19.574  0.00  0.00    +0.000 N 
ATOM     27  N   UNL     1       3.427   5.182  18.785  0.00  0.00    +0.000 NA
BRANCH  21  32
ATOM     28  C   UNL     1       6.838   5.836  16.322  0.00  0.00    +0.000 A 
ATOM     29  C   UNL     1       7.116   4.898  15.326  0.00  0.00    +0.000 A 
ATOM     30  C   UNL     1       6.260   3.814  15.115  0.00  0.00    +0.000 A 
ATOM     31  C   UNL     1       5.128   3.652  15.914  0.00  0.00    +0.000 A 
ATOM     32  C   UNL     1       4.851   4.573  16.930  0.00  0.00    +0.000 A 
ATOM     33  C   UNL     1       5.700   5.677  17.113  0.00  0.00    +0.000 A 
BRANCH  28  35
ATOM     34  C   UNL     1       7.758   7.588  17.645  0.00  0.00    +0.000 C 
ATOM     35  O   UNL     1       7.738   6.864  16.419  0.00  0.00    +0.000 OA
ENDBRANCH  28  35
ENDBRANCH  21  32
ENDBRANCH  20  26
ENDBRANCH   1  20
TORSDOF 10
ENDMDL
MODEL 8
REMARK VINA RESULT:      -8.2      1.670      1.979
REMARK  Name = 
REMARK  13 active torsions:
REMARK  status: ('A' for Active; 'I' for Inactive)
REMARK    1  A    between atoms: C_1  and  O_2
REMARK    2  A    between atoms: O_2  and  C_3
REMARK    3  A    between atoms: C_7  and  C_8
REMARK    4  A    between atoms: N_13  and  C_14
REMARK    5  A    between atoms: C_14  and  C_15
REMARK    6  A    between atoms: C_19  and  C_20
REMARK    7  A    between atoms: C_23  and  O_24
REMARK    8  A    between atoms: O_24  and  C_25
REMARK    9  A    between atoms: C_25  and  C_26
REMARK   10  A    between atoms: C_26  and  C_27
REMARK   11  A    between atoms: C_27  and  N_28
REMARK   12  A    between atoms: N_28  and  C_29
REMARK   13  A    between atoms: N_28  and  C_30
REMARK                            x       y       z     vdW  Elec       q    Type
REMARK                         _______ _______ _______ _____ _____    ______ ____
ROOT
ATOM      1  C   UNL     1       1.722   7.746  20.008  0.00  0.00    +0.000 A 
ATOM      2  C   UNL     1       1.947   7.975  18.644  0.00  0.00    +0.000 A 
ATOM      3  C   UNL     1       1.614   9.197  18.073  0.00  0.00    +0.000 A 
ATOM      4  C   UNL     1       1.057  10.203  18.866  0.00  0.00    +0.000 A 
ATOM      5  C   UNL     1       0.833  10.020  20.246  0.00  0.00    +0.000 A 
ATOM      6  C   UNL     1       1.189   8.779  20.797  0.00  0.00    +0.000 A 
ENDROOT
BRANCH   5   7
ATOM      7  C   UNL     1       0.240  11.087  21.069  0.00  0.00    +0.000 A 
ATOM      8  N   UNL     1      -0.691  10.712  21.965  0.00  0.00    +0.000 NA
ATOM      9  C   UNL     1      -1.220  11.686  22.725  0.00  0.00    +0.000 A 
ATOM     10  C   UNL     1      -0.875  13.018  22.637  0.00  0.00    +0.000 A 
ATOM     11  C   UNL     1       0.090  13.292  21.692  0.00  0.00    +0.000 A 
ATOM     12  N   UNL     1       0.663  12.358  20.900  0.00  0.00    +0.000 NA
BRANCH  10  13
ATOM     13  O   UNL     1      -1.389  14.048  23.370  0.00  0.00    +0.000 OA
BRANCH  13  14
ATOM     14  C   UNL     1      -2.682  13.772  23.920  0.00  0.00    +0.000 C 
BRANCH  14  15
ATOM     15  C   UNL     1      -2.967  14.691  25.097  0.00  0.00    +0.000 C 
BRANCH  15  16
ATOM     16  C   UNL     1      -3.305  16.108  24.615  0.00  0.00    +0.000 C 
BRANCH  16  17
ATOM     17  N   UNL     1      -4.635  16.590  25.032  0.00  0.00    +0.000 NA
ATOM     18  C   UNL     1      -4.644  18.029  25.306  0.00  0.00    +0.000 C 
ATOM     19  C   UNL     1      -5.631  16.278  24.002  0.00  0.00    +0.000 C 
ENDBRANCH  16  17
ENDBRANCH  15  16
ENDBRANCH  14  15
ENDBRANCH  13  14
ENDBRANCH  10  13
ENDBRANCH   5   7
BRANCH   1  20
ATOM     20  C   UNL     1       2.067   6.419  20.640  0.00  0.00    +0.000 C 
BRANCH  20  26
ATOM     21  C   UNL     1       3.614   4.678  17.892  0.00  0.00    +0.000 A 
ATOM     22  C   UNL     1       2.699   3.545  17.617  0.00  0.00    +0.000 A 
ATOM     23  C   UNL     1       1.665   3.381  18.440  0.00  0.00    +0.000 A 
ATOM     24  C   UNL     1       1.419   4.326  19.545  0.00  0.00    +0.000 A 
ATOM     25  O   UNL     1       0.454   4.132  20.282  0.00  0.00    +0.000 OA
ATOM     26  N   UNL     1       2.306   5.385  19.644  0.00  0.00    +0.000 N 
ATOM     27  N   UNL     1       3.413   5.553  18.830  0.00  0.00    +0.000 NA
BRANCH  21  32
ATOM     28  C   UNL     1       6.877   5.928  16.383  0.00  0.00    +0.000 A 
ATOM     29  C   UNL     1       7.066   4.992  15.365  0.00  0.00    +0.000 A 
ATOM     30  C   UNL     1       6.131   3.975  15.154  0.00  0.00    +0.000 A 
ATOM     31  C   UNL     1       5.007   3.879  15.975  0.00  0.00    +0.000 A 
ATOM     32  C   UNL     1       4.817   4.799  17.013  0.00  0.00    +0.000 A 
ATOM     33  C   UNL     1       5.747   5.835  17.196  0.00  0.00    +0.000 A 
BRANCH  28  35
ATOM     34  C   UNL     1       7.670   7.889  17.474  0.00  0.00    +0.000 C 
ATOM     35  O   UNL     1       7.849   6.888  16.477  0.00  0.00    +0.000 OA
ENDBRANCH  28  35
ENDBRANCH  21  32
ENDBRANCH  20  26
ENDBRANCH   1  20
TORSDOF 10
ENDMDL
MODEL 9
REMARK VINA RESULT:      -8.2      3.671      5.399
REMARK  Name = 
REMARK  13 active torsions:
REMARK  status: ('A' for Active; 'I' for Inactive)
REMARK    1  A    between atoms: C_1  and  O_2
REMARK    2  A    between atoms: O_2  and  C_3
REMARK    3  A    between atoms: C_7  and  C_8
REMARK    4  A    between atoms: N_13  and  C_14
REMARK    5  A    between atoms: C_14  and  C_15
REMARK    6  A    between atoms: C_19  and  C_20
REMARK    7  A    between atoms: C_23  and  O_24
REMARK    8  A    between atoms: O_24  and  C_25
REMARK    9  A    between atoms: C_25  and  C_26
REMARK   10  A    between atoms: C_26  and  C_27
REMARK   11  A    between atoms: C_27  and  N_28
REMARK   12  A    between atoms: N_28  and  C_29
REMARK   13  A    between atoms: N_28  and  C_30
REMARK                            x       y       z     vdW  Elec       q    Type
REMARK                         _______ _______ _______ _____ _____    ______ ____
ROOT
ATOM      1  C   UNL     1       3.699   3.954  19.469  0.00  0.00    +0.000 A 
ATOM      2  C   UNL     1       2.873   3.294  20.389  0.00  0.00    +0.000 A 
ATOM      3  C   UNL     1       1.804   3.961  20.976  0.00  0.00    +0.000 A 
ATOM      4  C   UNL     1       1.551   5.293  20.643  0.00  0.00    +0.000 A 
ATOM      5  C   UNL     1       2.347   5.987  19.708  0.00  0.00    +0.000 A 
ATOM      6  C   UNL     1       3.413   5.285  19.123  0.00  0.00    +0.000 A 
ENDROOT
BRANCH   5   7
ATOM      7  C   UNL     1       2.073   7.393  19.369  0.00  0.00    +0.000 A 
ATOM      8  N   UNL     1       2.350   7.777  18.110  0.00  0.00    +0.000 NA
ATOM      9  C   UNL     1       2.085   9.058  17.799  0.00  0.00    +0.000 A 
ATOM     10  C   UNL     1       1.564   9.981  18.680  0.00  0.00    +0.000 A 
ATOM     11  C   UNL     1       1.312   9.483  19.941  0.00  0.00    +0.000 A 
ATOM     12  N   UNL     1       1.553   8.206  20.313  0.00  0.00    +0.000 NA
BRANCH  10  13
ATOM     13  O   UNL     1       1.290  11.294  18.425  0.00  0.00    +0.000 OA
BRANCH  13  14
ATOM     14  C   UNL     1       0.018  11.722  18.925  0.00  0.00    +0.000 C 
BRANCH  14  15
ATOM     15  C   UNL     1      -0.361  13.068  18.330  0.00  0.00    +0.000 C 
BRANCH  15  16
ATOM     16  C   UNL     1      -0.626  14.099  19.436  0.00  0.00    +0.000 C 
BRANCH  16  17
ATOM     17  N   UNL     1       0.247  15.286  19.380  0.00  0.00    +0.000 NA
ATOM     18  C   UNL     1       1.561  14.984  18.809  0.00  0.00    +0.000 C 
ATOM     19  C   UNL     1      -0.396  16.350  18.601  0.00  0.00    +0.000 C 
ENDBRANCH  16  17
ENDBRANCH  15  16
ENDBRANCH  14  15
ENDBRANCH  13  14
ENDBRANCH  10  13
ENDBRANCH   5   7
BRANCH   1  20
ATOM     20  C   UNL     1       4.873   3.248  18.833  0.00  0.00    +0.000 C 
BRANCH  20  26
ATOM     21  C   UNL     1       6.610   4.724  16.043  0.00  0.00    +0.000 A 
ATOM     22  C   UNL     1       7.470   5.763  16.658  0.00  0.00    +0.000 A 
ATOM     23  C   UNL     1       7.339   5.968  17.967  0.00  0.00    +0.000 A 
ATOM     24  C   UNL     1       6.411   5.153  18.773  0.00  0.00    +0.000 A 
ATOM     25  O   UNL     1       6.321   5.382  19.977  0.00  0.00    +0.000 OA
ATOM     26  N   UNL     1       5.723   4.164  18.088  0.00  0.00    +0.000 N 
ATOM     27  N   UNL     1       5.809   3.960  16.721  0.00  0.00    +0.000 NA
BRANCH  21  32
ATOM     28  C   UNL     1       5.982   3.510  12.491  0.00  0.00    +0.000 A 
ATOM     29  C   UNL     1       6.894   4.296  11.785  0.00  0.00    +0.000 A 
ATOM     30  C   UNL     1       7.723   5.197  12.457  0.00  0.00    +0.000 A 
ATOM     31  C   UNL     1       7.632   5.330  13.843  0.00  0.00    +0.000 A 
ATOM     32  C   UNL     1       6.705   4.564  14.560  0.00  0.00    +0.000 A 
ATOM     33  C   UNL     1       5.899   3.638  13.878  0.00  0.00    +0.000 A 
BRANCH  28  35
ATOM     34  C   UNL     1       4.041   3.166  11.158  0.00  0.00    +0.000 C 
ATOM     35  O   UNL     1       5.241   2.650  11.725  0.00  0.00    +0.000 OA
ENDBRANCH  28  35
ENDBRANCH  21  32
ENDBRANCH  20  26
ENDBRANCH   1  20
TORSDOF 10
ENDMDL
