MODEL 1
REMARK VINA RESULT:      -7.7      0.000      0.000
REMARK  Name = 
REMARK  10 active torsions:
REMARK  status: ('A' for Active; 'I' for Inactive)
REMARK    1  A    between atoms: C_1  and  O_2
REMARK    2  A    between atoms: O_2  and  C_3
REMARK    3  A    between atoms: C_6  and  O_7
REMARK    4  A    between atoms: O_7  and  C_8
REMARK    5  A    between atoms: C_9  and  C_10
REMARK    6  A    between atoms: C_10  and  N_11
REMARK    7  A    between atoms: N_11  and  C_12
REMARK    8  A    between atoms: C_18  and  N_19
REMARK    9  A    between atoms: C_22  and  O_23
REMARK   10  A    between atoms: O_23  and  C_24
REMARK                            x       y       z     vdW  Elec       q    Type
REMARK                         _______ _______ _______ _____ _____    ______ ____
ROOT
ATOM      1  C   UNL     1       1.477  10.327  18.277  0.00  0.00    +0.000 A 
ATOM      2  N   UNL     1       2.477  11.148  17.771  0.00  0.00    +0.000 N 
ATOM      3  N   UNL     1       2.488  12.410  18.123  0.00  0.00    +0.000 NA
ATOM      4  C   UNL     1       1.600  12.434  19.102  0.00  0.00    +0.000 A 
ATOM      5  C   UNL     1       1.581  13.402  20.101  0.00  0.00    +0.000 A 
ATOM      6  C   UNL     1       0.634  13.186  21.083  0.00  0.00    +0.000 A 
ATOM      7  C   UNL     1      -0.428  12.251  20.875  0.00  0.00    +0.000 A 
ATOM      8  C   UNL     1      -0.588  11.294  19.755  0.00  0.00    +0.000 A 
ATOM      9  C   UNL     1       0.680  11.264  18.996  0.00  0.00    +0.000 A 
ATOM     10  H   UNL     1       3.285  10.839  17.253  0.00  0.00    +0.000 HD
ENDROOT
BRANCH   7  11
ATOM     11  N   UNL     1      -1.643  12.694  21.596  0.00  0.00    +0.000 N 
ATOM     12  O   UNL     1      -2.249  11.843  22.245  0.00  0.00    +0.000 OA
ATOM     13  O   UNL     1      -2.015  13.848  21.383  0.00  0.00    +0.000 OA
ENDBRANCH   7  11
BRANCH   1  14
ATOM     14  N   UNL     1       1.781   9.047  17.808  0.00  0.00    +0.000 N 
ATOM     15  H   UNL     1       1.151   8.729  17.060  0.00  0.00    +0.000 HD
BRANCH  14  16
ATOM     16  C   UNL     1       2.856   8.044  17.715  0.00  0.00    +0.000 C 
BRANCH  16  21
ATOM     17  C   UNL     1       1.796   4.398  18.535  0.00  0.00    +0.000 A 
ATOM     18  C   UNL     1       1.514   4.421  19.900  0.00  0.00    +0.000 A 
ATOM     19  C   UNL     1       1.695   5.609  20.612  0.00  0.00    +0.000 A 
ATOM     20  C   UNL     1       2.146   6.786  19.959  0.00  0.00    +0.000 A 
ATOM     21  C   UNL     1       2.445   6.795  18.573  0.00  0.00    +0.000 A 
ATOM     22  C   UNL     1       2.257   5.558  17.897  0.00  0.00    +0.000 A 
BRANCH  17  24
ATOM     23  C   UNL     1       1.929   2.037  18.545  0.00  0.00    +0.000 C 
ATOM     24  O   UNL     1       1.494   3.220  17.907  0.00  0.00    +0.000 OA
ENDBRANCH  17  24
BRANCH  20  25
ATOM     25  O   UNL     1       2.035   7.927  20.714  0.00  0.00    +0.000 OA
ATOM     26  C   UNL     1       0.738   8.176  21.246  0.00  0.00    +0.000 C 
ENDBRANCH  20  25
ENDBRANCH  16  21
ENDBRANCH  14  16
ENDBRANCH   1  14
BRANCH   8  27
ATOM     27  O   UNL     1      -1.755  11.880  19.088  0.00  0.00    +0.000 OA
BRANCH  27  28
ATOM     28  C   UNL     1      -2.534  11.202  18.187  0.00  0.00    +0.000 A 
ATOM     29  C   UNL     1      -3.862  11.649  18.017  0.00  0.00    +0.000 A 
ATOM     30  C   UNL     1      -4.578  11.341  16.853  0.00  0.00    +0.000 A 
ATOM     31  C   UNL     1      -3.967  10.584  15.859  0.00  0.00    +0.000 A 
ATOM     32  C   UNL     1      -2.678  10.084  16.065  0.00  0.00    +0.000 A 
ATOM     33  C   UNL     1      -1.964  10.378  17.231  0.00  0.00    +0.000 A 
ENDBRANCH  27  28
ENDBRANCH   8  27
TORSDOF 8
ENDMDL
MODEL 2
REMARK VINA RESULT:      -7.6      3.286      9.094
REMARK  Name = 
REMARK  10 active torsions:
REMARK  status: ('A' for Active; 'I' for Inactive)
REMARK    1  A    between atoms: C_1  and  O_2
REMARK    2  A    between atoms: O_2  and  C_3
REMARK    3  A    between atoms: C_6  and  O_7
REMARK    4  A    between atoms: O_7  and  C_8
REMARK    5  A    between atoms: C_9  and  C_10
REMARK    6  A    between atoms: C_10  and  N_11
REMARK    7  A    between atoms: N_11  and  C_12
REMARK    8  A    between atoms: C_18  and  N_19
REMARK    9  A    between atoms: C_22  and  O_23
REMARK   10  A    between atoms: O_23  and  C_24
REMARK                            x       y       z     vdW  Elec       q    Type
REMARK                         _______ _______ _______ _____ _____    ______ ____
ROOT
ATOM      1  C   UNL     1       2.517   5.913  18.636  0.00  0.00    +0.000 A 
ATOM      2  N   UNL     1       1.503   5.693  17.711  0.00  0.00    +0.000 N 
ATOM      3  N   UNL     1       1.255   4.463  17.337  0.00  0.00    +0.000 NA
ATOM      4  C   UNL     1       1.961   3.759  18.205  0.00  0.00    +0.000 A 
ATOM      5  C   UNL     1       1.680   2.438  18.535  0.00  0.00    +0.000 A 
ATOM      6  C   UNL     1       2.478   1.920  19.537  0.00  0.00    +0.000 A 
ATOM      7  C   UNL     1       3.683   2.588  19.924  0.00  0.00    +0.000 A 
ATOM      8  C   UNL     1       4.157   3.924  19.496  0.00  0.00    +0.000 A 
ATOM      9  C   UNL     1       3.045   4.600  18.794  0.00  0.00    +0.000 A 
ATOM     10  H   UNL     1       0.843   6.383  17.389  0.00  0.00    +0.000 HD
ENDROOT
BRANCH   7  11
ATOM     11  N   UNL     1       4.690   1.598  20.370  0.00  0.00    +0.000 N 
ATOM     12  O   UNL     1       5.267   1.829  21.431  0.00  0.00    +0.000 OA
ATOM     13  O   UNL     1       4.956   0.692  19.580  0.00  0.00    +0.000 OA
ENDBRANCH   7  11
BRANCH   1  14
ATOM     14  N   UNL     1       2.479   7.284  18.903  0.00  0.00    +0.000 N 
ATOM     15  H   UNL     1       2.898   7.533  19.809  0.00  0.00    +0.000 HD
BRANCH  14  16
ATOM     16  C   UNL     1       2.368   8.610  18.272  0.00  0.00    +0.000 C 
BRANCH  16  21
ATOM     17  C   UNL     1      -0.429  11.264  18.747  0.00  0.00    +0.000 A 
ATOM     18  C   UNL     1      -0.879  11.060  20.051  0.00  0.00    +0.000 A 
ATOM     19  C   UNL     1      -0.320  10.028  20.809  0.00  0.00    +0.000 A 
ATOM     20  C   UNL     1       0.704   9.204  20.273  0.00  0.00    +0.000 A 
ATOM     21  C   UNL     1       1.181   9.383  18.950  0.00  0.00    +0.000 A 
ATOM     22  C   UNL     1       0.570  10.438  18.215  0.00  0.00    +0.000 A 
BRANCH  17  24
ATOM     23  C   UNL     1      -0.361  13.602  18.403  0.00  0.00    +0.000 C 
ATOM     24  O   UNL     1      -0.965  12.357  18.121  0.00  0.00    +0.000 OA
ENDBRANCH  17  24
BRANCH  20  25
ATOM     25  O   UNL     1       1.331   8.410  21.200  0.00  0.00    +0.000 OA
ATOM     26  C   UNL     1       1.535   9.013  22.473  0.00  0.00    +0.000 C 
ENDBRANCH  20  25
ENDBRANCH  16  21
ENDBRANCH  14  16
ENDBRANCH   1  14
BRANCH   8  27
ATOM     27  O   UNL     1       5.319   3.535  18.692  0.00  0.00    +0.000 OA
BRANCH  27  28
ATOM     28  C   UNL     1       6.227   4.429  18.187  0.00  0.00    +0.000 A 
ATOM     29  C   UNL     1       6.133   4.739  16.813  0.00  0.00    +0.000 A 
ATOM     30  C   UNL     1       6.685   5.923  16.306  0.00  0.00    +0.000 A 
ATOM     31  C   UNL     1       7.334   6.796  17.173  0.00  0.00    +0.000 A 
ATOM     32  C   UNL     1       7.486   6.449  18.518  0.00  0.00    +0.000 A 
ATOM     33  C   UNL     1       6.948   5.263  19.027  0.00  0.00    +0.000 A 
ENDBRANCH  27  28
ENDBRANCH   8  27
TORSDOF 8
ENDMDL
MODEL 3
REMARK VINA RESULT:      -7.6      3.156      9.003
REMARK  Name = 
REMARK  10 active torsions:
REMARK  status: ('A' for Active; 'I' for Inactive)
REMARK    1  A    between atoms: C_1  and  O_2
REMARK    2  A    between atoms: O_2  and  C_3
REMARK    3  A    between atoms: C_6  and  O_7
REMARK    4  A    between atoms: O_7  and  C_8
REMARK    5  A    between atoms: C_9  and  C_10
REMARK    6  A    between atoms: C_10  and  N_11
REMARK    7  A    between atoms: N_11  and  C_12
REMARK    8  A    between atoms: C_18  and  N_19
REMARK    9  A    between atoms: C_22  and  O_23
REMARK   10  A    between atoms: O_23  and  C_24
REMARK                            x       y       z     vdW  Elec       q    Type
REMARK                         _______ _______ _______ _____ _____    ______ ____
ROOT
ATOM      1  C   UNL     1       2.405   6.024  19.411  0.00  0.00    +0.000 A 
ATOM      2  N   UNL     1       1.572   6.046  18.299  0.00  0.00    +0.000 N 
ATOM      3  N   UNL     1       1.517   4.980  17.539  0.00  0.00    +0.000 NA
ATOM      4  C   UNL     1       2.156   4.083  18.269  0.00  0.00    +0.000 A 
ATOM      5  C   UNL     1       1.972   2.711  18.137  0.00  0.00    +0.000 A 
ATOM      6  C   UNL     1       2.661   1.953  19.064  0.00  0.00    +0.000 A 
ATOM      7  C   UNL     1       3.715   2.534  19.837  0.00  0.00    +0.000 A 
ATOM      8  C   UNL     1       4.101   3.962  19.917  0.00  0.00    +0.000 A 
ATOM      9  C   UNL     1       3.042   4.759  19.262  0.00  0.00    +0.000 A 
ATOM     10  H   UNL     1       0.897   6.763  18.086  0.00  0.00    +0.000 HD
ENDROOT
BRANCH   7  11
ATOM     11  N   UNL     1       4.744   1.513  20.140  0.00  0.00    +0.000 N 
ATOM     12  O   UNL     1       4.902   0.617  19.313  0.00  0.00    +0.000 OA
ATOM     13  O   UNL     1       5.267   1.576  21.253  0.00  0.00    +0.000 OA
ENDBRANCH   7  11
BRANCH   1  14
ATOM     14  N   UNL     1       2.181   7.240  20.062  0.00  0.00    +0.000 N 
ATOM     15  H   UNL     1       1.957   8.010  19.417  0.00  0.00    +0.000 HD
BRANCH  14  16
ATOM     16  C   UNL     1       1.810   7.840  21.354  0.00  0.00    +0.000 C 
BRANCH  16  21
ATOM     17  C   UNL     1      -0.633  10.782  22.038  0.00  0.00    +0.000 A 
ATOM     18  C   UNL     1      -0.856  11.343  20.781  0.00  0.00    +0.000 A 
ATOM     19  C   UNL     1      -0.191  10.813  19.672  0.00  0.00    +0.000 A 
ATOM     20  C   UNL     1       0.689   9.708  19.812  0.00  0.00    +0.000 A 
ATOM     21  C   UNL     1       0.940   9.118  21.077  0.00  0.00    +0.000 A 
ATOM     22  C   UNL     1       0.250   9.703  22.175  0.00  0.00    +0.000 A 
BRANCH  17  24
ATOM     23  C   UNL     1      -1.432  12.713  23.144  0.00  0.00    +0.000 C 
ATOM     24  O   UNL     1      -1.402  11.304  23.042  0.00  0.00    +0.000 OA
ENDBRANCH  17  24
BRANCH  20  25
ATOM     25  O   UNL     1       1.068   9.136  18.624  0.00  0.00    +0.000 OA
ATOM     26  C   UNL     1       1.995   9.895  17.856  0.00  0.00    +0.000 C 
ENDBRANCH  20  25
ENDBRANCH  16  21
ENDBRANCH  14  16
ENDBRANCH   1  14
BRANCH   8  27
ATOM     27  O   UNL     1       5.407   3.908  19.251  0.00  0.00    +0.000 OA
BRANCH  27  28
ATOM     28  C   UNL     1       5.692   4.568  18.084  0.00  0.00    +0.000 A 
ATOM     29  C   UNL     1       5.415   3.894  16.876  0.00  0.00    +0.000 A 
ATOM     30  C   UNL     1       5.244   4.605  15.681  0.00  0.00    +0.000 A 
ATOM     31  C   UNL     1       5.355   5.991  15.693  0.00  0.00    +0.000 A 
ATOM     32  C   UNL     1       5.701   6.647  16.878  0.00  0.00    +0.000 A 
ATOM     33  C   UNL     1       5.884   5.940  18.071  0.00  0.00    +0.000 A 
ENDBRANCH  27  28
ENDBRANCH   8  27
TORSDOF 8
ENDMDL
MODEL 4
REMARK VINA RESULT:      -7.5      3.290      8.958
REMARK  Name = 
REMARK  10 active torsions:
REMARK  status: ('A' for Active; 'I' for Inactive)
REMARK    1  A    between atoms: C_1  and  O_2
REMARK    2  A    between atoms: O_2  and  C_3
REMARK    3  A    between atoms: C_6  and  O_7
REMARK    4  A    between atoms: O_7  and  C_8
REMARK    5  A    between atoms: C_9  and  C_10
REMARK    6  A    between atoms: C_10  and  N_11
REMARK    7  A    between atoms: N_11  and  C_12
REMARK    8  A    between atoms: C_18  and  N_19
REMARK    9  A    between atoms: C_22  and  O_23
REMARK   10  A    between atoms: O_23  and  C_24
REMARK                            x       y       z     vdW  Elec       q    Type
REMARK                         _______ _______ _______ _____ _____    ______ ____
ROOT
ATOM      1  C   UNL     1       2.486   5.915  18.642  0.00  0.00    +0.000 A 
ATOM      2  N   UNL     1       1.498   5.657  17.699  0.00  0.00    +0.000 N 
ATOM      3  N   UNL     1       1.311   4.419  17.313  0.00  0.00    +0.000 NA
ATOM      4  C   UNL     1       2.033   3.741  18.188  0.00  0.00    +0.000 A 
ATOM      5  C   UNL     1       1.806   2.407  18.505  0.00  0.00    +0.000 A 
ATOM      6  C   UNL     1       2.609   1.917  19.517  0.00  0.00    +0.000 A 
ATOM      7  C   UNL     1       3.776   2.635  19.928  0.00  0.00    +0.000 A 
ATOM      8  C   UNL     1       4.197   3.994  19.517  0.00  0.00    +0.000 A 
ATOM      9  C   UNL     1       3.068   4.625  18.800  0.00  0.00    +0.000 A 
ATOM     10  H   UNL     1       0.813   6.319  17.370  0.00  0.00    +0.000 HD
ENDROOT
BRANCH   7  11
ATOM     11  N   UNL     1       4.819   1.688  20.386  0.00  0.00    +0.000 N 
ATOM     12  O   UNL     1       5.112   0.770  19.622  0.00  0.00    +0.000 OA
ATOM     13  O   UNL     1       5.213   1.825  21.544  0.00  0.00    +0.000 OA
ENDBRANCH   7  11
BRANCH   1  14
ATOM     14  N   UNL     1       2.383   7.281  18.917  0.00  0.00    +0.000 N 
ATOM     15  H   UNL     1       2.691   7.528  19.867  0.00  0.00    +0.000 HD
BRANCH  14  16
ATOM     16  C   UNL     1       2.309   8.612  18.291  0.00  0.00    +0.000 C 
BRANCH  16  21
ATOM     17  C   UNL     1      -1.046  10.565  18.144  0.00  0.00    +0.000 A 
ATOM     18  C   UNL     1      -1.347  10.831  19.479  0.00  0.00    +0.000 A 
ATOM     19  C   UNL     1      -0.496  10.351  20.477  0.00  0.00    +0.000 A 
ATOM     20  C   UNL     1       0.672   9.616  20.145  0.00  0.00    +0.000 A 
ATOM     21  C   UNL     1       1.006   9.326  18.798  0.00  0.00    +0.000 A 
ATOM     22  C   UNL     1       0.099   9.824  17.821  0.00  0.00    +0.000 A 
BRANCH  17  24
ATOM     23  C   UNL     1      -3.027  10.420  16.862  0.00  0.00    +0.000 C 
ATOM     24  O   UNL     1      -1.883  11.159  17.239  0.00  0.00    +0.000 OA
ENDBRANCH  17  24
BRANCH  20  25
ATOM     25  O   UNL     1       1.539   9.432  21.193  0.00  0.00    +0.000 OA
ATOM     26  C   UNL     1       0.924   9.126  22.440  0.00  0.00    +0.000 C 
ENDBRANCH  20  25
ENDBRANCH  16  21
ENDBRANCH  14  16
ENDBRANCH   1  14
BRANCH   8  27
ATOM     27  O   UNL     1       5.389   3.662  18.731  0.00  0.00    +0.000 OA
BRANCH  27  28
ATOM     28  C   UNL     1       6.247   4.601  18.218  0.00  0.00    +0.000 A 
ATOM     29  C   UNL     1       5.894   5.195  16.987  0.00  0.00    +0.000 A 
ATOM     30  C   UNL     1       6.429   6.433  16.608  0.00  0.00    +0.000 A 
ATOM     31  C   UNL     1       7.321   7.077  17.460  0.00  0.00    +0.000 A 
ATOM     32  C   UNL     1       7.722   6.450  18.644  0.00  0.00    +0.000 A 
ATOM     33  C   UNL     1       7.199   5.209  19.020  0.00  0.00    +0.000 A 
ENDBRANCH  27  28
ENDBRANCH   8  27
TORSDOF 8
ENDMDL
MODEL 5
REMARK VINA RESULT:      -7.5      3.158      8.927
REMARK  Name = 
REMARK  10 active torsions:
REMARK  status: ('A' for Active; 'I' for Inactive)
REMARK    1  A    between atoms: C_1  and  O_2
REMARK    2  A    between atoms: O_2  and  C_3
REMARK    3  A    between atoms: C_6  and  O_7
REMARK    4  A    between atoms: O_7  and  C_8
REMARK    5  A    between atoms: C_9  and  C_10
REMARK    6  A    between atoms: C_10  and  N_11
REMARK    7  A    between atoms: N_11  and  C_12
REMARK    8  A    between atoms: C_18  and  N_19
REMARK    9  A    between atoms: C_22  and  O_23
REMARK   10  A    between atoms: O_23  and  C_24
REMARK                            x       y       z     vdW  Elec       q    Type
REMARK                         _______ _______ _______ _____ _____    ______ ____
ROOT
ATOM      1  C   UNL     1       2.476   5.891  18.680  0.00  0.00    +0.000 A 
ATOM      2  N   UNL     1       1.494   5.640  17.729  0.00  0.00    +0.000 N 
ATOM      3  N   UNL     1       1.312   4.406  17.329  0.00  0.00    +0.000 NA
ATOM      4  C   UNL     1       2.031   3.721  18.201  0.00  0.00    +0.000 A 
ATOM      5  C   UNL     1       1.806   2.383  18.503  0.00  0.00    +0.000 A 
ATOM      6  C   UNL     1       2.605   1.885  19.513  0.00  0.00    +0.000 A 
ATOM      7  C   UNL     1       3.769   2.601  19.938  0.00  0.00    +0.000 A 
ATOM      8  C   UNL     1       4.189   3.965  19.543  0.00  0.00    +0.000 A 
ATOM      9  C   UNL     1       3.061   4.601  18.827  0.00  0.00    +0.000 A 
ATOM     10  H   UNL     1       0.809   6.304  17.404  0.00  0.00    +0.000 HD
ENDROOT
BRANCH   7  11
ATOM     11  N   UNL     1       4.811   1.652  20.390  0.00  0.00    +0.000 N 
ATOM     12  O   UNL     1       5.111   0.742  19.619  0.00  0.00    +0.000 OA
ATOM     13  O   UNL     1       5.200   1.778  21.552  0.00  0.00    +0.000 OA
ENDBRANCH   7  11
BRANCH   1  14
ATOM     14  N   UNL     1       2.369   7.254  18.968  0.00  0.00    +0.000 N 
ATOM     15  H   UNL     1       2.689   7.495  19.916  0.00  0.00    +0.000 HD
BRANCH  14  16
ATOM     16  C   UNL     1       2.277   8.590  18.356  0.00  0.00    +0.000 C 
BRANCH  16  21
ATOM     17  C   UNL     1      -0.530  11.230  18.847  0.00  0.00    +0.000 A 
ATOM     18  C   UNL     1      -0.925  11.070  20.174  0.00  0.00    +0.000 A 
ATOM     19  C   UNL     1      -0.323  10.073  20.947  0.00  0.00    +0.000 A 
ATOM     20  C   UNL     1       0.688   9.241  20.400  0.00  0.00    +0.000 A 
ATOM     21  C   UNL     1       1.109   9.375  19.052  0.00  0.00    +0.000 A 
ATOM     22  C   UNL     1       0.456  10.394  18.305  0.00  0.00    +0.000 A 
BRANCH  17  24
ATOM     23  C   UNL     1      -0.354  13.489  18.171  0.00  0.00    +0.000 C 
ATOM     24  O   UNL     1      -1.104  12.292  18.203  0.00  0.00    +0.000 OA
ENDBRANCH  17  24
BRANCH  20  25
ATOM     25  O   UNL     1       1.363   8.489  21.329  0.00  0.00    +0.000 OA
ATOM     26  C   UNL     1       1.479   9.082  22.617  0.00  0.00    +0.000 C 
ENDBRANCH  20  25
ENDBRANCH  16  21
ENDBRANCH  14  16
ENDBRANCH   1  14
BRANCH   8  27
ATOM     27  O   UNL     1       5.385   3.644  18.759  0.00  0.00    +0.000 OA
BRANCH  27  28
ATOM     28  C   UNL     1       5.753   4.321  17.624  0.00  0.00    +0.000 A 
ATOM     29  C   UNL     1       5.457   3.714  16.385  0.00  0.00    +0.000 A 
ATOM     30  C   UNL     1       5.376   4.478  15.214  0.00  0.00    +0.000 A 
ATOM     31  C   UNL     1       5.595   5.850  15.281  0.00  0.00    +0.000 A 
ATOM     32  C   UNL     1       5.959   6.434  16.498  0.00  0.00    +0.000 A 
ATOM     33  C   UNL     1       6.053   5.673  17.668  0.00  0.00    +0.000 A 
ENDBRANCH  27  28
ENDBRANCH   8  27
TORSDOF 8
ENDMDL
MODEL 6
REMARK VINA RESULT:      -7.5      3.300      8.989
REMARK  Name = 
REMARK  10 active torsions:
REMARK  status: ('A' for Active; 'I' for Inactive)
REMARK    1  A    between atoms: C_1  and  O_2
REMARK    2  A    between atoms: O_2  and  C_3
REMARK    3  A    between atoms: C_6  and  O_7
REMARK    4  A    between atoms: O_7  and  C_8
REMARK    5  A    between atoms: C_9  and  C_10
REMARK    6  A    between atoms: C_10  and  N_11
REMARK    7  A    between atoms: N_11  and  C_12
REMARK    8  A    between atoms: C_18  and  N_19
REMARK    9  A    between atoms: C_22  and  O_23
REMARK   10  A    between atoms: O_23  and  C_24
REMARK                            x       y       z     vdW  Elec       q    Type
REMARK                         _______ _______ _______ _____ _____    ______ ____
ROOT
ATOM      1  C   UNL     1       2.380   5.895  18.667  0.00  0.00    +0.000 A 
ATOM      2  N   UNL     1       1.403   5.653  17.709  0.00  0.00    +0.000 N 
ATOM      3  N   UNL     1       1.226   4.423  17.295  0.00  0.00    +0.000 NA
ATOM      4  C   UNL     1       1.942   3.730  18.163  0.00  0.00    +0.000 A 
ATOM      5  C   UNL     1       1.718   2.388  18.449  0.00  0.00    +0.000 A 
ATOM      6  C   UNL     1       2.513   1.881  19.458  0.00  0.00    +0.000 A 
ATOM      7  C   UNL     1       3.673   2.594  19.896  0.00  0.00    +0.000 A 
ATOM      8  C   UNL     1       4.092   3.964  19.518  0.00  0.00    +0.000 A 
ATOM      9  C   UNL     1       2.967   4.605  18.804  0.00  0.00    +0.000 A 
ATOM     10  H   UNL     1       0.718   6.319  17.387  0.00  0.00    +0.000 HD
ENDROOT
BRANCH   7  11
ATOM     11  N   UNL     1       4.715   1.643  20.344  0.00  0.00    +0.000 N 
ATOM     12  O   UNL     1       5.325   1.926  21.374  0.00  0.00    +0.000 OA
ATOM     13  O   UNL     1       4.972   0.712  19.580  0.00  0.00    +0.000 OA
ENDBRANCH   7  11
BRANCH   1  14
ATOM     14  N   UNL     1       2.268   7.254  18.970  0.00  0.00    +0.000 N 
ATOM     15  H   UNL     1       2.500   7.473  19.948  0.00  0.00    +0.000 HD
BRANCH  14  16
ATOM     16  C   UNL     1       2.257   8.602  18.377  0.00  0.00    +0.000 C 
BRANCH  16  21
ATOM     17  C   UNL     1      -1.023  10.679  18.241  0.00  0.00    +0.000 A 
ATOM     18  C   UNL     1      -1.320  10.940  19.578  0.00  0.00    +0.000 A 
ATOM     19  C   UNL     1      -0.490  10.419  20.573  0.00  0.00    +0.000 A 
ATOM     20  C   UNL     1       0.651   9.645  20.236  0.00  0.00    +0.000 A 
ATOM     21  C   UNL     1       0.979   9.358  18.887  0.00  0.00    +0.000 A 
ATOM     22  C   UNL     1       0.094   9.900  17.913  0.00  0.00    +0.000 A 
BRANCH  17  24
ATOM     23  C   UNL     1      -2.527  10.487  16.427  0.00  0.00    +0.000 C 
ATOM     24  O   UNL     1      -1.835  11.313  17.340  0.00  0.00    +0.000 OA
ENDBRANCH  17  24
BRANCH  20  25
ATOM     25  O   UNL     1       1.507   9.417  21.285  0.00  0.00    +0.000 OA
ATOM     26  C   UNL     1       0.876   9.182  22.539  0.00  0.00    +0.000 C 
ENDBRANCH  20  25
ENDBRANCH  16  21
ENDBRANCH  14  16
ENDBRANCH   1  14
BRANCH   8  27
ATOM     27  O   UNL     1       5.293   3.654  18.737  0.00  0.00    +0.000 OA
BRANCH  27  28
ATOM     28  C   UNL     1       5.601   4.260  17.546  0.00  0.00    +0.000 A 
ATOM     29  C   UNL     1       6.589   5.267  17.570  0.00  0.00    +0.000 A 
ATOM     30  C   UNL     1       7.280   5.621  16.404  0.00  0.00    +0.000 A 
ATOM     31  C   UNL     1       6.981   4.969  15.212  0.00  0.00    +0.000 A 
ATOM     32  C   UNL     1       5.952   4.024  15.180  0.00  0.00    +0.000 A 
ATOM     33  C   UNL     1       5.251   3.676  16.339  0.00  0.00    +0.000 A 
ENDBRANCH  27  28
ENDBRANCH   8  27
TORSDOF 8
ENDMDL
MODEL 7
REMARK VINA RESULT:      -7.4      3.114      8.601
REMARK  Name = 
REMARK  10 active torsions:
REMARK  status: ('A' for Active; 'I' for Inactive)
REMARK    1  A    between atoms: C_1  and  O_2
REMARK    2  A    between atoms: O_2  and  C_3
REMARK    3  A    between atoms: C_6  and  O_7
REMARK    4  A    between atoms: O_7  and  C_8
REMARK    5  A    between atoms: C_9  and  C_10
REMARK    6  A    between atoms: C_10  and  N_11
REMARK    7  A    between atoms: N_11  and  C_12
REMARK    8  A    between atoms: C_18  and  N_19
REMARK    9  A    between atoms: C_22  and  O_23
REMARK   10  A    between atoms: O_23  and  C_24
REMARK                            x       y       z     vdW  Elec       q    Type
REMARK                         _______ _______ _______ _____ _____    ______ ____
ROOT
ATOM      1  C   UNL     1       2.888   7.003  18.362  0.00  0.00    +0.000 A 
ATOM      2  N   UNL     1       2.733   6.671  19.702  0.00  0.00    +0.000 N 
ATOM      3  N   UNL     1       3.580   5.828  20.240  0.00  0.00    +0.000 NA
ATOM      4  C   UNL     1       4.513   5.739  19.309  0.00  0.00    +0.000 A 
ATOM      5  C   UNL     1       5.825   5.357  19.567  0.00  0.00    +0.000 A 
ATOM      6  C   UNL     1       6.664   5.426  18.472  0.00  0.00    +0.000 A 
ATOM      7  C   UNL     1       6.126   5.545  17.152  0.00  0.00    +0.000 A 
ATOM      8  C   UNL     1       4.716   5.782  16.764  0.00  0.00    +0.000 A 
ATOM      9  C   UNL     1       3.964   6.150  17.983  0.00  0.00    +0.000 A 
ATOM     10  H   UNL     1       2.101   7.117  20.349  0.00  0.00    +0.000 HD
ENDROOT
BRANCH   7  11
ATOM     11  N   UNL     1       7.014   4.867  16.179  0.00  0.00    +0.000 N 
ATOM     12  O   UNL     1       7.844   4.083  16.634  0.00  0.00    +0.000 OA
ATOM     13  O   UNL     1       6.931   5.241  15.009  0.00  0.00    +0.000 OA
ENDBRANCH   7  11
BRANCH   1  14
ATOM     14  N   UNL     1       1.915   7.973  18.109  0.00  0.00    +0.000 N 
ATOM     15  H   UNL     1       1.009   7.763  18.550  0.00  0.00    +0.000 HD
BRANCH  14  16
ATOM     16  C   UNL     1       1.718   9.379  17.719  0.00  0.00    +0.000 C 
BRANCH  16  21
ATOM     17  C   UNL     1       0.151  10.638  21.043  0.00  0.00    +0.000 A 
ATOM     18  C   UNL     1      -1.151  10.995  20.696  0.00  0.00    +0.000 A 
ATOM     19  C   UNL     1      -1.556  10.879  19.364  0.00  0.00    +0.000 A 
ATOM     20  C   UNL     1      -0.664  10.390  18.374  0.00  0.00    +0.000 A 
ATOM     21  C   UNL     1       0.667  10.021  18.693  0.00  0.00    +0.000 A 
ATOM     22  C   UNL     1       1.034  10.172  20.060  0.00  0.00    +0.000 A 
BRANCH  17  24
ATOM     23  C   UNL     1      -0.164   9.687  23.185  0.00  0.00    +0.000 C 
ATOM     24  O   UNL     1       0.421  10.693  22.384  0.00  0.00    +0.000 OA
ENDBRANCH  17  24
BRANCH  20  25
ATOM     25  O   UNL     1      -1.263  10.089  17.176  0.00  0.00    +0.000 OA
ATOM     26  C   UNL     1      -2.405  10.876  16.857  0.00  0.00    +0.000 C 
ENDBRANCH  20  25
ENDBRANCH  16  21
ENDBRANCH  14  16
ENDBRANCH   1  14
BRANCH   8  27
ATOM     27  O   UNL     1       4.403   4.490  16.148  0.00  0.00    +0.000 OA
BRANCH  27  28
ATOM     28  C   UNL     1       3.649   3.520  16.757  0.00  0.00    +0.000 A 
ATOM     29  C   UNL     1       4.342   2.500  17.444  0.00  0.00    +0.000 A 
ATOM     30  C   UNL     1       3.706   1.748  18.440  0.00  0.00    +0.000 A 
ATOM     31  C   UNL     1       2.376   2.014  18.749  0.00  0.00    +0.000 A 
ATOM     32  C   UNL     1       1.675   2.976  18.016  0.00  0.00    +0.000 A 
ATOM     33  C   UNL     1       2.302   3.721  17.012  0.00  0.00    +0.000 A 
ENDBRANCH  27  28
ENDBRANCH   8  27
TORSDOF 8
ENDMDL
MODEL 8
REMARK VINA RESULT:      -7.4      3.288      9.244
REMARK  Name = 
REMARK  10 active torsions:
REMARK  status: ('A' for Active; 'I' for Inactive)
REMARK    1  A    between atoms: C_1  and  O_2
REMARK    2  A    between atoms: O_2  and  C_3
REMARK    3  A    between atoms: C_6  and  O_7
REMARK    4  A    between atoms: O_7  and  C_8
REMARK    5  A    between atoms: C_9  and  C_10
REMARK    6  A    between atoms: C_10  and  N_11
REMARK    7  A    between atoms: N_11  and  C_12
REMARK    8  A    between atoms: C_18  and  N_19
REMARK    9  A    between atoms: C_22  and  O_23
REMARK   10  A    between atoms: O_23  and  C_24
REMARK                            x       y       z     vdW  Elec       q    Type
REMARK                         _______ _______ _______ _____ _____    ______ ____
ROOT
ATOM      1  C   UNL     1       2.279   5.987  19.644  0.00  0.00    +0.000 A 
ATOM      2  N   UNL     1       1.479   6.051  18.509  0.00  0.00    +0.000 N 
ATOM      3  N   UNL     1       1.489   5.037  17.680  0.00  0.00    +0.000 NA
ATOM      4  C   UNL     1       2.141   4.118  18.370  0.00  0.00    +0.000 A 
ATOM      5  C   UNL     1       2.016   2.751  18.143  0.00  0.00    +0.000 A 
ATOM      6  C   UNL     1       2.707   1.960  19.040  0.00  0.00    +0.000 A 
ATOM      7  C   UNL     1       3.714   2.528  19.884  0.00  0.00    +0.000 A 
ATOM      8  C   UNL     1       4.040   3.961  20.068  0.00  0.00    +0.000 A 
ATOM      9  C   UNL     1       2.969   4.759  19.433  0.00  0.00    +0.000 A 
ATOM     10  H   UNL     1       0.783   6.755  18.321  0.00  0.00    +0.000 HD
ENDROOT
BRANCH   7  11
ATOM     11  N   UNL     1       4.773   1.529  20.152  0.00  0.00    +0.000 N 
ATOM     12  O   UNL     1       4.949   0.659  19.301  0.00  0.00    +0.000 OA
ATOM     13  O   UNL     1       5.303   1.578  21.262  0.00  0.00    +0.000 OA
ENDBRANCH   7  11
BRANCH   1  14
ATOM     14  N   UNL     1       1.987   7.148  20.364  0.00  0.00    +0.000 N 
ATOM     15  H   UNL     1       2.404   7.995  19.956  0.00  0.00    +0.000 HD
BRANCH  14  16
ATOM     16  C   UNL     1       1.041   7.737  21.326  0.00  0.00    +0.000 C 
BRANCH  16  21
ATOM     17  C   UNL     1       0.017  11.466  21.701  0.00  0.00    +0.000 A 
ATOM     18  C   UNL     1       0.128  11.984  20.412  0.00  0.00    +0.000 A 
ATOM     19  C   UNL     1       0.578  11.154  19.382  0.00  0.00    +0.000 A 
ATOM     20  C   UNL     1       0.904   9.796  19.633  0.00  0.00    +0.000 A 
ATOM     21  C   UNL     1       0.806   9.239  20.933  0.00  0.00    +0.000 A 
ATOM     22  C   UNL     1       0.357  10.129  21.949  0.00  0.00    +0.000 A 
BRANCH  17  24
ATOM     23  C   UNL     1      -0.402  13.704  22.338  0.00  0.00    +0.000 C 
ATOM     24  O   UNL     1      -0.524  12.325  22.619  0.00  0.00    +0.000 OA
ENDBRANCH  17  24
BRANCH  20  25
ATOM     25  O   UNL     1       1.083   9.041  18.501  0.00  0.00    +0.000 OA
ATOM     26  C   UNL     1       2.172   9.438  17.675  0.00  0.00    +0.000 C 
ENDBRANCH  20  25
ENDBRANCH  16  21
ENDBRANCH  14  16
ENDBRANCH   1  14
BRANCH   8  27
ATOM     27  O   UNL     1       5.366   4.001  19.442  0.00  0.00    +0.000 OA
BRANCH  27  28
ATOM     28  C   UNL     1       5.912   5.131  18.891  0.00  0.00    +0.000 A 
ATOM     29  C   UNL     1       7.115   5.607  19.454  0.00  0.00    +0.000 A 
ATOM     30  C   UNL     1       7.967   6.445  18.722  0.00  0.00    +0.000 A 
ATOM     31  C   UNL     1       7.613   6.810  17.427  0.00  0.00    +0.000 A 
ATOM     32  C   UNL     1       6.386   6.394  16.902  0.00  0.00    +0.000 A 
ATOM     33  C   UNL     1       5.527   5.567  17.634  0.00  0.00    +0.000 A 
ENDBRANCH  27  28
ENDBRANCH   8  27
TORSDOF 8
ENDMDL
MODEL 9
REMARK VINA RESULT:      -7.4      3.277      8.916
REMARK  Name = 
REMARK  10 active torsions:
REMARK  status: ('A' for Active; 'I' for Inactive)
REMARK    1  A    between atoms: C_1  and  O_2
REMARK    2  A    between atoms: O_2  and  C_3
REMARK    3  A    between atoms: C_6  and  O_7
REMARK    4  A    between atoms: O_7  and  C_8
REMARK    5  A    between atoms: C_9  and  C_10
REMARK    6  A    between atoms: C_10  and  N_11
REMARK    7  A    between atoms: N_11  and  C_12
REMARK    8  A    between atoms: C_18  and  N_19
REMARK    9  A    between atoms: C_22  and  O_23
REMARK   10  A    between atoms: O_23  and  C_24
REMARK                            x       y       z     vdW  Elec       q    Type
REMARK                         _______ _______ _______ _____ _____    ______ ____
ROOT
ATOM      1  C   UNL     1       2.376   5.766  18.657  0.00  0.00    +0.000 A 
ATOM      2  N   UNL     1       1.424   5.468  17.689  0.00  0.00    +0.000 N 
ATOM      3  N   UNL     1       1.303   4.226  17.292  0.00  0.00    +0.000 NA
ATOM      4  C   UNL     1       2.035   3.577  18.181  0.00  0.00    +0.000 A 
ATOM      5  C   UNL     1       1.862   2.231  18.486  0.00  0.00    +0.000 A 
ATOM      6  C   UNL     1       2.663   1.773  19.514  0.00  0.00    +0.000 A 
ATOM      7  C   UNL     1       3.786   2.541  19.957  0.00  0.00    +0.000 A 
ATOM      8  C   UNL     1       4.153   3.921  19.563  0.00  0.00    +0.000 A 
ATOM      9  C   UNL     1       3.014   4.504  18.822  0.00  0.00    +0.000 A 
ATOM     10  H   UNL     1       0.717   6.101  17.348  0.00  0.00    +0.000 HD
ENDROOT
BRANCH   7  11
ATOM     11  N   UNL     1       4.860   1.641  20.434  0.00  0.00    +0.000 N 
ATOM     12  O   UNL     1       5.162   0.697  19.706  0.00  0.00    +0.000 OA
ATOM     13  O   UNL     1       5.273   1.838  21.577  0.00  0.00    +0.000 OA
ENDBRANCH   7  11
BRANCH   1  14
ATOM     14  N   UNL     1       2.203   7.124  18.936  0.00  0.00    +0.000 N 
ATOM     15  H   UNL     1       2.413   7.367  19.914  0.00  0.00    +0.000 HD
BRANCH  14  16
ATOM     16  C   UNL     1       2.145   8.461  18.321  0.00  0.00    +0.000 C 
BRANCH  16  21
ATOM     17  C   UNL     1       0.569  10.110  21.466  0.00  0.00    +0.000 A 
ATOM     18  C   UNL     1      -0.547  10.786  20.976  0.00  0.00    +0.000 A 
ATOM     19  C   UNL     1      -0.807  10.765  19.604  0.00  0.00    +0.000 A 
ATOM     20  C   UNL     1       0.040  10.055  18.714  0.00  0.00    +0.000 A 
ATOM     21  C   UNL     1       1.186   9.360  19.179  0.00  0.00    +0.000 A 
ATOM     22  C   UNL     1       1.414   9.424  20.582  0.00  0.00    +0.000 A 
BRANCH  17  24
ATOM     23  C   UNL     1      -0.470   9.736  23.557  0.00  0.00    +0.000 C 
ATOM     24  O   UNL     1       0.684  10.106  22.829  0.00  0.00    +0.000 OA
ENDBRANCH  17  24
BRANCH  20  25
ATOM     25  O   UNL     1      -0.469   9.907  17.448  0.00  0.00    +0.000 OA
ATOM     26  C   UNL     1      -1.886  10.001  17.352  0.00  0.00    +0.000 C 
ENDBRANCH  20  25
ENDBRANCH  16  21
ENDBRANCH  14  16
ENDBRANCH   1  14
BRANCH   8  27
ATOM     27  O   UNL     1       5.377   3.649  18.803  0.00  0.00    +0.000 OA
BRANCH  27  28
ATOM     28  C   UNL     1       5.727   4.321  17.660  0.00  0.00    +0.000 A 
ATOM     29  C   UNL     1       5.451   3.688  16.429  0.00  0.00    +0.000 A 
ATOM     30  C   UNL     1       5.349   4.433  15.247  0.00  0.00    +0.000 A 
ATOM     31  C   UNL     1       5.525   5.812  15.295  0.00  0.00    +0.000 A 
ATOM     32  C   UNL     1       5.869   6.424  16.504  0.00  0.00    +0.000 A 
ATOM     33  C   UNL     1       5.984   5.682  17.685  0.00  0.00    +0.000 A 
ENDBRANCH  27  28
ENDBRANCH   8  27
TORSDOF 8
ENDMDL
