MODEL 1
REMARK VINA RESULT:      -8.3      0.000      0.000
REMARK  Name = 
REMARK  6 active torsions:
REMARK  status: ('A' for Active; 'I' for Inactive)
REMARK    1  A    between atoms: C_1  and  C_2
REMARK    2  A    between atoms: C_2  and  C_3
REMARK    3  A    between atoms: C_4  and  C_5
REMARK    4  A    between atoms: C_9  and  N_10
REMARK    5  A    between atoms: C_13  and  N_14
REMARK    6  A    between atoms: N_14  and  C_15
REMARK                            x       y       z     vdW  Elec       q    Type
REMARK                         _______ _______ _______ _____ _____    ______ ____
ROOT
ATOM      1  C   UNL     1       3.357   4.588  18.706  0.00  0.00    +0.000 A 
ATOM      2  C   UNL     1       4.670   4.258  18.630  0.00  0.00    +0.000 A 
ATOM      3  N   UNL     1       5.193   3.276  19.438  0.00  0.00    +0.000 N 
ATOM      4  C   UNL     1       4.487   2.556  20.368  0.00  0.00    +0.000 A 
ATOM      5  O   UNL     1       5.020   1.664  21.013  0.00  0.00    +0.000 OA
ATOM      6  C   UNL     1       3.078   2.953  20.517  0.00  0.00    +0.000 A 
ATOM      7  C   UNL     1       2.094   2.442  21.488  0.00  0.00    +0.000 A 
ATOM      8  O   UNL     1       2.269   1.551  22.300  0.00  0.00    +0.000 OA
ATOM      9  N   UNL     1       0.914   3.136  21.346  0.00  0.00    +0.000 N 
ATOM     10  S   UNL     1       0.908   4.292  20.118  0.00  0.00    +0.000 S 
ATOM     11  C   UNL     1       2.559   3.915  19.734  0.00  0.00    +0.000 A 
ATOM     12  H   UNL     1       6.171   3.020  19.342  0.00  0.00    +0.000 HD
ATOM     13  H   UNL     1       0.118   2.921  21.932  0.00  0.00    +0.000 HD
ENDROOT
BRANCH   2  14
ATOM     14  C   UNL     1       5.622   4.881  17.698  0.00  0.00    +0.000 A 
ATOM     15  C   UNL     1       6.355   5.997  18.102  0.00  0.00    +0.000 A 
ATOM     16  C   UNL     1       7.264   6.571  17.224  0.00  0.00    +0.000 A 
ATOM     17  C   UNL     1       7.430   6.039  15.939  0.00  0.00    +0.000 A 
ATOM     18  C   UNL     1       6.698   4.930  15.484  0.00  0.00    +0.000 A 
ATOM     19  C   UNL     1       5.808   4.355  16.408  0.00  0.00    +0.000 A 
BRANCH  18  20
ATOM     20  N   UNL     1       6.842   4.437  14.208  0.00  0.00    +0.000 N 
ATOM     21  C   UNL     1       7.852   4.876  13.251  0.00  0.00    +0.000 C 
ATOM     22  C   UNL     1       7.149   4.733  11.908  0.00  0.00    +0.000 C 
ATOM     23  C   UNL     1       6.288   3.478  12.067  0.00  0.00    +0.000 C 
ATOM     24  C   UNL     1       5.875   3.540  13.565  0.00  0.00    +0.000 C 
BRANCH  23  25
ATOM     25  N   UNL     1       7.063   2.288  11.673  0.00  0.00    +0.000 NA
ATOM     26  C   UNL     1       6.205   1.220  11.175  0.00  0.00    +0.000 C 
ATOM     27  H   UNL     1       7.595   1.946  12.473  0.00  0.00    +0.000 HD
ENDBRANCH  23  25
ENDBRANCH  18  20
ENDBRANCH   2  14
BRANCH   1  29
ATOM     28  C   UNL     1       2.764   7.008  18.358  0.00  0.00    +0.000 C 
ATOM     29  C   UNL     1       2.697   5.596  17.786  0.00  0.00    +0.000 C 
ENDBRANCH   1  29
TORSDOF 4
ENDMDL
MODEL 2
REMARK VINA RESULT:      -7.9      4.564      6.570
REMARK  Name = 
REMARK  6 active torsions:
REMARK  status: ('A' for Active; 'I' for Inactive)
REMARK    1  A    between atoms: C_1  and  C_2
REMARK    2  A    between atoms: C_2  and  C_3
REMARK    3  A    between atoms: C_4  and  C_5
REMARK    4  A    between atoms: C_9  and  N_10
REMARK    5  A    between atoms: C_13  and  N_14
REMARK    6  A    between atoms: N_14  and  C_15
REMARK                            x       y       z     vdW  Elec       q    Type
REMARK                         _______ _______ _______ _____ _____    ______ ____
ROOT
ATOM      1  C   UNL     1       1.062   9.031  19.657  0.00  0.00    +0.000 A 
ATOM      2  C   UNL     1       1.481   8.115  20.565  0.00  0.00    +0.000 A 
ATOM      3  N   UNL     1       1.322   8.341  21.911  0.00  0.00    +0.000 N 
ATOM      4  C   UNL     1       0.753   9.460  22.465  0.00  0.00    +0.000 A 
ATOM      5  O   UNL     1       0.605   9.559  23.675  0.00  0.00    +0.000 OA
ATOM      6  C   UNL     1       0.361  10.497  21.498  0.00  0.00    +0.000 A 
ATOM      7  C   UNL     1      -0.181  11.837  21.782  0.00  0.00    +0.000 A 
ATOM      8  O   UNL     1      -0.455  12.294  22.877  0.00  0.00    +0.000 OA
ATOM      9  N   UNL     1      -0.337  12.524  20.599  0.00  0.00    +0.000 N 
ATOM     10  S   UNL     1       0.071  11.657  19.211  0.00  0.00    +0.000 S 
ATOM     11  C   UNL     1       0.517  10.286  20.179  0.00  0.00    +0.000 A 
ATOM     12  H   UNL     1       1.612   7.629  22.574  0.00  0.00    +0.000 HD
ATOM     13  H   UNL     1      -0.701  13.468  20.596  0.00  0.00    +0.000 HD
ENDROOT
BRANCH   2  14
ATOM     14  C   UNL     1       2.107   6.832  20.211  0.00  0.00    +0.000 A 
ATOM     15  C   UNL     1       1.486   5.637  20.574  0.00  0.00    +0.000 A 
ATOM     16  C   UNL     1       2.074   4.428  20.224  0.00  0.00    +0.000 A 
ATOM     17  C   UNL     1       3.286   4.415  19.524  0.00  0.00    +0.000 A 
ATOM     18  C   UNL     1       3.955   5.594  19.156  0.00  0.00    +0.000 A 
ATOM     19  C   UNL     1       3.319   6.799  19.501  0.00  0.00    +0.000 A 
BRANCH  18  20
ATOM     20  N   UNL     1       5.165   5.570  18.501  0.00  0.00    +0.000 N 
ATOM     21  C   UNL     1       6.457   5.342  19.139  0.00  0.00    +0.000 C 
ATOM     22  C   UNL     1       7.414   6.183  18.304  0.00  0.00    +0.000 C 
ATOM     23  C   UNL     1       6.878   6.053  16.876  0.00  0.00    +0.000 C 
ATOM     24  C   UNL     1       5.342   5.964  17.099  0.00  0.00    +0.000 C 
BRANCH  23  25
ATOM     25  N   UNL     1       7.492   4.885  16.218  0.00  0.00    +0.000 NA
ATOM     26  C   UNL     1       6.748   4.476  15.033  0.00  0.00    +0.000 C 
ATOM     27  H   UNL     1       7.533   4.106  16.875  0.00  0.00    +0.000 HD
ENDBRANCH  23  25
ENDBRANCH  18  20
ENDBRANCH   2  14
BRANCH   1  29
ATOM     28  C   UNL     1       2.376   9.436  17.549  0.00  0.00    +0.000 C 
ATOM     29  C   UNL     1       1.127   8.807  18.158  0.00  0.00    +0.000 C 
ENDBRANCH   1  29
TORSDOF 4
ENDMDL
MODEL 3
REMARK VINA RESULT:      -7.9      4.734      8.181
REMARK  Name = 
REMARK  6 active torsions:
REMARK  status: ('A' for Active; 'I' for Inactive)
REMARK    1  A    between atoms: C_1  and  C_2
REMARK    2  A    between atoms: C_2  and  C_3
REMARK    3  A    between atoms: C_4  and  C_5
REMARK    4  A    between atoms: C_9  and  N_10
REMARK    5  A    between atoms: C_13  and  N_14
REMARK    6  A    between atoms: N_14  and  C_15
REMARK                            x       y       z     vdW  Elec       q    Type
REMARK                         _______ _______ _______ _____ _____    ______ ____
ROOT
ATOM      1  C   UNL     1       3.010   5.538  18.014  0.00  0.00    +0.000 A 
ATOM      2  C   UNL     1       3.219   6.835  18.348  0.00  0.00    +0.000 A 
ATOM      3  N   UNL     1       4.372   7.479  17.965  0.00  0.00    +0.000 N 
ATOM      4  C   UNL     1       5.391   6.914  17.241  0.00  0.00    +0.000 A 
ATOM      5  O   UNL     1       6.363   7.574  16.899  0.00  0.00    +0.000 OA
ATOM      6  C   UNL     1       5.215   5.486  16.935  0.00  0.00    +0.000 A 
ATOM      7  C   UNL     1       6.166   4.582  16.265  0.00  0.00    +0.000 A 
ATOM      8  O   UNL     1       7.247   4.884  15.792  0.00  0.00    +0.000 OA
ATOM      9  N   UNL     1       5.647   3.307  16.249  0.00  0.00    +0.000 N 
ATOM     10  S   UNL     1       4.111   3.154  16.927  0.00  0.00    +0.000 S 
ATOM     11  C   UNL     1       4.093   4.847  17.309  0.00  0.00    +0.000 A 
ATOM     12  H   UNL     1       4.495   8.460  18.195  0.00  0.00    +0.000 HD
ATOM     13  H   UNL     1       6.164   2.547  15.826  0.00  0.00    +0.000 HD
ENDROOT
BRANCH   2  14
ATOM     14  C   UNL     1       2.263   7.654  19.107  0.00  0.00    +0.000 A 
ATOM     15  C   UNL     1       2.144   7.479  20.486  0.00  0.00    +0.000 A 
ATOM     16  C   UNL     1       1.250   8.267  21.199  0.00  0.00    +0.000 A 
ATOM     17  C   UNL     1       0.467   9.218  20.534  0.00  0.00    +0.000 A 
ATOM     18  C   UNL     1       0.540   9.413  19.145  0.00  0.00    +0.000 A 
ATOM     19  C   UNL     1       1.475   8.620  18.457  0.00  0.00    +0.000 A 
BRANCH  18  20
ATOM     20  N   UNL     1      -0.260  10.324  18.495  0.00  0.00    +0.000 N 
ATOM     21  C   UNL     1       0.020  11.752  18.383  0.00  0.00    +0.000 C 
ATOM     22  C   UNL     1      -1.366  12.382  18.382  0.00  0.00    +0.000 C 
ATOM     23  C   UNL     1      -2.230  11.388  17.602  0.00  0.00    +0.000 C 
ATOM     24  C   UNL     1      -1.604  10.019  17.992  0.00  0.00    +0.000 C 
BRANCH  23  25
ATOM     25  N   UNL     1      -2.192  11.715  16.165  0.00  0.00    +0.000 NA
ATOM     26  C   UNL     1      -3.159  10.932  15.404  0.00  0.00    +0.000 C 
ATOM     27  H   UNL     1      -1.256  11.540  15.800  0.00  0.00    +0.000 HD
ENDBRANCH  23  25
ENDBRANCH  18  20
ENDBRANCH   2  14
BRANCH   1  29
ATOM     28  C   UNL     1       1.825   4.029  19.642  0.00  0.00    +0.000 C 
ATOM     29  C   UNL     1       1.725   4.795  18.327  0.00  0.00    +0.000 C 
ENDBRANCH   1  29
TORSDOF 4
ENDMDL
MODEL 4
REMARK VINA RESULT:      -7.7      4.656      6.783
REMARK  Name = 
REMARK  6 active torsions:
REMARK  status: ('A' for Active; 'I' for Inactive)
REMARK    1  A    between atoms: C_1  and  C_2
REMARK    2  A    between atoms: C_2  and  C_3
REMARK    3  A    between atoms: C_4  and  C_5
REMARK    4  A    between atoms: C_9  and  N_10
REMARK    5  A    between atoms: C_13  and  N_14
REMARK    6  A    between atoms: N_14  and  C_15
REMARK                            x       y       z     vdW  Elec       q    Type
REMARK                         _______ _______ _______ _____ _____    ______ ____
ROOT
ATOM      1  C   UNL     1       1.005   9.112  19.732  0.00  0.00    +0.000 A 
ATOM      2  C   UNL     1       1.385   8.174  20.634  0.00  0.00    +0.000 A 
ATOM      3  N   UNL     1       1.205   8.385  21.981  0.00  0.00    +0.000 N 
ATOM      4  C   UNL     1       0.652   9.509  22.539  0.00  0.00    +0.000 A 
ATOM      5  O   UNL     1       0.483   9.595  23.748  0.00  0.00    +0.000 OA
ATOM      6  C   UNL     1       0.304  10.569  21.580  0.00  0.00    +0.000 A 
ATOM      7  C   UNL     1      -0.211  11.918  21.873  0.00  0.00    +0.000 A 
ATOM      8  O   UNL     1      -0.496  12.366  22.969  0.00  0.00    +0.000 OA
ATOM      9  N   UNL     1      -0.328  12.624  20.697  0.00  0.00    +0.000 N 
ATOM     10  S   UNL     1       0.086  11.767  19.305  0.00  0.00    +0.000 S 
ATOM     11  C   UNL     1       0.481  10.373  20.262  0.00  0.00    +0.000 A 
ATOM     12  H   UNL     1       1.464   7.656  22.639  0.00  0.00    +0.000 HD
ATOM     13  H   UNL     1      -0.669  13.577  20.702  0.00  0.00    +0.000 HD
ENDROOT
BRANCH   2  14
ATOM     14  C   UNL     1       1.986   6.881  20.274  0.00  0.00    +0.000 A 
ATOM     15  C   UNL     1       1.478   5.705  20.824  0.00  0.00    +0.000 A 
ATOM     16  C   UNL     1       2.040   4.486  20.469  0.00  0.00    +0.000 A 
ATOM     17  C   UNL     1       3.116   4.444  19.574  0.00  0.00    +0.000 A 
ATOM     18  C   UNL     1       3.673   5.605  19.013  0.00  0.00    +0.000 A 
ATOM     19  C   UNL     1       3.062   6.820  19.372  0.00  0.00    +0.000 A 
BRANCH  18  20
ATOM     20  N   UNL     1       4.755   5.557  18.164  0.00  0.00    +0.000 N 
ATOM     21  C   UNL     1       4.685   5.253  16.739  0.00  0.00    +0.000 C 
ATOM     22  C   UNL     1       6.000   4.532  16.470  0.00  0.00    +0.000 C 
ATOM     23  C   UNL     1       7.010   5.244  17.373  0.00  0.00    +0.000 C 
ATOM     24  C   UNL     1       6.149   5.614  18.615  0.00  0.00    +0.000 C 
BRANCH  23  25
ATOM     25  N   UNL     1       7.606   6.383  16.653  0.00  0.00    +0.000 NA
ATOM     26  C   UNL     1       7.604   7.597  17.460  0.00  0.00    +0.000 C 
ATOM     27  H   UNL     1       7.086   6.552  15.792  0.00  0.00    +0.000 HD
ENDBRANCH  23  25
ENDBRANCH  18  20
ENDBRANCH   2  14
BRANCH   1  29
ATOM     28  C   UNL     1       2.279   9.657  17.631  0.00  0.00    +0.000 C 
ATOM     29  C   UNL     1       1.094   8.908  18.232  0.00  0.00    +0.000 C 
ENDBRANCH   1  29
TORSDOF 4
ENDMDL
MODEL 5
REMARK VINA RESULT:      -7.6      4.839      8.273
REMARK  Name = 
REMARK  6 active torsions:
REMARK  status: ('A' for Active; 'I' for Inactive)
REMARK    1  A    between atoms: C_1  and  C_2
REMARK    2  A    between atoms: C_2  and  C_3
REMARK    3  A    between atoms: C_4  and  C_5
REMARK    4  A    between atoms: C_9  and  N_10
REMARK    5  A    between atoms: C_13  and  N_14
REMARK    6  A    between atoms: N_14  and  C_15
REMARK                            x       y       z     vdW  Elec       q    Type
REMARK                         _______ _______ _______ _____ _____    ______ ____
ROOT
ATOM      1  C   UNL     1       2.743   5.694  19.736  0.00  0.00    +0.000 A 
ATOM      2  C   UNL     1       2.612   6.965  19.283  0.00  0.00    +0.000 A 
ATOM      3  N   UNL     1       3.332   7.398  18.195  0.00  0.00    +0.000 N 
ATOM      4  C   UNL     1       4.221   6.637  17.480  0.00  0.00    +0.000 A 
ATOM      5  O   UNL     1       4.785   7.087  16.492  0.00  0.00    +0.000 OA
ATOM      6  C   UNL     1       4.432   5.278  18.003  0.00  0.00    +0.000 A 
ATOM      7  C   UNL     1       5.384   4.263  17.519  0.00  0.00    +0.000 A 
ATOM      8  O   UNL     1       6.123   4.358  16.556  0.00  0.00    +0.000 OA
ATOM      9  N   UNL     1       5.322   3.156  18.336  0.00  0.00    +0.000 N 
ATOM     10  S   UNL     1       4.185   3.250  19.578  0.00  0.00    +0.000 S 
ATOM     11  C   UNL     1       3.736   4.847  19.069  0.00  0.00    +0.000 A 
ATOM     12  H   UNL     1       3.195   8.343  17.851  0.00  0.00    +0.000 HD
ATOM     13  H   UNL     1       5.908   2.352  18.158  0.00  0.00    +0.000 HD
ENDROOT
BRANCH   2  14
ATOM     14  C   UNL     1       1.709   7.961  19.878  0.00  0.00    +0.000 A 
ATOM     15  C   UNL     1       1.647   8.099  21.264  0.00  0.00    +0.000 A 
ATOM     16  C   UNL     1       0.803   9.052  21.819  0.00  0.00    +0.000 A 
ATOM     17  C   UNL     1       0.013   9.857  20.990  0.00  0.00    +0.000 A 
ATOM     18  C   UNL     1       0.029   9.739  19.590  0.00  0.00    +0.000 A 
ATOM     19  C   UNL     1       0.915   8.784  19.061  0.00  0.00    +0.000 A 
BRANCH  18  20
ATOM     20  N   UNL     1      -0.778  10.509  18.786  0.00  0.00    +0.000 N 
ATOM     21  C   UNL     1      -0.744  11.966  18.717  0.00  0.00    +0.000 C 
ATOM     22  C   UNL     1      -2.193  12.338  18.434  0.00  0.00    +0.000 C 
ATOM     23  C   UNL     1      -2.692  11.227  17.508  0.00  0.00    +0.000 C 
ATOM     24  C   UNL     1      -1.919   9.982  18.028  0.00  0.00    +0.000 C 
BRANCH  23  25
ATOM     25  N   UNL     1      -2.431  11.593  16.104  0.00  0.00    +0.000 NA
ATOM     26  C   UNL     1      -2.933  10.586  15.177  0.00  0.00    +0.000 C 
ATOM     27  H   UNL     1      -1.427  11.709  15.963  0.00  0.00    +0.000 HD
ENDBRANCH  23  25
ENDBRANCH  18  20
ENDBRANCH   2  14
BRANCH   1  29
ATOM     28  C   UNL     1       0.886   4.120  20.372  0.00  0.00    +0.000 C 
ATOM     29  C   UNL     1       1.917   5.126  20.873  0.00  0.00    +0.000 C 
ENDBRANCH   1  29
TORSDOF 4
ENDMDL
MODEL 6
REMARK VINA RESULT:      -7.2      5.322      7.935
REMARK  Name = 
REMARK  6 active torsions:
REMARK  status: ('A' for Active; 'I' for Inactive)
REMARK    1  A    between atoms: C_1  and  C_2
REMARK    2  A    between atoms: C_2  and  C_3
REMARK    3  A    between atoms: C_4  and  C_5
REMARK    4  A    between atoms: C_9  and  N_10
REMARK    5  A    between atoms: C_13  and  N_14
REMARK    6  A    between atoms: N_14  and  C_15
REMARK                            x       y       z     vdW  Elec       q    Type
REMARK                         _______ _______ _______ _____ _____    ______ ____
ROOT
ATOM      1  C   UNL     1      -0.141  10.368  19.673  0.00  0.00    +0.000 A 
ATOM      2  C   UNL     1       0.693   9.461  20.238  0.00  0.00    +0.000 A 
ATOM      3  N   UNL     1       0.786   9.353  21.606  0.00  0.00    +0.000 N 
ATOM      4  C   UNL     1       0.086  10.110  22.510  0.00  0.00    +0.000 A 
ATOM      5  O   UNL     1       0.192   9.915  23.712  0.00  0.00    +0.000 OA
ATOM      6  C   UNL     1      -0.768  11.151  21.914  0.00  0.00    +0.000 A 
ATOM      7  C   UNL     1      -1.561  12.177  22.614  0.00  0.00    +0.000 A 
ATOM      8  O   UNL     1      -1.692  12.299  23.819  0.00  0.00    +0.000 OA
ATOM      9  N   UNL     1      -2.150  13.006  21.686  0.00  0.00    +0.000 N 
ATOM     10  S   UNL     1      -1.853  12.601  20.076  0.00  0.00    +0.000 S 
ATOM     11  C   UNL     1      -0.861  11.267  20.578  0.00  0.00    +0.000 A 
ATOM     12  H   UNL     1       1.391   8.645  22.010  0.00  0.00    +0.000 HD
ATOM     13  H   UNL     1      -2.737  13.774  21.983  0.00  0.00    +0.000 HD
ENDROOT
BRANCH   2  14
ATOM     14  C   UNL     1       1.534   8.528  19.474  0.00  0.00    +0.000 A 
ATOM     15  C   UNL     1       2.204   8.975  18.335  0.00  0.00    +0.000 A 
ATOM     16  C   UNL     1       3.009   8.093  17.626  0.00  0.00    +0.000 A 
ATOM     17  C   UNL     1       3.133   6.763  18.047  0.00  0.00    +0.000 A 
ATOM     18  C   UNL     1       2.461   6.266  19.176  0.00  0.00    +0.000 A 
ATOM     19  C   UNL     1       1.678   7.192  19.887  0.00  0.00    +0.000 A 
BRANCH  18  20
ATOM     20  N   UNL     1       2.560   4.949  19.561  0.00  0.00    +0.000 N 
ATOM     21  C   UNL     1       1.568   4.234  20.356  0.00  0.00    +0.000 C 
ATOM     22  C   UNL     1       2.407   3.255  21.166  0.00  0.00    +0.000 C 
ATOM     23  C   UNL     1       3.526   2.838  20.209  0.00  0.00    +0.000 C 
ATOM     24  C   UNL     1       3.770   4.137  19.389  0.00  0.00    +0.000 C 
BRANCH  23  25
ATOM     25  N   UNL     1       3.100   1.665  19.424  0.00  0.00    +0.000 NA
ATOM     26  C   UNL     1       3.429   1.808  18.011  0.00  0.00    +0.000 C 
ATOM     27  H   UNL     1       2.094   1.535  19.524  0.00  0.00    +0.000 HD
ENDBRANCH  23  25
ENDBRANCH  18  20
ENDBRANCH   2  14
BRANCH   1  29
ATOM     28  C   UNL     1      -1.673   9.838  17.749  0.00  0.00    +0.000 C 
ATOM     29  C   UNL     1      -0.358  10.480  18.176  0.00  0.00    +0.000 C 
ENDBRANCH   1  29
TORSDOF 4
ENDMDL
MODEL 7
REMARK VINA RESULT:      -7.1      5.416      8.049
REMARK  Name = 
REMARK  6 active torsions:
REMARK  status: ('A' for Active; 'I' for Inactive)
REMARK    1  A    between atoms: C_1  and  C_2
REMARK    2  A    between atoms: C_2  and  C_3
REMARK    3  A    between atoms: C_4  and  C_5
REMARK    4  A    between atoms: C_9  and  N_10
REMARK    5  A    between atoms: C_13  and  N_14
REMARK    6  A    between atoms: N_14  and  C_15
REMARK                            x       y       z     vdW  Elec       q    Type
REMARK                         _______ _______ _______ _____ _____    ______ ____
ROOT
ATOM      1  C   UNL     1      -0.248  10.520  19.610  0.00  0.00    +0.000 A 
ATOM      2  C   UNL     1       0.658   9.651  20.124  0.00  0.00    +0.000 A 
ATOM      3  N   UNL     1       0.795   9.509  21.485  0.00  0.00    +0.000 N 
ATOM      4  C   UNL     1       0.073  10.192  22.430  0.00  0.00    +0.000 A 
ATOM      5  O   UNL     1       0.224   9.969  23.623  0.00  0.00    +0.000 OA
ATOM      6  C   UNL     1      -0.861  11.193  21.890  0.00  0.00    +0.000 A 
ATOM      7  C   UNL     1      -1.698  12.145  22.642  0.00  0.00    +0.000 A 
ATOM      8  O   UNL     1      -1.803  12.222  23.853  0.00  0.00    +0.000 OA
ATOM      9  N   UNL     1      -2.364  12.961  21.755  0.00  0.00    +0.000 N 
ATOM     10  S   UNL     1      -2.086  12.624  20.127  0.00  0.00    +0.000 S 
ATOM     11  C   UNL     1      -0.998  11.342  20.561  0.00  0.00    +0.000 A 
ATOM     12  H   UNL     1       1.455   8.829  21.851  0.00  0.00    +0.000 HD
ATOM     13  H   UNL     1      -2.990  13.681  22.092  0.00  0.00    +0.000 HD
ENDROOT
BRANCH   2  14
ATOM     14  C   UNL     1       1.535   8.797  19.310  0.00  0.00    +0.000 A 
ATOM     15  C   UNL     1       2.033   9.275  18.097  0.00  0.00    +0.000 A 
ATOM     16  C   UNL     1       2.873   8.469  17.340  0.00  0.00    +0.000 A 
ATOM     17  C   UNL     1       3.204   7.184  17.787  0.00  0.00    +0.000 A 
ATOM     18  C   UNL     1       2.708   6.656  18.991  0.00  0.00    +0.000 A 
ATOM     19  C   UNL     1       1.884   7.508  19.747  0.00  0.00    +0.000 A 
BRANCH  18  20
ATOM     20  N   UNL     1       3.009   5.379  19.404  0.00  0.00    +0.000 N 
ATOM     21  C   UNL     1       4.348   4.901  19.733  0.00  0.00    +0.000 C 
ATOM     22  C   UNL     1       4.311   3.438  19.313  0.00  0.00    +0.000 C 
ATOM     23  C   UNL     1       2.889   2.985  19.655  0.00  0.00    +0.000 C 
ATOM     24  C   UNL     1       2.053   4.267  19.383  0.00  0.00    +0.000 C 
BRANCH  23  25
ATOM     25  N   UNL     1       2.846   2.482  21.039  0.00  0.00    +0.000 NA
ATOM     26  C   UNL     1       1.559   2.745  21.673  0.00  0.00    +0.000 C 
ATOM     27  H   UNL     1       3.586   2.923  21.586  0.00  0.00    +0.000 HD
ENDBRANCH  23  25
ENDBRANCH  18  20
ENDBRANCH   2  14
BRANCH   1  29
ATOM     28  C   UNL     1      -1.787   9.935  17.706  0.00  0.00    +0.000 C 
ATOM     29  C   UNL     1      -0.512  10.662  18.123  0.00  0.00    +0.000 C 
ENDBRANCH   1  29
TORSDOF 4
ENDMDL
MODEL 8
REMARK VINA RESULT:      -7.0      4.584      8.857
REMARK  Name = 
REMARK  6 active torsions:
REMARK  status: ('A' for Active; 'I' for Inactive)
REMARK    1  A    between atoms: C_1  and  C_2
REMARK    2  A    between atoms: C_2  and  C_3
REMARK    3  A    between atoms: C_4  and  C_5
REMARK    4  A    between atoms: C_9  and  N_10
REMARK    5  A    between atoms: C_13  and  N_14
REMARK    6  A    between atoms: N_14  and  C_15
REMARK                            x       y       z     vdW  Elec       q    Type
REMARK                         _______ _______ _______ _____ _____    ______ ____
ROOT
ATOM      1  C   UNL     1       3.359   6.096  18.289  0.00  0.00    +0.000 A 
ATOM      2  C   UNL     1       2.559   6.687  19.211  0.00  0.00    +0.000 A 
ATOM      3  N   UNL     1       2.188   6.013  20.350  0.00  0.00    +0.000 N 
ATOM      4  C   UNL     1       2.560   4.732  20.669  0.00  0.00    +0.000 A 
ATOM      5  O   UNL     1       2.225   4.223  21.729  0.00  0.00    +0.000 OA
ATOM      6  C   UNL     1       3.366   4.049  19.644  0.00  0.00    +0.000 A 
ATOM      7  C   UNL     1       3.833   2.652  19.647  0.00  0.00    +0.000 A 
ATOM      8  O   UNL     1       3.681   1.835  20.538  0.00  0.00    +0.000 OA
ATOM      9  N   UNL     1       4.486   2.389  18.464  0.00  0.00    +0.000 N 
ATOM     10  S   UNL     1       4.606   3.699  17.409  0.00  0.00    +0.000 S 
ATOM     11  C   UNL     1       3.730   4.699  18.525  0.00  0.00    +0.000 A 
ATOM     12  H   UNL     1       1.617   6.484  21.045  0.00  0.00    +0.000 HD
ATOM     13  H   UNL     1       4.879   1.474  18.285  0.00  0.00    +0.000 HD
ENDROOT
BRANCH   2  14
ATOM     14  C   UNL     1       2.046   8.060  19.097  0.00  0.00    +0.000 A 
ATOM     15  C   UNL     1       2.207   8.762  17.902  0.00  0.00    +0.000 A 
ATOM     16  C   UNL     1       1.707  10.053  17.794  0.00  0.00    +0.000 A 
ATOM     17  C   UNL     1       1.058  10.646  18.884  0.00  0.00    +0.000 A 
ATOM     18  C   UNL     1       0.893   9.984  20.112  0.00  0.00    +0.000 A 
ATOM     19  C   UNL     1       1.385   8.669  20.177  0.00  0.00    +0.000 A 
BRANCH  18  20
ATOM     20  N   UNL     1       0.287  10.590  21.189  0.00  0.00    +0.000 N 
ATOM     21  C   UNL     1       0.273  10.058  22.548  0.00  0.00    +0.000 C 
ATOM     22  C   UNL     1      -1.069  10.526  23.094  0.00  0.00    +0.000 C 
ATOM     23  C   UNL     1      -1.262  11.913  22.477  0.00  0.00    +0.000 C 
ATOM     24  C   UNL     1      -0.595  11.757  21.081  0.00  0.00    +0.000 C 
BRANCH  23  25
ATOM     25  N   UNL     1      -0.664  12.937  23.353  0.00  0.00    +0.000 NA
ATOM     26  C   UNL     1      -1.558  14.070  23.554  0.00  0.00    +0.000 C 
ATOM     27  H   UNL     1       0.211  13.266  22.945  0.00  0.00    +0.000 HD
ENDBRANCH  23  25
ENDBRANCH  18  20
ENDBRANCH   2  14
BRANCH   1  29
ATOM     28  C   UNL     1       5.389   7.004  17.111  0.00  0.00    +0.000 C 
ATOM     29  C   UNL     1       3.877   6.812  17.056  0.00  0.00    +0.000 C 
ENDBRANCH   1  29
TORSDOF 4
ENDMDL
MODEL 9
REMARK VINA RESULT:      -7.0      5.034      8.678
REMARK  Name = 
REMARK  6 active torsions:
REMARK  status: ('A' for Active; 'I' for Inactive)
REMARK    1  A    between atoms: C_1  and  C_2
REMARK    2  A    between atoms: C_2  and  C_3
REMARK    3  A    between atoms: C_4  and  C_5
REMARK    4  A    between atoms: C_9  and  N_10
REMARK    5  A    between atoms: C_13  and  N_14
REMARK    6  A    between atoms: N_14  and  C_15
REMARK                            x       y       z     vdW  Elec       q    Type
REMARK                         _______ _______ _______ _____ _____    ______ ____
ROOT
ATOM      1  C   UNL     1       2.623   5.648  19.579  0.00  0.00    +0.000 A 
ATOM      2  C   UNL     1       2.571   6.968  19.273  0.00  0.00    +0.000 A 
ATOM      3  N   UNL     1       3.224   7.455  18.165  0.00  0.00    +0.000 N 
ATOM      4  C   UNL     1       3.965   6.705  17.288  0.00  0.00    +0.000 A 
ATOM      5  O   UNL     1       4.473   7.211  16.297  0.00  0.00    +0.000 OA
ATOM      6  C   UNL     1       4.094   5.284  17.647  0.00  0.00    +0.000 A 
ATOM      7  C   UNL     1       4.896   4.251  16.968  0.00  0.00    +0.000 A 
ATOM      8  O   UNL     1       5.547   4.388  15.948  0.00  0.00    +0.000 OA
ATOM      9  N   UNL     1       4.806   3.071  17.672  0.00  0.00    +0.000 N 
ATOM     10  S   UNL     1       3.805   3.123  19.028  0.00  0.00    +0.000 S 
ATOM     11  C   UNL     1       3.463   4.799  18.731  0.00  0.00    +0.000 A 
ATOM     12  H   UNL     1       3.145   8.441  17.933  0.00  0.00    +0.000 HD
ATOM     13  H   UNL     1       5.294   2.244  17.353  0.00  0.00    +0.000 HD
ENDROOT
BRANCH   2  14
ATOM     14  C   UNL     1       1.826   7.966  20.054  0.00  0.00    +0.000 A 
ATOM     15  C   UNL     1       1.702   7.810  21.435  0.00  0.00    +0.000 A 
ATOM     16  C   UNL     1       1.010   8.764  22.170  0.00  0.00    +0.000 A 
ATOM     17  C   UNL     1       0.433   9.864  21.525  0.00  0.00    +0.000 A 
ATOM     18  C   UNL     1       0.516  10.049  20.135  0.00  0.00    +0.000 A 
ATOM     19  C   UNL     1       1.247   9.081  19.425  0.00  0.00    +0.000 A 
BRANCH  18  20
ATOM     20  N   UNL     1      -0.086  11.114  19.505  0.00  0.00    +0.000 N 
ATOM     21  C   UNL     1      -1.509  11.206  19.197  0.00  0.00    +0.000 C 
ATOM     22  C   UNL     1      -1.536  12.007  17.902  0.00  0.00    +0.000 C 
ATOM     23  C   UNL     1      -0.400  13.020  18.064  0.00  0.00    +0.000 C 
ATOM     24  C   UNL     1       0.651  12.219  18.883  0.00  0.00    +0.000 C 
BRANCH  23  25
ATOM     25  N   UNL     1      -0.909  14.242  18.711  0.00  0.00    +0.000 NA
ATOM     26  C   UNL     1       0.157  15.198  18.984  0.00  0.00    +0.000 C 
ATOM     27  H   UNL     1      -1.374  13.997  19.585  0.00  0.00    +0.000 HD
ENDBRANCH  23  25
ENDBRANCH  18  20
ENDBRANCH   2  14
BRANCH   1  29
ATOM     28  C   UNL     1       0.793   4.054  20.243  0.00  0.00    +0.000 C 
ATOM     29  C   UNL     1       1.857   5.031  20.733  0.00  0.00    +0.000 C 
ENDBRANCH   1  29
TORSDOF 4
ENDMDL
