MODEL 1
REMARK VINA RESULT:      -7.8      0.000      0.000
REMARK  Name = 
REMARK  6 active torsions:
REMARK  status: ('A' for Active; 'I' for Inactive)
REMARK    1  A    between atoms: C_1  and  C_2
REMARK    2  A    between atoms: C_6  and  C_7
REMARK    3  A    between atoms: C_7  and  O_9
REMARK    4  A    between atoms: O_9  and  C_10
REMARK    5  A    between atoms: C_10  and  C_11
REMARK    6  A    between atoms: N_13  and  C_14
REMARK                            x       y       z     vdW  Elec       q    Type
REMARK                         _______ _______ _______ _____ _____    ______ ____
ROOT
ATOM      1  C   UNL     1       7.445   4.652  17.547  0.00  0.00    +0.000 C 
ENDROOT
BRANCH   1   2
ATOM      2  C   UNL     1       6.446   4.634  18.709  0.00  0.00    +0.000 C 
ATOM      3  O   UNL     1       6.660   5.299  19.723  0.00  0.00    +0.000 OA
ATOM      4  N   UNL     1       5.365   3.782  18.513  0.00  0.00    +0.000 N 
ATOM      5  H   UNL     1       5.392   3.170  17.709  0.00  0.00    +0.000 HD
BRANCH   4   6
ATOM      6  C   UNL     1       4.284   3.607  19.407  0.00  0.00    +0.000 A 
ATOM      7  C   UNL     1       3.254   4.543  19.551  0.00  0.00    +0.000 A 
ATOM      8  C   UNL     1       2.242   4.353  20.496  0.00  0.00    +0.000 A 
ATOM      9  C   UNL     1       2.253   3.219  21.292  0.00  0.00    +0.000 A 
ATOM     10  F   UNL     1       1.302   3.051  22.218  0.00  0.00    +0.000 F 
ATOM     11  C   UNL     1       3.241   2.254  21.139  0.00  0.00    +0.000 A 
ATOM     12  C   UNL     1       4.250   2.440  20.186  0.00  0.00    +0.000 A 
ENDBRANCH   4   6
ENDBRANCH   1   2
BRANCH   1  13
ATOM     13  O   UNL     1       7.138   5.674  16.594  0.00  0.00    +0.000 OA
BRANCH  13  14
ATOM     14  C   UNL     1       6.040   5.398  15.842  0.00  0.00    +0.000 C 
ATOM     15  O   UNL     1       4.885   5.494  16.232  0.00  0.00    +0.000 OA
BRANCH  14  21
ATOM     16  C   UNL     1       5.272   2.528  11.750  0.00  0.00    +0.000 C 
ATOM     17  C   UNL     1       6.065   3.565  12.490  0.00  0.00    +0.000 A 
ATOM     18  C   UNL     1       7.204   4.139  11.911  0.00  0.00    +0.000 A 
ATOM     19  C   UNL     1       7.943   5.096  12.605  0.00  0.00    +0.000 A 
ATOM     20  C   UNL     1       7.549   5.490  13.884  0.00  0.00    +0.000 A 
ATOM     21  C   UNL     1       6.408   4.934  14.478  0.00  0.00    +0.000 A 
ATOM     22  C   UNL     1       5.673   3.965  13.779  0.00  0.00    +0.000 A 
ENDBRANCH  14  21
ENDBRANCH  13  14
ENDBRANCH   1  13
TORSDOF 5
ENDMDL
MODEL 2
REMARK VINA RESULT:      -7.7      2.177      4.246
REMARK  Name = 
REMARK  6 active torsions:
REMARK  status: ('A' for Active; 'I' for Inactive)
REMARK    1  A    between atoms: C_1  and  C_2
REMARK    2  A    between atoms: C_6  and  C_7
REMARK    3  A    between atoms: C_7  and  O_9
REMARK    4  A    between atoms: O_9  and  C_10
REMARK    5  A    between atoms: C_10  and  C_11
REMARK    6  A    between atoms: N_13  and  C_14
REMARK                            x       y       z     vdW  Elec       q    Type
REMARK                         _______ _______ _______ _____ _____    ______ ____
ROOT
ATOM      1  C   UNL     1       4.617   4.376  15.611  0.00  0.00    +0.000 C 
ENDROOT
BRANCH   1   2
ATOM      2  C   UNL     1       3.951   4.531  16.983  0.00  0.00    +0.000 C 
ATOM      3  O   UNL     1       3.822   5.646  17.489  0.00  0.00    +0.000 OA
ATOM      4  N   UNL     1       3.586   3.327  17.574  0.00  0.00    +0.000 N 
ATOM      5  H   UNL     1       3.895   2.473  17.127  0.00  0.00    +0.000 HD
BRANCH   4   6
ATOM      6  C   UNL     1       2.921   3.187  18.814  0.00  0.00    +0.000 A 
ATOM      7  C   UNL     1       3.587   2.888  20.007  0.00  0.00    +0.000 A 
ATOM      8  C   UNL     1       2.876   2.697  21.195  0.00  0.00    +0.000 A 
ATOM      9  C   UNL     1       1.496   2.814  21.192  0.00  0.00    +0.000 A 
ATOM     10  F   UNL     1       0.811   2.600  22.322  0.00  0.00    +0.000 F 
ATOM     11  C   UNL     1       0.815   3.151  20.029  0.00  0.00    +0.000 A 
ATOM     12  C   UNL     1       1.528   3.353  18.841  0.00  0.00    +0.000 A 
ENDBRANCH   4   6
ENDBRANCH   1   2
BRANCH   1  13
ATOM     13  O   UNL     1       5.456   5.491  15.295  0.00  0.00    +0.000 OA
BRANCH  13  14
ATOM     14  C   UNL     1       6.778   5.242  15.483  0.00  0.00    +0.000 C 
ATOM     15  O   UNL     1       7.474   4.566  14.740  0.00  0.00    +0.000 OA
BRANCH  14  21
ATOM     16  C   UNL     1       8.305   9.263  18.143  0.00  0.00    +0.000 C 
ATOM     17  C   UNL     1       8.027   7.792  18.040  0.00  0.00    +0.000 A 
ATOM     18  C   UNL     1       8.246   6.946  19.135  0.00  0.00    +0.000 A 
ATOM     19  C   UNL     1       7.995   5.579  19.032  0.00  0.00    +0.000 A 
ATOM     20  C   UNL     1       7.519   5.044  17.835  0.00  0.00    +0.000 A 
ATOM     21  C   UNL     1       7.286   5.874  16.730  0.00  0.00    +0.000 A 
ATOM     22  C   UNL     1       7.549   7.248  16.835  0.00  0.00    +0.000 A 
ENDBRANCH  14  21
ENDBRANCH  13  14
ENDBRANCH   1  13
TORSDOF 5
ENDMDL
MODEL 3
REMARK VINA RESULT:      -7.7      0.637      1.207
REMARK  Name = 
REMARK  6 active torsions:
REMARK  status: ('A' for Active; 'I' for Inactive)
REMARK    1  A    between atoms: C_1  and  C_2
REMARK    2  A    between atoms: C_6  and  C_7
REMARK    3  A    between atoms: C_7  and  O_9
REMARK    4  A    between atoms: O_9  and  C_10
REMARK    5  A    between atoms: C_10  and  C_11
REMARK    6  A    between atoms: N_13  and  C_14
REMARK                            x       y       z     vdW  Elec       q    Type
REMARK                         _______ _______ _______ _____ _____    ______ ____
ROOT
ATOM      1  C   UNL     1       6.811   6.066  17.782  0.00  0.00    +0.000 C 
ENDROOT
BRANCH   1   2
ATOM      2  C   UNL     1       6.111   5.333  18.932  0.00  0.00    +0.000 C 
ATOM      3  O   UNL     1       6.738   5.023  19.945  0.00  0.00    +0.000 OA
ATOM      4  N   UNL     1       4.778   5.029  18.680  0.00  0.00    +0.000 N 
ATOM      5  H   UNL     1       4.428   5.194  17.746  0.00  0.00    +0.000 HD
BRANCH   4   6
ATOM      6  C   UNL     1       3.894   4.394  19.584  0.00  0.00    +0.000 A 
ATOM      7  C   UNL     1       3.987   3.039  19.917  0.00  0.00    +0.000 A 
ATOM      8  C   UNL     1       3.049   2.445  20.766  0.00  0.00    +0.000 A 
ATOM      9  C   UNL     1       2.020   3.210  21.291  0.00  0.00    +0.000 A 
ATOM     10  F   UNL     1       1.103   2.635  22.078  0.00  0.00    +0.000 F 
ATOM     11  C   UNL     1       1.930   4.567  21.008  0.00  0.00    +0.000 A 
ATOM     12  C   UNL     1       2.876   5.165  20.165  0.00  0.00    +0.000 A 
ENDBRANCH   4   6
ENDBRANCH   1   2
BRANCH   1  13
ATOM     13  O   UNL     1       6.950   5.236  16.625  0.00  0.00    +0.000 OA
BRANCH  13  14
ATOM     14  C   UNL     1       5.968   5.422  15.706  0.00  0.00    +0.000 C 
ATOM     15  O   UNL     1       4.877   5.922  15.941  0.00  0.00    +0.000 OA
BRANCH  14  21
ATOM     16  C   UNL     1       5.296   2.415  11.695  0.00  0.00    +0.000 C 
ATOM     17  C   UNL     1       6.068   3.481  12.416  0.00  0.00    +0.000 A 
ATOM     18  C   UNL     1       7.214   4.045  11.840  0.00  0.00    +0.000 A 
ATOM     19  C   UNL     1       7.934   5.028  12.517  0.00  0.00    +0.000 A 
ATOM     20  C   UNL     1       7.513   5.461  13.774  0.00  0.00    +0.000 A 
ATOM     21  C   UNL     1       6.365   4.916  14.365  0.00  0.00    +0.000 A 
ATOM     22  C   UNL     1       5.649   3.919  13.684  0.00  0.00    +0.000 A 
ENDBRANCH  14  21
ENDBRANCH  13  14
ENDBRANCH   1  13
TORSDOF 5
ENDMDL
MODEL 4
REMARK VINA RESULT:      -7.7      1.731      2.148
REMARK  Name = 
REMARK  6 active torsions:
REMARK  status: ('A' for Active; 'I' for Inactive)
REMARK    1  A    between atoms: C_1  and  C_2
REMARK    2  A    between atoms: C_6  and  C_7
REMARK    3  A    between atoms: C_7  and  O_9
REMARK    4  A    between atoms: O_9  and  C_10
REMARK    5  A    between atoms: C_10  and  C_11
REMARK    6  A    between atoms: N_13  and  C_14
REMARK                            x       y       z     vdW  Elec       q    Type
REMARK                         _______ _______ _______ _____ _____    ______ ____
ROOT
ATOM      1  C   UNL     1       6.574   6.593  17.487  0.00  0.00    +0.000 C 
ENDROOT
BRANCH   1   2
ATOM      2  C   UNL     1       5.148   6.031  17.486  0.00  0.00    +0.000 C 
ATOM      3  O   UNL     1       4.254   6.604  16.861  0.00  0.00    +0.000 OA
ATOM      4  N   UNL     1       4.985   4.899  18.275  0.00  0.00    +0.000 N 
ATOM      5  H   UNL     1       5.760   4.624  18.864  0.00  0.00    +0.000 HD
BRANCH   4   6
ATOM      6  C   UNL     1       3.788   4.161  18.419  0.00  0.00    +0.000 A 
ATOM      7  C   UNL     1       3.487   3.036  17.645  0.00  0.00    +0.000 A 
ATOM      8  C   UNL     1       2.260   2.380  17.782  0.00  0.00    +0.000 A 
ATOM      9  C   UNL     1       1.335   2.846  18.702  0.00  0.00    +0.000 A 
ATOM     10  F   UNL     1       0.147   2.238  18.812  0.00  0.00    +0.000 F 
ATOM     11  C   UNL     1       1.627   3.936  19.511  0.00  0.00    +0.000 A 
ATOM     12  C   UNL     1       2.860   4.587  19.382  0.00  0.00    +0.000 A 
ENDBRANCH   4   6
ENDBRANCH   1   2
BRANCH   1  13
ATOM     13  O   UNL     1       7.225   6.400  16.227  0.00  0.00    +0.000 OA
BRANCH  13  14
ATOM     14  C   UNL     1       7.422   5.093  15.917  0.00  0.00    +0.000 C 
ATOM     15  O   UNL     1       7.722   4.222  16.720  0.00  0.00    +0.000 OA
BRANCH  14  21
ATOM     16  C   UNL     1       5.282   2.672  12.025  0.00  0.00    +0.000 C 
ATOM     17  C   UNL     1       6.242   3.693  12.562  0.00  0.00    +0.000 A 
ATOM     18  C   UNL     1       7.033   4.456  11.693  0.00  0.00    +0.000 A 
ATOM     19  C   UNL     1       7.930   5.396  12.196  0.00  0.00    +0.000 A 
ATOM     20  C   UNL     1       8.043   5.588  13.573  0.00  0.00    +0.000 A 
ATOM     21  C   UNL     1       7.255   4.841  14.460  0.00  0.00    +0.000 A 
ATOM     22  C   UNL     1       6.360   3.888  13.949  0.00  0.00    +0.000 A 
ENDBRANCH  14  21
ENDBRANCH  13  14
ENDBRANCH   1  13
TORSDOF 5
ENDMDL
MODEL 5
REMARK VINA RESULT:      -7.7      3.776      6.558
REMARK  Name = 
REMARK  6 active torsions:
REMARK  status: ('A' for Active; 'I' for Inactive)
REMARK    1  A    between atoms: C_1  and  C_2
REMARK    2  A    between atoms: C_6  and  C_7
REMARK    3  A    between atoms: C_7  and  O_9
REMARK    4  A    between atoms: O_9  and  C_10
REMARK    5  A    between atoms: C_10  and  C_11
REMARK    6  A    between atoms: N_13  and  C_14
REMARK                            x       y       z     vdW  Elec       q    Type
REMARK                         _______ _______ _______ _____ _____    ______ ____
ROOT
ATOM      1  C   UNL     1       3.098   1.836  17.719  0.00  0.00    +0.000 C 
ENDROOT
BRANCH   1   2
ATOM      2  C   UNL     1       4.202   2.688  18.356  0.00  0.00    +0.000 C 
ATOM      3  O   UNL     1       4.559   2.477  19.515  0.00  0.00    +0.000 OA
ATOM      4  N   UNL     1       4.680   3.701  17.533  0.00  0.00    +0.000 N 
ATOM      5  H   UNL     1       4.189   3.869  16.664  0.00  0.00    +0.000 HD
BRANCH   4   6
ATOM      6  C   UNL     1       5.721   4.601  17.857  0.00  0.00    +0.000 A 
ATOM      7  C   UNL     1       6.209   4.767  19.157  0.00  0.00    +0.000 A 
ATOM      8  C   UNL     1       7.196   5.718  19.435  0.00  0.00    +0.000 A 
ATOM      9  C   UNL     1       7.703   6.498  18.408  0.00  0.00    +0.000 A 
ATOM     10  F   UNL     1       8.624   7.430  18.678  0.00  0.00    +0.000 F 
ATOM     11  C   UNL     1       7.264   6.323  17.102  0.00  0.00    +0.000 A 
ATOM     12  C   UNL     1       6.283   5.364  16.821  0.00  0.00    +0.000 A 
ENDBRANCH   4   6
ENDBRANCH   1   2
BRANCH   1  13
ATOM     13  O   UNL     1       1.980   2.630  17.309  0.00  0.00    +0.000 OA
BRANCH  13  14
ATOM     14  C   UNL     1       1.167   2.988  18.335  0.00  0.00    +0.000 C 
ATOM     15  O   UNL     1       0.230   2.320  18.749  0.00  0.00    +0.000 OA
BRANCH  14  21
ATOM     16  C   UNL     1       2.852   7.728  17.820  0.00  0.00    +0.000 C 
ATOM     17  C   UNL     1       2.341   6.608  18.678  0.00  0.00    +0.000 A 
ATOM     18  C   UNL     1       2.192   6.779  20.060  0.00  0.00    +0.000 A 
ATOM     19  C   UNL     1       1.725   5.733  20.855  0.00  0.00    +0.000 A 
ATOM     20  C   UNL     1       1.399   4.507  20.275  0.00  0.00    +0.000 A 
ATOM     21  C   UNL     1       1.533   4.318  18.892  0.00  0.00    +0.000 A 
ATOM     22  C   UNL     1       2.012   5.371  18.098  0.00  0.00    +0.000 A 
ENDBRANCH  14  21
ENDBRANCH  13  14
ENDBRANCH   1  13
TORSDOF 5
ENDMDL
MODEL 6
REMARK VINA RESULT:      -7.7      3.935      6.708
REMARK  Name = 
REMARK  6 active torsions:
REMARK  status: ('A' for Active; 'I' for Inactive)
REMARK    1  A    between atoms: C_1  and  C_2
REMARK    2  A    between atoms: C_6  and  C_7
REMARK    3  A    between atoms: C_7  and  O_9
REMARK    4  A    between atoms: O_9  and  C_10
REMARK    5  A    between atoms: C_10  and  C_11
REMARK    6  A    between atoms: N_13  and  C_14
REMARK                            x       y       z     vdW  Elec       q    Type
REMARK                         _______ _______ _______ _____ _____    ______ ____
ROOT
ATOM      1  C   UNL     1       3.629   2.496  17.548  0.00  0.00    +0.000 C 
ENDROOT
BRANCH   1   2
ATOM      2  C   UNL     1       4.711   3.520  17.184  0.00  0.00    +0.000 C 
ATOM      3  O   UNL     1       5.175   3.556  16.044  0.00  0.00    +0.000 OA
ATOM      4  N   UNL     1       5.118   4.315  18.249  0.00  0.00    +0.000 N 
ATOM      5  H   UNL     1       4.775   4.075  19.170  0.00  0.00    +0.000 HD
BRANCH   4   6
ATOM      6  C   UNL     1       6.068   5.359  18.180  0.00  0.00    +0.000 A 
ATOM      7  C   UNL     1       7.221   5.396  18.970  0.00  0.00    +0.000 A 
ATOM      8  C   UNL     1       8.096   6.484  18.910  0.00  0.00    +0.000 A 
ATOM      9  C   UNL     1       7.823   7.535  18.049  0.00  0.00    +0.000 A 
ATOM     10  F   UNL     1       8.642   8.592  18.013  0.00  0.00    +0.000 F 
ATOM     11  C   UNL     1       6.706   7.503  17.223  0.00  0.00    +0.000 A 
ATOM     12  C   UNL     1       5.834   6.408  17.277  0.00  0.00    +0.000 A 
ENDBRANCH   4   6
ENDBRANCH   1   2
BRANCH   1  13
ATOM     13  O   UNL     1       2.323   2.944  17.176  0.00  0.00    +0.000 OA
BRANCH  13  14
ATOM     14  C   UNL     1       1.509   3.176  18.239  0.00  0.00    +0.000 C 
ATOM     15  O   UNL     1       0.678   2.388  18.667  0.00  0.00    +0.000 OA
BRANCH  14  21
ATOM     16  C   UNL     1       2.628   8.088  17.798  0.00  0.00    +0.000 C 
ATOM     17  C   UNL     1       2.264   6.901  18.640  0.00  0.00    +0.000 A 
ATOM     18  C   UNL     1       2.121   7.026  20.027  0.00  0.00    +0.000 A 
ATOM     19  C   UNL     1       1.792   5.918  20.807  0.00  0.00    +0.000 A 
ATOM     20  C   UNL     1       1.599   4.674  20.206  0.00  0.00    +0.000 A 
ATOM     21  C   UNL     1       1.729   4.528  18.818  0.00  0.00    +0.000 A 
ATOM     22  C   UNL     1       2.070   5.644  18.039  0.00  0.00    +0.000 A 
ENDBRANCH  14  21
ENDBRANCH  13  14
ENDBRANCH   1  13
TORSDOF 5
ENDMDL
MODEL 7
REMARK VINA RESULT:      -7.7      2.286      4.187
REMARK  Name = 
REMARK  6 active torsions:
REMARK  status: ('A' for Active; 'I' for Inactive)
REMARK    1  A    between atoms: C_1  and  C_2
REMARK    2  A    between atoms: C_6  and  C_7
REMARK    3  A    between atoms: C_7  and  O_9
REMARK    4  A    between atoms: O_9  and  C_10
REMARK    5  A    between atoms: C_10  and  C_11
REMARK    6  A    between atoms: N_13  and  C_14
REMARK                            x       y       z     vdW  Elec       q    Type
REMARK                         _______ _______ _______ _____ _____    ______ ____
ROOT
ATOM      1  C   UNL     1       4.572   5.323  16.071  0.00  0.00    +0.000 C 
ENDROOT
BRANCH   1   2
ATOM      2  C   UNL     1       3.888   5.186  17.436  0.00  0.00    +0.000 C 
ATOM      3  O   UNL     1       3.808   6.155  18.191  0.00  0.00    +0.000 OA
ATOM      4  N   UNL     1       3.449   3.898  17.722  0.00  0.00    +0.000 N 
ATOM      5  H   UNL     1       3.721   3.159  17.087  0.00  0.00    +0.000 HD
BRANCH   4   6
ATOM      6  C   UNL     1       2.754   3.506  18.889  0.00  0.00    +0.000 A 
ATOM      7  C   UNL     1       1.380   3.701  19.060  0.00  0.00    +0.000 A 
ATOM      8  C   UNL     1       0.752   3.355  20.260  0.00  0.00    +0.000 A 
ATOM      9  C   UNL     1       1.499   2.802  21.288  0.00  0.00    +0.000 A 
ATOM     10  F   UNL     1       0.905   2.499  22.449  0.00  0.00    +0.000 F 
ATOM     11  C   UNL     1       2.857   2.560  21.127  0.00  0.00    +0.000 A 
ATOM     12  C   UNL     1       3.485   2.898  19.921  0.00  0.00    +0.000 A 
ENDBRANCH   4   6
ENDBRANCH   1   2
BRANCH   1  13
ATOM     13  O   UNL     1       5.706   4.458  15.951  0.00  0.00    +0.000 OA
BRANCH  13  14
ATOM     14  C   UNL     1       6.864   5.120  15.699  0.00  0.00    +0.000 C 
ATOM     15  O   UNL     1       7.450   5.119  14.626  0.00  0.00    +0.000 OA
BRANCH  14  21
ATOM     16  C   UNL     1       8.317   9.324  18.106  0.00  0.00    +0.000 C 
ATOM     17  C   UNL     1       8.070   7.844  18.093  0.00  0.00    +0.000 A 
ATOM     18  C   UNL     1       8.311   7.070  19.234  0.00  0.00    +0.000 A 
ATOM     19  C   UNL     1       8.089   5.694  19.215  0.00  0.00    +0.000 A 
ATOM     20  C   UNL     1       7.620   5.078  18.055  0.00  0.00    +0.000 A 
ATOM     21  C   UNL     1       7.365   5.835  16.903  0.00  0.00    +0.000 A 
ATOM     22  C   UNL     1       7.599   7.219  16.925  0.00  0.00    +0.000 A 
ENDBRANCH  14  21
ENDBRANCH  13  14
ENDBRANCH   1  13
TORSDOF 5
ENDMDL
MODEL 8
REMARK VINA RESULT:      -7.7      3.078      7.004
REMARK  Name = 
REMARK  6 active torsions:
REMARK  status: ('A' for Active; 'I' for Inactive)
REMARK    1  A    between atoms: C_1  and  C_2
REMARK    2  A    between atoms: C_6  and  C_7
REMARK    3  A    between atoms: C_7  and  O_9
REMARK    4  A    between atoms: O_9  and  C_10
REMARK    5  A    between atoms: C_10  and  C_11
REMARK    6  A    between atoms: N_13  and  C_14
REMARK                            x       y       z     vdW  Elec       q    Type
REMARK                         _______ _______ _______ _____ _____    ______ ____
ROOT
ATOM      1  C   UNL     1       6.975   6.533  17.697  0.00  0.00    +0.000 C 
ENDROOT
BRANCH   1   2
ATOM      2  C   UNL     1       7.180   5.478  16.605  0.00  0.00    +0.000 C 
ATOM      3  O   UNL     1       7.953   4.536  16.788  0.00  0.00    +0.000 OA
ATOM      4  N   UNL     1       6.475   5.730  15.435  0.00  0.00    +0.000 N 
ATOM      5  H   UNL     1       6.004   6.622  15.355  0.00  0.00    +0.000 HD
BRANCH   4   6
ATOM      6  C   UNL     1       6.454   4.899  14.291  0.00  0.00    +0.000 A 
ATOM      7  C   UNL     1       7.458   4.917  13.317  0.00  0.00    +0.000 A 
ATOM      8  C   UNL     1       7.359   4.121  12.172  0.00  0.00    +0.000 A 
ATOM      9  C   UNL     1       6.257   3.298  12.004  0.00  0.00    +0.000 A 
ATOM     10  F   UNL     1       6.145   2.560  10.894  0.00  0.00    +0.000 F 
ATOM     11  C   UNL     1       5.267   3.232  12.977  0.00  0.00    +0.000 A 
ATOM     12  C   UNL     1       5.371   4.021  14.129  0.00  0.00    +0.000 A 
ENDBRANCH   4   6
ENDBRANCH   1   2
BRANCH   1  13
ATOM     13  O   UNL     1       5.651   6.492  18.238  0.00  0.00    +0.000 OA
BRANCH  13  14
ATOM     14  C   UNL     1       5.451   5.461  19.099  0.00  0.00    +0.000 C 
ATOM     15  O   UNL     1       6.293   5.021  19.869  0.00  0.00    +0.000 OA
BRANCH  14  21
ATOM     16  C   UNL     1       1.317   3.326  21.082  0.00  0.00    +0.000 C 
ATOM     17  C   UNL     1       2.071   3.871  19.905  0.00  0.00    +0.000 A 
ATOM     18  C   UNL     1       1.499   3.865  18.626  0.00  0.00    +0.000 A 
ATOM     19  C   UNL     1       2.205   4.364  17.533  0.00  0.00    +0.000 A 
ATOM     20  C   UNL     1       3.490   4.877  17.708  0.00  0.00    +0.000 A 
ATOM     21  C   UNL     1       4.079   4.900  18.980  0.00  0.00    +0.000 A 
ATOM     22  C   UNL     1       3.367   4.388  20.075  0.00  0.00    +0.000 A 
ENDBRANCH  14  21
ENDBRANCH  13  14
ENDBRANCH   1  13
TORSDOF 5
ENDMDL
MODEL 9
REMARK VINA RESULT:      -7.4      3.532      5.192
REMARK  Name = 
REMARK  6 active torsions:
REMARK  status: ('A' for Active; 'I' for Inactive)
REMARK    1  A    between atoms: C_1  and  C_2
REMARK    2  A    between atoms: C_6  and  C_7
REMARK    3  A    between atoms: C_7  and  O_9
REMARK    4  A    between atoms: O_9  and  C_10
REMARK    5  A    between atoms: C_10  and  C_11
REMARK    6  A    between atoms: N_13  and  C_14
REMARK                            x       y       z     vdW  Elec       q    Type
REMARK                         _______ _______ _______ _____ _____    ______ ____
ROOT
ATOM      1  C   UNL     1       2.683   3.265  20.891  0.00  0.00    +0.000 C 
ENDROOT
BRANCH   1   2
ATOM      2  C   UNL     1       1.919   4.498  20.396  0.00  0.00    +0.000 C 
ATOM      3  O   UNL     1       0.729   4.411  20.089  0.00  0.00    +0.000 OA
ATOM      4  N   UNL     1       2.700   5.643  20.289  0.00  0.00    +0.000 N 
ATOM      5  H   UNL     1       3.698   5.542  20.416  0.00  0.00    +0.000 HD
BRANCH   4   6
ATOM      6  C   UNL     1       2.238   6.920  19.896  0.00  0.00    +0.000 A 
ATOM      7  C   UNL     1       1.533   7.773  20.752  0.00  0.00    +0.000 A 
ATOM      8  C   UNL     1       1.041   8.999  20.296  0.00  0.00    +0.000 A 
ATOM      9  C   UNL     1       1.264   9.379  18.982  0.00  0.00    +0.000 A 
ATOM     10  F   UNL     1       0.767  10.538  18.535  0.00  0.00    +0.000 F 
ATOM     11  C   UNL     1       1.997   8.569  18.125  0.00  0.00    +0.000 A 
ATOM     12  C   UNL     1       2.498   7.345  18.584  0.00  0.00    +0.000 A 
ENDBRANCH   4   6
ENDBRANCH   1   2
BRANCH   1  13
ATOM     13  O   UNL     1       3.965   3.146  20.267  0.00  0.00    +0.000 OA
BRANCH  13  14
ATOM     14  C   UNL     1       3.896   2.829  18.948  0.00  0.00    +0.000 C 
ATOM     15  O   UNL     1       3.236   1.909  18.485  0.00  0.00    +0.000 OA
BRANCH  14  21
ATOM     16  C   UNL     1       5.583   4.504  14.485  0.00  0.00    +0.000 C 
ATOM     17  C   UNL     1       5.581   4.555  15.984  0.00  0.00    +0.000 A 
ATOM     18  C   UNL     1       6.399   5.461  16.669  0.00  0.00    +0.000 A 
ATOM     19  C   UNL     1       6.401   5.499  18.063  0.00  0.00    +0.000 A 
ATOM     20  C   UNL     1       5.580   4.633  18.786  0.00  0.00    +0.000 A 
ATOM     21  C   UNL     1       4.747   3.723  18.120  0.00  0.00    +0.000 A 
ATOM     22  C   UNL     1       4.757   3.683  16.717  0.00  0.00    +0.000 A 
ENDBRANCH  14  21
ENDBRANCH  13  14
ENDBRANCH   1  13
TORSDOF 5
ENDMDL
