MODEL 1
REMARK VINA RESULT:      -7.6      0.000      0.000
REMARK  Name = 
REMARK  7 active torsions:
REMARK  status: ('A' for Active; 'I' for Inactive)
REMARK    1  A    between atoms: O_1  and  C_2
REMARK    2  A    between atoms: C_2  and  C_3
REMARK    3  A    between atoms: C_2  and  C_16
REMARK    4  A    between atoms: C_3  and  O_4
REMARK    5  A    between atoms: O_4  and  C_5
REMARK    6  A    between atoms: N_8  and  C_9
REMARK    7  A    between atoms: C_16  and  N_17
REMARK                            x       y       z     vdW  Elec       q    Type
REMARK                         _______ _______ _______ _____ _____    ______ ____
ROOT
ATOM      1  C   UNL     1       5.492   6.304  17.800  0.00  0.00    +0.000 C 
ENDROOT
BRANCH   1   2
ATOM      2  O   UNL     1       6.600   7.187  17.577  0.00  0.00    +0.000 OA
ATOM      3  H   UNL     1       6.874   7.095  16.650  0.00  0.00    +0.000 HD
ENDBRANCH   1   2
BRANCH   1   4
ATOM      4  C   UNL     1       4.249   6.932  17.152  0.00  0.00    +0.000 C 
BRANCH   4   5
ATOM      5  O   UNL     1       3.636   7.900  18.001  0.00  0.00    +0.000 OA
BRANCH   5   6
ATOM      6  C   UNL     1       2.257   7.602  18.272  0.00  0.00    +0.000 C 
ATOM      7  C   UNL     1       1.306   8.587  17.601  0.00  0.00    +0.000 C 
ATOM      8  C   UNL     1       1.413   9.808  18.507  0.00  0.00    +0.000 C 
ATOM      9  N   UNL     1       1.481   9.229  19.851  0.00  0.00    +0.000 N 
ATOM     10  C   UNL     1       1.933   7.827  19.765  0.00  0.00    +0.000 C 
BRANCH   9  11
ATOM     11  C   UNL     1       0.688   9.693  20.886  0.00  0.00    +0.000 A 
ATOM     12  C   UNL     1      -0.118  10.834  20.757  0.00  0.00    +0.000 A 
ATOM     13  C   UNL     1      -0.880  11.333  21.824  0.00  0.00    +0.000 A 
ATOM     14  C   UNL     1      -0.884  10.680  23.049  0.00  0.00    +0.000 A 
ATOM     15  C   UNL     1      -0.141   9.512  23.192  0.00  0.00    +0.000 A 
ATOM     16  C   UNL     1       0.621   9.026  22.121  0.00  0.00    +0.000 A 
ENDBRANCH   9  11
ENDBRANCH   5   6
ENDBRANCH   4   5
ENDBRANCH   1   4
BRANCH   1  17
ATOM     17  C   UNL     1       5.783   4.917  17.184  0.00  0.00    +0.000 C 
BRANCH  17  18
ATOM     18  N   UNL     1       5.178   3.768  17.885  0.00  0.00    +0.000 NA
ATOM     19  C   UNL     1       4.116   3.176  17.056  0.00  0.00    +0.000 C 
ATOM     20  C   UNL     1       3.436   2.025  17.797  0.00  0.00    +0.000 C 
ATOM     21  C   UNL     1       2.673   2.671  18.917  0.00  0.00    +0.000 A 
ATOM     22  C   UNL     1       1.334   2.364  19.162  0.00  0.00    +0.000 A 
ATOM     23  C   UNL     1       0.620   3.116  20.091  0.00  0.00    +0.000 A 
ATOM     24  C   UNL     1       1.255   4.133  20.804  0.00  0.00    +0.000 A 
ATOM     25  C   UNL     1       2.607   4.414  20.589  0.00  0.00    +0.000 A 
ATOM     26  C   UNL     1       3.323   3.705  19.618  0.00  0.00    +0.000 A 
ATOM     27  C   UNL     1       4.769   4.042  19.281  0.00  0.00    +0.000 C 
ENDBRANCH  17  18
ENDBRANCH   1  17
TORSDOF 7
ENDMDL
MODEL 2
REMARK VINA RESULT:      -7.5      2.704      8.068
REMARK  Name = 
REMARK  7 active torsions:
REMARK  status: ('A' for Active; 'I' for Inactive)
REMARK    1  A    between atoms: O_1  and  C_2
REMARK    2  A    between atoms: C_2  and  C_3
REMARK    3  A    between atoms: C_2  and  C_16
REMARK    4  A    between atoms: C_3  and  O_4
REMARK    5  A    between atoms: O_4  and  C_5
REMARK    6  A    between atoms: N_8  and  C_9
REMARK    7  A    between atoms: C_16  and  N_17
REMARK                            x       y       z     vdW  Elec       q    Type
REMARK                         _______ _______ _______ _____ _____    ______ ____
ROOT
ATOM      1  C   UNL     1       3.571   4.407  19.520  0.00  0.00    +0.000 C 
ENDROOT
BRANCH   1   2
ATOM      2  O   UNL     1       3.692   3.348  18.562  0.00  0.00    +0.000 OA
ATOM      3  H   UNL     1       4.137   3.705  17.776  0.00  0.00    +0.000 HD
ENDBRANCH   1   2
BRANCH   1   4
ATOM      4  C   UNL     1       4.908   5.163  19.561  0.00  0.00    +0.000 C 
BRANCH   4   5
ATOM      5  O   UNL     1       5.959   4.423  18.945  0.00  0.00    +0.000 OA
BRANCH   5   6
ATOM      6  C   UNL     1       6.792   5.240  18.107  0.00  0.00    +0.000 C 
ATOM      7  C   UNL     1       6.017   6.374  17.446  0.00  0.00    +0.000 C 
ATOM      8  C   UNL     1       5.278   5.651  16.326  0.00  0.00    +0.000 C 
ATOM      9  N   UNL     1       6.265   4.686  15.836  0.00  0.00    +0.000 N 
ATOM     10  C   UNL     1       7.281   4.442  16.878  0.00  0.00    +0.000 C 
BRANCH   9  11
ATOM     11  C   UNL     1       6.535   4.539  14.486  0.00  0.00    +0.000 A 
ATOM     12  C   UNL     1       5.841   3.623  13.681  0.00  0.00    +0.000 A 
ATOM     13  C   UNL     1       6.152   3.437  12.326  0.00  0.00    +0.000 A 
ATOM     14  C   UNL     1       7.150   4.192  11.725  0.00  0.00    +0.000 A 
ATOM     15  C   UNL     1       7.818   5.150  12.482  0.00  0.00    +0.000 A 
ATOM     16  C   UNL     1       7.503   5.323  13.836  0.00  0.00    +0.000 A 
ENDBRANCH   9  11
ENDBRANCH   5   6
ENDBRANCH   4   5
ENDBRANCH   1   4
BRANCH   1  17
ATOM     17  C   UNL     1       2.421   5.360  19.123  0.00  0.00    +0.000 C 
BRANCH  17  18
ATOM     18  N   UNL     1       2.470   6.706  19.723  0.00  0.00    +0.000 NA
ATOM     19  C   UNL     1       1.482   6.809  20.809  0.00  0.00    +0.000 C 
ATOM     20  C   UNL     1       1.476   8.219  21.397  0.00  0.00    +0.000 C 
ATOM     21  C   UNL     1       0.895   9.095  20.325  0.00  0.00    +0.000 A 
ATOM     22  C   UNL     1      -0.129  10.002  20.595  0.00  0.00    +0.000 A 
ATOM     23  C   UNL     1      -0.756  10.659  19.541  0.00  0.00    +0.000 A 
ATOM     24  C   UNL     1      -0.329  10.446  18.230  0.00  0.00    +0.000 A 
ATOM     25  C   UNL     1       0.726   9.568  17.962  0.00  0.00    +0.000 A 
ATOM     26  C   UNL     1       1.328   8.858  19.006  0.00  0.00    +0.000 A 
ATOM     27  C   UNL     1       2.412   7.820  18.750  0.00  0.00    +0.000 C 
ENDBRANCH  17  18
ENDBRANCH   1  17
TORSDOF 7
ENDMDL
MODEL 3
REMARK VINA RESULT:      -7.5      5.609      8.984
REMARK  Name = 
REMARK  7 active torsions:
REMARK  status: ('A' for Active; 'I' for Inactive)
REMARK    1  A    between atoms: O_1  and  C_2
REMARK    2  A    between atoms: C_2  and  C_3
REMARK    3  A    between atoms: C_2  and  C_16
REMARK    4  A    between atoms: C_3  and  O_4
REMARK    5  A    between atoms: O_4  and  C_5
REMARK    6  A    between atoms: N_8  and  C_9
REMARK    7  A    between atoms: C_16  and  N_17
REMARK                            x       y       z     vdW  Elec       q    Type
REMARK                         _______ _______ _______ _____ _____    ______ ____
ROOT
ATOM      1  C   UNL     1       8.361   8.324  17.947  0.00  0.00    +0.000 C 
ENDROOT
BRANCH   1   2
ATOM      2  O   UNL     1       8.692   7.604  19.142  0.00  0.00    +0.000 OA
ATOM      3  H   UNL     1       7.926   7.646  19.738  0.00  0.00    +0.000 HD
ENDBRANCH   1   2
BRANCH   1   4
ATOM      4  C   UNL     1       6.998   7.818  17.452  0.00  0.00    +0.000 C 
BRANCH   4   5
ATOM      5  O   UNL     1       6.771   6.457  17.809  0.00  0.00    +0.000 OA
BRANCH   5   6
ATOM      6  C   UNL     1       5.781   5.827  16.979  0.00  0.00    +0.000 C 
ATOM      7  C   UNL     1       4.564   6.716  16.749  0.00  0.00    +0.000 C 
ATOM      8  C   UNL     1       3.813   6.584  18.069  0.00  0.00    +0.000 C 
ATOM      9  N   UNL     1       3.976   5.170  18.413  0.00  0.00    +0.000 N 
ATOM     10  C   UNL     1       5.149   4.619  17.705  0.00  0.00    +0.000 C 
BRANCH   9  11
ATOM     11  C   UNL     1       2.905   4.383  18.799  0.00  0.00    +0.000 A 
ATOM     12  C   UNL     1       2.539   3.223  18.100  0.00  0.00    +0.000 A 
ATOM     13  C   UNL     1       1.421   2.457  18.461  0.00  0.00    +0.000 A 
ATOM     14  C   UNL     1       0.653   2.812  19.561  0.00  0.00    +0.000 A 
ATOM     15  C   UNL     1       1.023   3.924  20.310  0.00  0.00    +0.000 A 
ATOM     16  C   UNL     1       2.137   4.686  19.937  0.00  0.00    +0.000 A 
ENDBRANCH   9  11
ENDBRANCH   5   6
ENDBRANCH   4   5
ENDBRANCH   1   4
BRANCH   1  17
ATOM     17  C   UNL     1       8.306   9.842  18.235  0.00  0.00    +0.000 C 
BRANCH  17  18
ATOM     18  N   UNL     1       9.550  10.438  18.756  0.00  0.00    +0.000 NA
ATOM     19  C   UNL     1       9.307  11.038  20.077  0.00  0.00    +0.000 C 
ATOM     20  C   UNL     1      10.572  11.717  20.600  0.00  0.00    +0.000 C 
ATOM     21  C   UNL     1      10.774  12.913  19.716  0.00  0.00    +0.000 A 
ATOM     22  C   UNL     1      11.017  14.181  20.245  0.00  0.00    +0.000 A 
ATOM     23  C   UNL     1      11.018  15.286  19.398  0.00  0.00    +0.000 A 
ATOM     24  C   UNL     1      10.826  15.117  18.027  0.00  0.00    +0.000 A 
ATOM     25  C   UNL     1      10.624  13.841  17.490  0.00  0.00    +0.000 A 
ATOM     26  C   UNL     1      10.564  12.728  18.336  0.00  0.00    +0.000 A 
ATOM     27  C   UNL     1      10.249  11.336  17.808  0.00  0.00    +0.000 C 
ENDBRANCH  17  18
ENDBRANCH   1  17
TORSDOF 7
ENDMDL
MODEL 4
REMARK VINA RESULT:      -7.1      1.065      1.580
REMARK  Name = 
REMARK  7 active torsions:
REMARK  status: ('A' for Active; 'I' for Inactive)
REMARK    1  A    between atoms: O_1  and  C_2
REMARK    2  A    between atoms: C_2  and  C_3
REMARK    3  A    between atoms: C_2  and  C_16
REMARK    4  A    between atoms: C_3  and  O_4
REMARK    5  A    between atoms: O_4  and  C_5
REMARK    6  A    between atoms: N_8  and  C_9
REMARK    7  A    between atoms: C_16  and  N_17
REMARK                            x       y       z     vdW  Elec       q    Type
REMARK                         _______ _______ _______ _____ _____    ______ ____
ROOT
ATOM      1  C   UNL     1       4.680   6.071  17.718  0.00  0.00    +0.000 C 
ENDROOT
BRANCH   1   2
ATOM      2  O   UNL     1       6.052   6.314  18.055  0.00  0.00    +0.000 OA
ATOM      3  H   UNL     1       6.454   6.817  17.328  0.00  0.00    +0.000 HD
ENDBRANCH   1   2
BRANCH   1   4
ATOM      4  C   UNL     1       4.141   7.316  16.997  0.00  0.00    +0.000 C 
BRANCH   4   5
ATOM      5  O   UNL     1       3.542   8.240  17.903  0.00  0.00    +0.000 OA
BRANCH   5   6
ATOM      6  C   UNL     1       2.158   7.946  18.155  0.00  0.00    +0.000 C 
ATOM      7  C   UNL     1       1.224   9.003  17.575  0.00  0.00    +0.000 C 
ATOM      8  C   UNL     1       1.359  10.141  18.580  0.00  0.00    +0.000 C 
ATOM      9  N   UNL     1       1.420   9.449  19.870  0.00  0.00    +0.000 N 
ATOM     10  C   UNL     1       1.844   8.050  19.664  0.00  0.00    +0.000 C 
BRANCH   9  11
ATOM     11  C   UNL     1       0.641   9.839  20.945  0.00  0.00    +0.000 A 
ATOM     12  C   UNL     1       0.513   9.051  22.099  0.00  0.00    +0.000 A 
ATOM     13  C   UNL     1      -0.319   9.422  23.166  0.00  0.00    +0.000 A 
ATOM     14  C   UNL     1      -1.025  10.616  23.123  0.00  0.00    +0.000 A 
ATOM     15  C   UNL     1      -0.876  11.448  22.017  0.00  0.00    +0.000 A 
ATOM     16  C   UNL     1      -0.046  11.065  20.955  0.00  0.00    +0.000 A 
ENDBRANCH   9  11
ENDBRANCH   5   6
ENDBRANCH   4   5
ENDBRANCH   1   4
BRANCH   1  17
ATOM     17  C   UNL     1       4.566   4.826  16.809  0.00  0.00    +0.000 C 
BRANCH  17  18
ATOM     18  N   UNL     1       3.525   3.852  17.189  0.00  0.00    +0.000 NA
ATOM     19  C   UNL     1       2.269   4.552  17.500  0.00  0.00    +0.000 C 
ATOM     20  C   UNL     1       1.200   3.561  17.957  0.00  0.00    +0.000 C 
ATOM     21  C   UNL     1       1.660   3.075  19.301  0.00  0.00    +0.000 A 
ATOM     22  C   UNL     1       0.804   3.048  20.403  0.00  0.00    +0.000 A 
ATOM     23  C   UNL     1       1.320   2.762  21.663  0.00  0.00    +0.000 A 
ATOM     24  C   UNL     1       2.673   2.457  21.812  0.00  0.00    +0.000 A 
ATOM     25  C   UNL     1       3.524   2.441  20.703  0.00  0.00    +0.000 A 
ATOM     26  C   UNL     1       3.031   2.782  19.438  0.00  0.00    +0.000 A 
ATOM     27  C   UNL     1       3.940   2.875  18.221  0.00  0.00    +0.000 C 
ENDBRANCH  17  18
ENDBRANCH   1  17
TORSDOF 7
ENDMDL
MODEL 5
REMARK VINA RESULT:      -7.0      3.540      5.443
REMARK  Name = 
REMARK  7 active torsions:
REMARK  status: ('A' for Active; 'I' for Inactive)
REMARK    1  A    between atoms: O_1  and  C_2
REMARK    2  A    between atoms: C_2  and  C_3
REMARK    3  A    between atoms: C_2  and  C_16
REMARK    4  A    between atoms: C_3  and  O_4
REMARK    5  A    between atoms: O_4  and  C_5
REMARK    6  A    between atoms: N_8  and  C_9
REMARK    7  A    between atoms: C_16  and  N_17
REMARK                            x       y       z     vdW  Elec       q    Type
REMARK                         _______ _______ _______ _____ _____    ______ ____
ROOT
ATOM      1  C   UNL     1       0.934   8.884  21.925  0.00  0.00    +0.000 C 
ENDROOT
BRANCH   1   2
ATOM      2  O   UNL     1       2.172   9.276  22.533  0.00  0.00    +0.000 OA
ATOM      3  H   UNL     1       1.977   9.596  23.429  0.00  0.00    +0.000 HD
ENDBRANCH   1   2
BRANCH   1   4
ATOM      4  C   UNL     1      -0.052  10.053  22.062  0.00  0.00    +0.000 C 
BRANCH   4   5
ATOM      5  O   UNL     1       0.604  11.317  21.993  0.00  0.00    +0.000 OA
BRANCH   5   6
ATOM      6  C   UNL     1      -0.132  12.279  21.221  0.00  0.00    +0.000 C 
ATOM      7  C   UNL     1      -0.294  11.856  19.765  0.00  0.00    +0.000 C 
ATOM      8  C   UNL     1       1.080  12.164  19.184  0.00  0.00    +0.000 C 
ATOM      9  N   UNL     1       1.448  13.426  19.831  0.00  0.00    +0.000 N 
ATOM     10  C   UNL     1       0.670  13.591  21.074  0.00  0.00    +0.000 C 
BRANCH   9  11
ATOM     11  C   UNL     1       1.933  14.503  19.109  0.00  0.00    +0.000 A 
ATOM     12  C   UNL     1       1.389  15.790  19.232  0.00  0.00    +0.000 A 
ATOM     13  C   UNL     1       1.848  16.869  18.461  0.00  0.00    +0.000 A 
ATOM     14  C   UNL     1       2.893  16.697  17.564  0.00  0.00    +0.000 A 
ATOM     15  C   UNL     1       3.492  15.446  17.461  0.00  0.00    +0.000 A 
ATOM     16  C   UNL     1       3.023  14.374  18.231  0.00  0.00    +0.000 A 
ENDBRANCH   9  11
ENDBRANCH   5   6
ENDBRANCH   4   5
ENDBRANCH   1   4
BRANCH   1  17
ATOM     17  C   UNL     1       1.157   8.534  20.436  0.00  0.00    +0.000 C 
BRANCH  17  18
ATOM     18  N   UNL     1       2.136   7.462  20.172  0.00  0.00    +0.000 NA
ATOM     19  C   UNL     1       2.363   7.333  18.724  0.00  0.00    +0.000 C 
ATOM     20  C   UNL     1       3.325   6.183  18.432  0.00  0.00    +0.000 C 
ATOM     21  C   UNL     1       2.565   4.933  18.769  0.00  0.00    +0.000 A 
ATOM     22  C   UNL     1       2.507   3.852  17.890  0.00  0.00    +0.000 A 
ATOM     23  C   UNL     1       1.646   2.793  18.164  0.00  0.00    +0.000 A 
ATOM     24  C   UNL     1       0.887   2.794  19.335  0.00  0.00    +0.000 A 
ATOM     25  C   UNL     1       0.975   3.858  20.238  0.00  0.00    +0.000 A 
ATOM     26  C   UNL     1       1.793   4.956  19.947  0.00  0.00    +0.000 A 
ATOM     27  C   UNL     1       1.845   6.179  20.852  0.00  0.00    +0.000 C 
ENDBRANCH  17  18
ENDBRANCH   1  17
TORSDOF 7
ENDMDL
MODEL 6
REMARK VINA RESULT:      -7.0      5.560      9.308
REMARK  Name = 
REMARK  7 active torsions:
REMARK  status: ('A' for Active; 'I' for Inactive)
REMARK    1  A    between atoms: O_1  and  C_2
REMARK    2  A    between atoms: C_2  and  C_3
REMARK    3  A    between atoms: C_2  and  C_16
REMARK    4  A    between atoms: C_3  and  O_4
REMARK    5  A    between atoms: O_4  and  C_5
REMARK    6  A    between atoms: N_8  and  C_9
REMARK    7  A    between atoms: C_16  and  N_17
REMARK                            x       y       z     vdW  Elec       q    Type
REMARK                         _______ _______ _______ _____ _____    ______ ____
ROOT
ATOM      1  C   UNL     1       8.524   8.527  18.104  0.00  0.00    +0.000 C 
ENDROOT
BRANCH   1   2
ATOM      2  O   UNL     1       8.696   7.531  19.122  0.00  0.00    +0.000 OA
ATOM      3  H   UNL     1       8.227   6.730  18.837  0.00  0.00    +0.000 HD
ENDBRANCH   1   2
BRANCH   1   4
ATOM      4  C   UNL     1       7.149   8.310  17.457  0.00  0.00    +0.000 C 
BRANCH   4   5
ATOM      5  O   UNL     1       7.126   7.152  16.626  0.00  0.00    +0.000 OA
BRANCH   5   6
ATOM      6  C   UNL     1       7.073   5.931  17.382  0.00  0.00    +0.000 C 
ATOM      7  C   UNL     1       7.116   4.694  16.493  0.00  0.00    +0.000 C 
ATOM      8  C   UNL     1       5.694   4.637  15.948  0.00  0.00    +0.000 C 
ATOM      9  N   UNL     1       4.873   5.022  17.098  0.00  0.00    +0.000 N 
ATOM     10  C   UNL     1       5.697   5.773  18.066  0.00  0.00    +0.000 C 
BRANCH   9  11
ATOM     11  C   UNL     1       3.759   4.294  17.477  0.00  0.00    +0.000 A 
ATOM     12  C   UNL     1       2.548   4.909  17.827  0.00  0.00    +0.000 A 
ATOM     13  C   UNL     1       1.436   4.172  18.262  0.00  0.00    +0.000 A 
ATOM     14  C   UNL     1       1.494   2.787  18.327  0.00  0.00    +0.000 A 
ATOM     15  C   UNL     1       2.663   2.143  17.933  0.00  0.00    +0.000 A 
ATOM     16  C   UNL     1       3.768   2.889  17.505  0.00  0.00    +0.000 A 
ENDBRANCH   9  11
ENDBRANCH   5   6
ENDBRANCH   4   5
ENDBRANCH   1   4
BRANCH   1  17
ATOM     17  C   UNL     1       8.618   9.942  18.720  0.00  0.00    +0.000 C 
BRANCH  17  18
ATOM     18  N   UNL     1       9.159  10.989  17.834  0.00  0.00    +0.000 NA
ATOM     19  C   UNL     1      10.473  11.434  18.324  0.00  0.00    +0.000 C 
ATOM     20  C   UNL     1      11.016  12.565  17.452  0.00  0.00    +0.000 C 
ATOM     21  C   UNL     1      10.132  13.745  17.735  0.00  0.00    +0.000 A 
ATOM     22  C   UNL     1      10.659  15.000  18.036  0.00  0.00    +0.000 A 
ATOM     23  C   UNL     1       9.808  16.014  18.467  0.00  0.00    +0.000 A 
ATOM     24  C   UNL     1       8.434  15.786  18.548  0.00  0.00    +0.000 A 
ATOM     25  C   UNL     1       7.899  14.541  18.206  0.00  0.00    +0.000 A 
ATOM     26  C   UNL     1       8.748  13.495  17.826  0.00  0.00    +0.000 A 
ATOM     27  C   UNL     1       8.220  12.096  17.541  0.00  0.00    +0.000 C 
ENDBRANCH  17  18
ENDBRANCH   1  17
TORSDOF 7
ENDMDL
MODEL 7
REMARK VINA RESULT:      -6.8      3.851      5.201
REMARK  Name = 
REMARK  7 active torsions:
REMARK  status: ('A' for Active; 'I' for Inactive)
REMARK    1  A    between atoms: O_1  and  C_2
REMARK    2  A    between atoms: C_2  and  C_3
REMARK    3  A    between atoms: C_2  and  C_16
REMARK    4  A    between atoms: C_3  and  O_4
REMARK    5  A    between atoms: O_4  and  C_5
REMARK    6  A    between atoms: N_8  and  C_9
REMARK    7  A    between atoms: C_16  and  N_17
REMARK                            x       y       z     vdW  Elec       q    Type
REMARK                         _______ _______ _______ _____ _____    ______ ____
ROOT
ATOM      1  C   UNL     1       1.578   9.606  18.213  0.00  0.00    +0.000 C 
ENDROOT
BRANCH   1   2
ATOM      2  O   UNL     1       2.108  10.764  17.554  0.00  0.00    +0.000 OA
ATOM      3  H   UNL     1       1.794  10.754  16.634  0.00  0.00    +0.000 HD
ENDBRANCH   1   2
BRANCH   1   4
ATOM      4  C   UNL     1       0.061   9.576  17.973  0.00  0.00    +0.000 C 
BRANCH   4   5
ATOM      5  O   UNL     1      -0.637  10.452  18.854  0.00  0.00    +0.000 OA
BRANCH   5   6
ATOM      6  C   UNL     1      -1.215  11.577  18.172  0.00  0.00    +0.000 C 
ATOM      7  C   UNL     1      -1.440  12.767  19.098  0.00  0.00    +0.000 C 
ATOM      8  C   UNL     1      -2.691  12.350  19.862  0.00  0.00    +0.000 C 
ATOM      9  N   UNL     1      -3.514  11.700  18.839  0.00  0.00    +0.000 N 
ATOM     10  C   UNL     1      -2.658  11.259  17.720  0.00  0.00    +0.000 C 
BRANCH   9  11
ATOM     11  C   UNL     1      -4.852  12.010  18.673  0.00  0.00    +0.000 A 
ATOM     12  C   UNL     1      -5.401  12.301  17.415  0.00  0.00    +0.000 A 
ATOM     13  C   UNL     1      -6.746  12.667  17.255  0.00  0.00    +0.000 A 
ATOM     14  C   UNL     1      -7.594  12.718  18.352  0.00  0.00    +0.000 A 
ATOM     15  C   UNL     1      -7.095  12.379  19.606  0.00  0.00    +0.000 A 
ATOM     16  C   UNL     1      -5.749  12.021  19.754  0.00  0.00    +0.000 A 
ENDBRANCH   9  11
ENDBRANCH   5   6
ENDBRANCH   4   5
ENDBRANCH   1   4
BRANCH   1  17
ATOM     17  C   UNL     1       2.241   8.325  17.659  0.00  0.00    +0.000 C 
BRANCH  17  18
ATOM     18  N   UNL     1       2.980   7.512  18.643  0.00  0.00    +0.000 NA
ATOM     19  C   UNL     1       3.754   6.467  17.953  0.00  0.00    +0.000 C 
ATOM     20  C   UNL     1       4.474   5.576  18.964  0.00  0.00    +0.000 C 
ATOM     21  C   UNL     1       3.389   4.798  19.650  0.00  0.00    +0.000 A 
ATOM     22  C   UNL     1       3.466   3.413  19.804  0.00  0.00    +0.000 A 
ATOM     23  C   UNL     1       2.360   2.716  20.281  0.00  0.00    +0.000 A 
ATOM     24  C   UNL     1       1.204   3.405  20.648  0.00  0.00    +0.000 A 
ATOM     25  C   UNL     1       1.140   4.797  20.534  0.00  0.00    +0.000 A 
ATOM     26  C   UNL     1       2.223   5.505  20.003  0.00  0.00    +0.000 A 
ATOM     27  C   UNL     1       2.161   7.008  19.768  0.00  0.00    +0.000 C 
ENDBRANCH  17  18
ENDBRANCH   1  17
TORSDOF 7
ENDMDL
MODEL 8
REMARK VINA RESULT:      -6.8      3.958      7.718
REMARK  Name = 
REMARK  7 active torsions:
REMARK  status: ('A' for Active; 'I' for Inactive)
REMARK    1  A    between atoms: O_1  and  C_2
REMARK    2  A    between atoms: C_2  and  C_3
REMARK    3  A    between atoms: C_2  and  C_16
REMARK    4  A    between atoms: C_3  and  O_4
REMARK    5  A    between atoms: O_4  and  C_5
REMARK    6  A    between atoms: N_8  and  C_9
REMARK    7  A    between atoms: C_16  and  N_17
REMARK                            x       y       z     vdW  Elec       q    Type
REMARK                         _______ _______ _______ _____ _____    ______ ____
ROOT
ATOM      1  C   UNL     1       7.591   5.631  18.819  0.00  0.00    +0.000 C 
ENDROOT
BRANCH   1   2
ATOM      2  O   UNL     1       8.219   4.374  18.528  0.00  0.00    +0.000 OA
ATOM      3  H   UNL     1       8.966   4.264  19.138  0.00  0.00    +0.000 HD
ENDBRANCH   1   2
BRANCH   1   4
ATOM      4  C   UNL     1       7.445   6.404  17.501  0.00  0.00    +0.000 C 
BRANCH   4   5
ATOM      5  O   UNL     1       7.643   5.566  16.365  0.00  0.00    +0.000 OA
BRANCH   5   6
ATOM      6  C   UNL     1       6.977   6.061  15.191  0.00  0.00    +0.000 C 
ATOM      7  C   UNL     1       5.459   5.987  15.309  0.00  0.00    +0.000 C 
ATOM      8  C   UNL     1       5.188   4.507  15.066  0.00  0.00    +0.000 C 
ATOM      9  N   UNL     1       6.134   4.158  14.004  0.00  0.00    +0.000 N 
ATOM     10  C   UNL     1       7.240   5.135  13.983  0.00  0.00    +0.000 C 
BRANCH   9  11
ATOM     11  C   UNL     1       5.741   3.456  12.878  0.00  0.00    +0.000 A 
ATOM     12  C   UNL     1       4.534   3.723  12.214  0.00  0.00    +0.000 A 
ATOM     13  C   UNL     1       4.113   2.975  11.104  0.00  0.00    +0.000 A 
ATOM     14  C   UNL     1       4.908   1.955  10.603  0.00  0.00    +0.000 A 
ATOM     15  C   UNL     1       6.138   1.703  11.203  0.00  0.00    +0.000 A 
ATOM     16  C   UNL     1       6.546   2.452  12.314  0.00  0.00    +0.000 A 
ENDBRANCH   9  11
ENDBRANCH   5   6
ENDBRANCH   4   5
ENDBRANCH   1   4
BRANCH   1  17
ATOM     17  C   UNL     1       6.209   5.399  19.470  0.00  0.00    +0.000 C 
BRANCH  17  18
ATOM     18  N   UNL     1       5.094   5.167  18.533  0.00  0.00    +0.000 NA
ATOM     19  C   UNL     1       3.901   5.907  18.976  0.00  0.00    +0.000 C 
ATOM     20  C   UNL     1       2.719   5.623  18.050  0.00  0.00    +0.000 C 
ATOM     21  C   UNL     1       2.346   4.192  18.309  0.00  0.00    +0.000 A 
ATOM     22  C   UNL     1       1.026   3.812  18.551  0.00  0.00    +0.000 A 
ATOM     23  C   UNL     1       0.754   2.510  18.963  0.00  0.00    +0.000 A 
ATOM     24  C   UNL     1       1.790   1.584  19.084  0.00  0.00    +0.000 A 
ATOM     25  C   UNL     1       3.109   1.953  18.802  0.00  0.00    +0.000 A 
ATOM     26  C   UNL     1       3.404   3.272  18.442  0.00  0.00    +0.000 A 
ATOM     27  C   UNL     1       4.835   3.742  18.221  0.00  0.00    +0.000 C 
ENDBRANCH  17  18
ENDBRANCH   1  17
TORSDOF 7
ENDMDL
MODEL 9
REMARK VINA RESULT:      -6.8      3.713      5.559
REMARK  Name = 
REMARK  7 active torsions:
REMARK  status: ('A' for Active; 'I' for Inactive)
REMARK    1  A    between atoms: O_1  and  C_2
REMARK    2  A    between atoms: C_2  and  C_3
REMARK    3  A    between atoms: C_2  and  C_16
REMARK    4  A    between atoms: C_3  and  O_4
REMARK    5  A    between atoms: O_4  and  C_5
REMARK    6  A    between atoms: N_8  and  C_9
REMARK    7  A    between atoms: C_16  and  N_17
REMARK                            x       y       z     vdW  Elec       q    Type
REMARK                         _______ _______ _______ _____ _____    ______ ____
ROOT
ATOM      1  C   UNL     1       0.925   8.969  21.948  0.00  0.00    +0.000 C 
ENDROOT
BRANCH   1   2
ATOM      2  O   UNL     1       2.185   9.224  22.583  0.00  0.00    +0.000 OA
ATOM      3  H   UNL     1       2.024   9.335  23.534  0.00  0.00    +0.000 HD
ENDBRANCH   1   2
BRANCH   1   4
ATOM      4  C   UNL     1       0.034  10.204  22.153  0.00  0.00    +0.000 C 
BRANCH   4   5
ATOM      5  O   UNL     1       0.574  11.362  21.521  0.00  0.00    +0.000 OA
BRANCH   5   6
ATOM      6  C   UNL     1      -0.413  12.094  20.775  0.00  0.00    +0.000 C 
ATOM      7  C   UNL     1      -0.363  11.783  19.283  0.00  0.00    +0.000 C 
ATOM      8  C   UNL     1       0.849  12.586  18.826  0.00  0.00    +0.000 C 
ATOM      9  N   UNL     1       0.742  13.829  19.592  0.00  0.00    +0.000 N 
ATOM     10  C   UNL     1      -0.097  13.605  20.787  0.00  0.00    +0.000 C 
BRANCH   9  11
ATOM     11  C   UNL     1       0.863  15.070  18.992  0.00  0.00    +0.000 A 
ATOM     12  C   UNL     1       2.099  15.571  18.555  0.00  0.00    +0.000 A 
ATOM     13  C   UNL     1       2.228  16.850  17.995  0.00  0.00    +0.000 A 
ATOM     14  C   UNL     1       1.112  17.658  17.823  0.00  0.00    +0.000 A 
ATOM     15  C   UNL     1      -0.136  17.168  18.194  0.00  0.00    +0.000 A 
ATOM     16  C   UNL     1      -0.253  15.891  18.757  0.00  0.00    +0.000 A 
ENDBRANCH   9  11
ENDBRANCH   5   6
ENDBRANCH   4   5
ENDBRANCH   1   4
BRANCH   1  17
ATOM     17  C   UNL     1       1.131   8.691  20.442  0.00  0.00    +0.000 C 
BRANCH  17  18
ATOM     18  N   UNL     1       2.099   7.628  20.116  0.00  0.00    +0.000 NA
ATOM     19  C   UNL     1       2.217   7.484  18.656  0.00  0.00    +0.000 C 
ATOM     20  C   UNL     1       3.169   6.341  18.304  0.00  0.00    +0.000 C 
ATOM     21  C   UNL     1       2.451   5.087  18.712  0.00  0.00    +0.000 A 
ATOM     22  C   UNL     1       2.339   3.995  17.852  0.00  0.00    +0.000 A 
ATOM     23  C   UNL     1       1.515   2.930  18.203  0.00  0.00    +0.000 A 
ATOM     24  C   UNL     1       0.847   2.937  19.427  0.00  0.00    +0.000 A 
ATOM     25  C   UNL     1       0.991   4.012  20.309  0.00  0.00    +0.000 A 
ATOM     26  C   UNL     1       1.771   5.115  19.945  0.00  0.00    +0.000 A 
ATOM     27  C   UNL     1       1.877   6.349  20.830  0.00  0.00    +0.000 C 
ENDBRANCH  17  18
ENDBRANCH   1  17
TORSDOF 7
ENDMDL
