MODEL 1
REMARK VINA RESULT:      -8.1      0.000      0.000
REMARK  Name = 
REMARK  8 active torsions:
REMARK  status: ('A' for Active; 'I' for Inactive)
REMARK    1  A    between atoms: C_1  and  C_2
REMARK    2  A    between atoms: C_4  and  C_5
REMARK    3  A    between atoms: C_5  and  C_6
REMARK    4  A    between atoms: C_5  and  N_15
REMARK    5  A    between atoms: C_9  and  C_10
REMARK    6  A    between atoms: C_10  and  C_11
REMARK    7  A    between atoms: C_10  and  C_12
REMARK    8  A    between atoms: N_18  and  C_19
REMARK                            x       y       z     vdW  Elec       q    Type
REMARK                         _______ _______ _______ _____ _____    ______ ____
ROOT
ATOM      1  C   UNL     1       3.415   5.846  17.413  0.00  0.00    +0.000 C 
ENDROOT
BRANCH   1   2
ATOM      2  N   UNL     1       3.244   4.432  17.870  0.00  0.00    +0.000 NA
ATOM      3  C   UNL     1       1.806   4.054  17.890  0.00  0.00    +0.000 C 
ATOM      4  C   UNL     1       1.537   2.632  18.441  0.00  0.00    +0.000 C 
ATOM      5  N   UNL     1       2.124   2.357  19.764  0.00  0.00    +0.000 NA
ATOM      6  C   UNL     1       1.399   3.038  20.834  0.00  0.00    +0.000 C 
ATOM      7  C   UNL     1       3.545   2.748  19.734  0.00  0.00    +0.000 C 
ATOM      8  C   UNL     1       3.809   4.190  19.220  0.00  0.00    +0.000 C 
ENDBRANCH   1   2
BRANCH   1  12
ATOM      9  C   UNL     1       8.108   8.080  17.698  0.00  0.00    +0.000 C 
ATOM     10  C   UNL     1       7.022   7.137  17.322  0.00  0.00    +0.000 A 
ATOM     11  C   UNL     1       5.684   7.169  17.826  0.00  0.00    +0.000 A 
ATOM     12  C   UNL     1       4.889   6.198  17.239  0.00  0.00    +0.000 A 
ATOM     13  S   UNL     1       5.895   5.301  16.173  0.00  0.00    +0.000 S 
ATOM     14  N   UNL     1       7.279   6.169  16.446  0.00  0.00    +0.000 NA
ENDBRANCH   1  12
BRANCH   1  15
ATOM     15  C   UNL     1       2.707   6.880  18.311  0.00  0.00    +0.000 A 
ATOM     16  C   UNL     1       2.211   8.078  17.777  0.00  0.00    +0.000 A 
ATOM     17  C   UNL     1       1.516   8.999  18.576  0.00  0.00    +0.000 A 
ATOM     18  C   UNL     1       1.287   8.735  19.936  0.00  0.00    +0.000 A 
ATOM     19  C   UNL     1       1.808   7.561  20.473  0.00  0.00    +0.000 A 
ATOM     20  C   UNL     1       2.489   6.642  19.675  0.00  0.00    +0.000 A 
BRANCH  18  21
ATOM     21  C   UNL     1       0.461   9.683  20.794  0.00  0.00    +0.000 C 
ATOM     22  C   UNL     1      -0.582  10.417  19.942  0.00  0.00    +0.000 C 
ATOM     23  C   UNL     1      -0.236   8.962  21.953  0.00  0.00    +0.000 C 
ENDBRANCH  18  21
ENDBRANCH   1  15
TORSDOF 4
ENDMDL
MODEL 2
REMARK VINA RESULT:      -8.0      1.887      4.547
REMARK  Name = 
REMARK  8 active torsions:
REMARK  status: ('A' for Active; 'I' for Inactive)
REMARK    1  A    between atoms: C_1  and  C_2
REMARK    2  A    between atoms: C_4  and  C_5
REMARK    3  A    between atoms: C_5  and  C_6
REMARK    4  A    between atoms: C_5  and  N_15
REMARK    5  A    between atoms: C_9  and  C_10
REMARK    6  A    between atoms: C_10  and  C_11
REMARK    7  A    between atoms: C_10  and  C_12
REMARK    8  A    between atoms: N_18  and  C_19
REMARK                            x       y       z     vdW  Elec       q    Type
REMARK                         _______ _______ _______ _____ _____    ______ ____
ROOT
ATOM      1  C   UNL     1       3.300   6.102  19.058  0.00  0.00    +0.000 C 
ENDROOT
BRANCH   1   2
ATOM      2  N   UNL     1       3.927   5.764  17.742  0.00  0.00    +0.000 NA
ATOM      3  C   UNL     1       4.380   4.347  17.723  0.00  0.00    +0.000 C 
ATOM      4  C   UNL     1       5.125   3.943  16.426  0.00  0.00    +0.000 C 
ATOM      5  N   UNL     1       6.256   4.814  16.062  0.00  0.00    +0.000 NA
ATOM      6  C   UNL     1       7.410   4.601  16.932  0.00  0.00    +0.000 C 
ATOM      7  C   UNL     1       5.797   6.214  16.099  0.00  0.00    +0.000 C 
ATOM      8  C   UNL     1       5.087   6.628  17.417  0.00  0.00    +0.000 C 
ENDBRANCH   1   2
BRANCH   1  12
ATOM      9  C   UNL     1       1.300   2.358  22.072  0.00  0.00    +0.000 C 
ATOM     10  C   UNL     1       1.544   3.234  20.895  0.00  0.00    +0.000 A 
ATOM     11  C   UNL     1       2.438   4.349  20.863  0.00  0.00    +0.000 A 
ATOM     12  C   UNL     1       2.494   4.927  19.605  0.00  0.00    +0.000 A 
ATOM     13  S   UNL     1       1.384   4.074  18.608  0.00  0.00    +0.000 S 
ATOM     14  N   UNL     1       0.895   2.989  19.760  0.00  0.00    +0.000 NA
ENDBRANCH   1  12
BRANCH   1  15
ATOM     15  C   UNL     1       2.449   7.386  19.030  0.00  0.00    +0.000 A 
ATOM     16  C   UNL     1       2.224   8.075  17.830  0.00  0.00    +0.000 A 
ATOM     17  C   UNL     1       1.405   9.213  17.786  0.00  0.00    +0.000 A 
ATOM     18  C   UNL     1       0.774   9.685  18.948  0.00  0.00    +0.000 A 
ATOM     19  C   UNL     1       1.025   9.022  20.146  0.00  0.00    +0.000 A 
ATOM     20  C   UNL     1       1.830   7.884  20.186  0.00  0.00    +0.000 A 
BRANCH  18  21
ATOM     21  C   UNL     1      -0.185  10.866  18.900  0.00  0.00    +0.000 C 
ATOM     22  C   UNL     1      -1.408  10.536  18.034  0.00  0.00    +0.000 C 
ATOM     23  C   UNL     1      -0.645  11.301  20.295  0.00  0.00    +0.000 C 
ENDBRANCH  18  21
ENDBRANCH   1  15
TORSDOF 4
ENDMDL
MODEL 3
REMARK VINA RESULT:      -8.0      0.251      1.030
REMARK  Name = 
REMARK  8 active torsions:
REMARK  status: ('A' for Active; 'I' for Inactive)
REMARK    1  A    between atoms: C_1  and  C_2
REMARK    2  A    between atoms: C_4  and  C_5
REMARK    3  A    between atoms: C_5  and  C_6
REMARK    4  A    between atoms: C_5  and  N_15
REMARK    5  A    between atoms: C_9  and  C_10
REMARK    6  A    between atoms: C_10  and  C_11
REMARK    7  A    between atoms: C_10  and  C_12
REMARK    8  A    between atoms: N_18  and  C_19
REMARK                            x       y       z     vdW  Elec       q    Type
REMARK                         _______ _______ _______ _____ _____    ______ ____
ROOT
ATOM      1  C   UNL     1       3.535   5.751  17.345  0.00  0.00    +0.000 C 
ENDROOT
BRANCH   1   2
ATOM      2  N   UNL     1       3.421   4.322  17.775  0.00  0.00    +0.000 NA
ATOM      3  C   UNL     1       2.000   3.884  17.774  0.00  0.00    +0.000 C 
ATOM      4  C   UNL     1       1.786   2.442  18.297  0.00  0.00    +0.000 C 
ATOM      5  N   UNL     1       2.374   2.167  19.620  0.00  0.00    +0.000 NA
ATOM      6  C   UNL     1       1.611   2.797  20.696  0.00  0.00    +0.000 C 
ATOM      7  C   UNL     1       3.776   2.619  19.611  0.00  0.00    +0.000 C 
ATOM      8  C   UNL     1       3.983   4.080  19.125  0.00  0.00    +0.000 C 
ENDBRANCH   1   2
BRANCH   1  12
ATOM      9  C   UNL     1       8.094   8.230  17.758  0.00  0.00    +0.000 C 
ATOM     10  C   UNL     1       7.073   7.225  17.361  0.00  0.00    +0.000 A 
ATOM     11  C   UNL     1       5.717   7.197  17.816  0.00  0.00    +0.000 A 
ATOM     12  C   UNL     1       4.996   6.176  17.218  0.00  0.00    +0.000 A 
ATOM     13  S   UNL     1       6.085   5.314  16.206  0.00  0.00    +0.000 S 
ATOM     14  N   UNL     1       7.411   6.258  16.513  0.00  0.00    +0.000 NA
ENDBRANCH   1  12
BRANCH   1  15
ATOM     15  C   UNL     1       2.754   6.734  18.239  0.00  0.00    +0.000 A 
ATOM     16  C   UNL     1       2.549   6.464  19.599  0.00  0.00    +0.000 A 
ATOM     17  C   UNL     1       1.888   7.379  20.432  0.00  0.00    +0.000 A 
ATOM     18  C   UNL     1       1.423   8.602  19.923  0.00  0.00    +0.000 A 
ATOM     19  C   UNL     1       1.595   8.855  18.565  0.00  0.00    +0.000 A 
ATOM     20  C   UNL     1       2.263   7.949  17.741  0.00  0.00    +0.000 A 
BRANCH  18  21
ATOM     21  C   UNL     1       0.780   9.641  20.832  0.00  0.00    +0.000 C 
ATOM     22  C   UNL     1      -0.039  10.646  20.012  0.00  0.00    +0.000 C 
ATOM     23  C   UNL     1      -0.109   9.006  21.906  0.00  0.00    +0.000 C 
ENDBRANCH  18  21
ENDBRANCH   1  15
TORSDOF 4
ENDMDL
MODEL 4
REMARK VINA RESULT:      -7.8      1.895      4.642
REMARK  Name = 
REMARK  8 active torsions:
REMARK  status: ('A' for Active; 'I' for Inactive)
REMARK    1  A    between atoms: C_1  and  C_2
REMARK    2  A    between atoms: C_4  and  C_5
REMARK    3  A    between atoms: C_5  and  C_6
REMARK    4  A    between atoms: C_5  and  N_15
REMARK    5  A    between atoms: C_9  and  C_10
REMARK    6  A    between atoms: C_10  and  C_11
REMARK    7  A    between atoms: C_10  and  C_12
REMARK    8  A    between atoms: N_18  and  C_19
REMARK                            x       y       z     vdW  Elec       q    Type
REMARK                         _______ _______ _______ _____ _____    ______ ____
ROOT
ATOM      1  C   UNL     1       3.286   6.083  19.055  0.00  0.00    +0.000 C 
ENDROOT
BRANCH   1   2
ATOM      2  N   UNL     1       3.927   5.745  17.746  0.00  0.00    +0.000 NA
ATOM      3  C   UNL     1       4.381   4.329  17.732  0.00  0.00    +0.000 C 
ATOM      4  C   UNL     1       5.140   3.925  16.444  0.00  0.00    +0.000 C 
ATOM      5  N   UNL     1       6.275   4.797  16.092  0.00  0.00    +0.000 NA
ATOM      6  C   UNL     1       7.419   4.584  16.975  0.00  0.00    +0.000 C 
ATOM      7  C   UNL     1       5.816   6.197  16.123  0.00  0.00    +0.000 C 
ATOM      8  C   UNL     1       5.090   6.611  17.433  0.00  0.00    +0.000 C 
ENDBRANCH   1   2
BRANCH   1  12
ATOM      9  C   UNL     1       1.323   2.322  22.072  0.00  0.00    +0.000 C 
ATOM     10  C   UNL     1       1.558   3.200  20.895  0.00  0.00    +0.000 A 
ATOM     11  C   UNL     1       2.441   4.324  20.861  0.00  0.00    +0.000 A 
ATOM     12  C   UNL     1       2.491   4.902  19.603  0.00  0.00    +0.000 A 
ATOM     13  S   UNL     1       1.389   4.037  18.607  0.00  0.00    +0.000 S 
ATOM     14  N   UNL     1       0.910   2.948  19.760  0.00  0.00    +0.000 NA
ENDBRANCH   1  12
BRANCH   1  15
ATOM     15  C   UNL     1       2.417   7.356  19.012  0.00  0.00    +0.000 A 
ATOM     16  C   UNL     1       1.816   7.857  20.175  0.00  0.00    +0.000 A 
ATOM     17  C   UNL     1       1.070   9.045  20.155  0.00  0.00    +0.000 A 
ATOM     18  C   UNL     1       0.917   9.774  18.965  0.00  0.00    +0.000 A 
ATOM     19  C   UNL     1       1.485   9.258  17.803  0.00  0.00    +0.000 A 
ATOM     20  C   UNL     1       2.236   8.083  17.827  0.00  0.00    +0.000 A 
BRANCH  18  21
ATOM     21  C   UNL     1       0.184  11.108  18.946  0.00  0.00    +0.000 C 
ATOM     22  C   UNL     1      -1.323  10.896  18.748  0.00  0.00    +0.000 C 
ATOM     23  C   UNL     1       0.426  11.925  20.219  0.00  0.00    +0.000 C 
ENDBRANCH  18  21
ENDBRANCH   1  15
TORSDOF 4
ENDMDL
MODEL 5
REMARK VINA RESULT:      -7.7      1.517      4.503
REMARK  Name = 
REMARK  8 active torsions:
REMARK  status: ('A' for Active; 'I' for Inactive)
REMARK    1  A    between atoms: C_1  and  C_2
REMARK    2  A    between atoms: C_4  and  C_5
REMARK    3  A    between atoms: C_5  and  C_6
REMARK    4  A    between atoms: C_5  and  N_15
REMARK    5  A    between atoms: C_9  and  C_10
REMARK    6  A    between atoms: C_10  and  C_11
REMARK    7  A    between atoms: C_10  and  C_12
REMARK    8  A    between atoms: N_18  and  C_19
REMARK                            x       y       z     vdW  Elec       q    Type
REMARK                         _______ _______ _______ _____ _____    ______ ____
ROOT
ATOM      1  C   UNL     1       3.842   6.402  18.849  0.00  0.00    +0.000 C 
ENDROOT
BRANCH   1   2
ATOM      2  N   UNL     1       4.776   6.575  17.694  0.00  0.00    +0.000 NA
ATOM      3  C   UNL     1       4.529   5.538  16.657  0.00  0.00    +0.000 C 
ATOM      4  C   UNL     1       5.518   5.590  15.466  0.00  0.00    +0.000 C 
ATOM      5  N   UNL     1       6.943   5.565  15.841  0.00  0.00    +0.000 NA
ATOM      6  C   UNL     1       7.365   4.239  16.287  0.00  0.00    +0.000 C 
ATOM      7  C   UNL     1       7.171   6.587  16.878  0.00  0.00    +0.000 C 
ATOM      8  C   UNL     1       6.203   6.506  18.090  0.00  0.00    +0.000 C 
ENDBRANCH   1   2
BRANCH   1  12
ATOM      9  C   UNL     1       0.676   2.276  18.618  0.00  0.00    +0.000 C 
ATOM     10  C   UNL     1       1.904   3.096  18.790  0.00  0.00    +0.000 A 
ATOM     11  C   UNL     1       1.995   4.508  18.579  0.00  0.00    +0.000 A 
ATOM     12  C   UNL     1       3.257   4.993  18.882  0.00  0.00    +0.000 A 
ATOM     13  S   UNL     1       4.221   3.644  19.333  0.00  0.00    +0.000 S 
ATOM     14  N   UNL     1       3.031   2.502  19.173  0.00  0.00    +0.000 NA
ENDBRANCH   1  12
BRANCH   1  15
ATOM     15  C   UNL     1       2.723   7.461  18.909  0.00  0.00    +0.000 A 
ATOM     16  C   UNL     1       2.014   7.693  20.096  0.00  0.00    +0.000 A 
ATOM     17  C   UNL     1       1.033   8.693  20.175  0.00  0.00    +0.000 A 
ATOM     18  C   UNL     1       0.745   9.501  19.063  0.00  0.00    +0.000 A 
ATOM     19  C   UNL     1       1.425   9.248  17.875  0.00  0.00    +0.000 A 
ATOM     20  C   UNL     1       2.408   8.261  17.802  0.00  0.00    +0.000 A 
BRANCH  18  21
ATOM     21  C   UNL     1      -0.254  10.646  19.158  0.00  0.00    +0.000 C 
ATOM     22  C   UNL     1      -1.512  10.337  18.336  0.00  0.00    +0.000 C 
ATOM     23  C   UNL     1      -0.648  10.957  20.605  0.00  0.00    +0.000 C 
ENDBRANCH  18  21
ENDBRANCH   1  15
TORSDOF 4
ENDMDL
MODEL 6
REMARK VINA RESULT:      -7.7      0.892      1.538
REMARK  Name = 
REMARK  8 active torsions:
REMARK  status: ('A' for Active; 'I' for Inactive)
REMARK    1  A    between atoms: C_1  and  C_2
REMARK    2  A    between atoms: C_4  and  C_5
REMARK    3  A    between atoms: C_5  and  C_6
REMARK    4  A    between atoms: C_5  and  N_15
REMARK    5  A    between atoms: C_9  and  C_10
REMARK    6  A    between atoms: C_10  and  C_11
REMARK    7  A    between atoms: C_10  and  C_12
REMARK    8  A    between atoms: N_18  and  C_19
REMARK                            x       y       z     vdW  Elec       q    Type
REMARK                         _______ _______ _______ _____ _____    ______ ____
ROOT
ATOM      1  C   UNL     1       2.901   6.059  17.882  0.00  0.00    +0.000 C 
ENDROOT
BRANCH   1   2
ATOM      2  N   UNL     1       2.756   4.830  18.723  0.00  0.00    +0.000 NA
ATOM      3  C   UNL     1       4.089   4.255  19.049  0.00  0.00    +0.000 C 
ATOM      4  C   UNL     1       4.023   2.925  19.841  0.00  0.00    +0.000 C 
ATOM      5  N   UNL     1       3.184   1.879  19.231  0.00  0.00    +0.000 NA
ATOM      6  C   UNL     1       3.821   1.286  18.058  0.00  0.00    +0.000 C 
ATOM      7  C   UNL     1       1.873   2.465  18.901  0.00  0.00    +0.000 C 
ATOM      8  C   UNL     1       1.941   3.777  18.071  0.00  0.00    +0.000 C 
ENDBRANCH   1   2
BRANCH   1  12
ATOM      9  C   UNL     1       7.807   7.771  17.576  0.00  0.00    +0.000 C 
ATOM     10  C   UNL     1       6.569   6.999  17.292  0.00  0.00    +0.000 A 
ATOM     11  C   UNL     1       5.349   7.086  18.034  0.00  0.00    +0.000 A 
ATOM     12  C   UNL     1       4.356   6.290  17.486  0.00  0.00    +0.000 A 
ATOM     13  S   UNL     1       5.052   5.465  16.149  0.00  0.00    +0.000 S 
ATOM     14  N   UNL     1       6.556   6.149  16.269  0.00  0.00    +0.000 NA
ENDBRANCH   1  12
BRANCH   1  15
ATOM     15  C   UNL     1       2.299   7.325  18.522  0.00  0.00    +0.000 A 
ATOM     16  C   UNL     1       1.957   8.436  17.737  0.00  0.00    +0.000 A 
ATOM     17  C   UNL     1       1.358   9.571  18.304  0.00  0.00    +0.000 A 
ATOM     18  C   UNL     1       1.071   9.618  19.677  0.00  0.00    +0.000 A 
ATOM     19  C   UNL     1       1.442   8.529  20.462  0.00  0.00    +0.000 A 
ATOM     20  C   UNL     1       2.028   7.397  19.896  0.00  0.00    +0.000 A 
BRANCH  18  21
ATOM     21  C   UNL     1       0.343  10.806  20.291  0.00  0.00    +0.000 C 
ATOM     22  C   UNL     1      -0.893  11.173  19.459  0.00  0.00    +0.000 C 
ATOM     23  C   UNL     1      -0.071  10.549  21.744  0.00  0.00    +0.000 C 
ENDBRANCH  18  21
ENDBRANCH   1  15
TORSDOF 4
ENDMDL
MODEL 7
REMARK VINA RESULT:      -7.5      0.949      1.209
REMARK  Name = 
REMARK  8 active torsions:
REMARK  status: ('A' for Active; 'I' for Inactive)
REMARK    1  A    between atoms: C_1  and  C_2
REMARK    2  A    between atoms: C_4  and  C_5
REMARK    3  A    between atoms: C_5  and  C_6
REMARK    4  A    between atoms: C_5  and  N_15
REMARK    5  A    between atoms: C_9  and  C_10
REMARK    6  A    between atoms: C_10  and  C_11
REMARK    7  A    between atoms: C_10  and  C_12
REMARK    8  A    between atoms: N_18  and  C_19
REMARK                            x       y       z     vdW  Elec       q    Type
REMARK                         _______ _______ _______ _____ _____    ______ ____
ROOT
ATOM      1  C   UNL     1       3.431   5.538  17.600  0.00  0.00    +0.000 C 
ENDROOT
BRANCH   1   2
ATOM      2  N   UNL     1       2.964   4.155  17.927  0.00  0.00    +0.000 NA
ATOM      3  C   UNL     1       1.497   4.139  18.172  0.00  0.00    +0.000 C 
ATOM      4  C   UNL     1       0.948   2.758  18.609  0.00  0.00    +0.000 C 
ATOM      5  N   UNL     1       1.634   2.153  19.764  0.00  0.00    +0.000 NA
ATOM      6  C   UNL     1       1.285   2.821  21.016  0.00  0.00    +0.000 C 
ATOM      7  C   UNL     1       3.086   2.188  19.515  0.00  0.00    +0.000 C 
ATOM      8  C   UNL     1       3.641   3.584  19.117  0.00  0.00    +0.000 C 
ENDBRANCH   1   2
BRANCH   1  12
ATOM      9  C   UNL     1       8.325   5.916  19.333  0.00  0.00    +0.000 C 
ATOM     10  C   UNL     1       7.168   5.811  18.406  0.00  0.00    +0.000 A 
ATOM     11  C   UNL     1       5.802   5.654  18.800  0.00  0.00    +0.000 A 
ATOM     12  C   UNL     1       4.949   5.649  17.707  0.00  0.00    +0.000 A 
ATOM     13  S   UNL     1       5.930   5.773  16.302  0.00  0.00    +0.000 S 
ATOM     14  N   UNL     1       7.382   5.865  17.094  0.00  0.00    +0.000 NA
ENDBRANCH   1  12
BRANCH   1  15
ATOM     15  C   UNL     1       2.741   6.640  18.428  0.00  0.00    +0.000 A 
ATOM     16  C   UNL     1       2.314   7.832  17.825  0.00  0.00    +0.000 A 
ATOM     17  C   UNL     1       1.635   8.816  18.560  0.00  0.00    +0.000 A 
ATOM     18  C   UNL     1       1.354   8.625  19.922  0.00  0.00    +0.000 A 
ATOM     19  C   UNL     1       1.808   7.457  20.528  0.00  0.00    +0.000 A 
ATOM     20  C   UNL     1       2.472   6.475  19.794  0.00  0.00    +0.000 A 
BRANCH  18  21
ATOM     21  C   UNL     1       0.543   9.645  20.710  0.00  0.00    +0.000 C 
ATOM     22  C   UNL     1       0.687   9.402  22.218  0.00  0.00    +0.000 C 
ATOM     23  C   UNL     1       0.942  11.087  20.381  0.00  0.00    +0.000 C 
ENDBRANCH  18  21
ENDBRANCH   1  15
TORSDOF 4
ENDMDL
MODEL 8
REMARK VINA RESULT:      -7.5      1.019      1.961
REMARK  Name = 
REMARK  8 active torsions:
REMARK  status: ('A' for Active; 'I' for Inactive)
REMARK    1  A    between atoms: C_1  and  C_2
REMARK    2  A    between atoms: C_4  and  C_5
REMARK    3  A    between atoms: C_5  and  C_6
REMARK    4  A    between atoms: C_5  and  N_15
REMARK    5  A    between atoms: C_9  and  C_10
REMARK    6  A    between atoms: C_10  and  C_11
REMARK    7  A    between atoms: C_10  and  C_12
REMARK    8  A    between atoms: N_18  and  C_19
REMARK                            x       y       z     vdW  Elec       q    Type
REMARK                         _______ _______ _______ _____ _____    ______ ____
ROOT
ATOM      1  C   UNL     1       2.898   6.029  17.826  0.00  0.00    +0.000 C 
ENDROOT
BRANCH   1   2
ATOM      2  N   UNL     1       2.754   4.825  18.703  0.00  0.00    +0.000 NA
ATOM      3  C   UNL     1       4.086   4.256  19.040  0.00  0.00    +0.000 C 
ATOM      4  C   UNL     1       4.020   2.950  19.870  0.00  0.00    +0.000 C 
ATOM      5  N   UNL     1       3.177   1.889  19.294  0.00  0.00    +0.000 NA
ATOM      6  C   UNL     1       3.808   1.261  18.135  0.00  0.00    +0.000 C 
ATOM      7  C   UNL     1       1.866   2.469  18.951  0.00  0.00    +0.000 C 
ATOM      8  C   UNL     1       1.934   3.756  18.084  0.00  0.00    +0.000 C 
ENDBRANCH   1   2
BRANCH   1  12
ATOM      9  C   UNL     1       7.802   7.755  17.560  0.00  0.00    +0.000 C 
ATOM     10  C   UNL     1       6.568   6.978  17.267  0.00  0.00    +0.000 A 
ATOM     11  C   UNL     1       5.341   7.064  17.996  0.00  0.00    +0.000 A 
ATOM     12  C   UNL     1       4.356   6.263  17.443  0.00  0.00    +0.000 A 
ATOM     13  S   UNL     1       5.068   5.434  16.116  0.00  0.00    +0.000 S 
ATOM     14  N   UNL     1       6.568   6.123  16.248  0.00  0.00    +0.000 NA
ENDBRANCH   1  12
BRANCH   1  15
ATOM     15  C   UNL     1       2.275   7.308  18.418  0.00  0.00    +0.000 A 
ATOM     16  C   UNL     1       2.003   7.408  19.790  0.00  0.00    +0.000 A 
ATOM     17  C   UNL     1       1.488   8.589  20.346  0.00  0.00    +0.000 A 
ATOM     18  C   UNL     1       1.243   9.711  19.540  0.00  0.00    +0.000 A 
ATOM     19  C   UNL     1       1.480   9.601  18.172  0.00  0.00    +0.000 A 
ATOM     20  C   UNL     1       2.003   8.430  17.623  0.00  0.00    +0.000 A 
BRANCH  18  21
ATOM     21  C   UNL     1       0.766  11.026  20.141  0.00  0.00    +0.000 C 
ATOM     22  C   UNL     1       1.257  12.215  19.304  0.00  0.00    +0.000 C 
ATOM     23  C   UNL     1      -0.759  11.086  20.277  0.00  0.00    +0.000 C 
ENDBRANCH  18  21
ENDBRANCH   1  15
TORSDOF 4
ENDMDL
MODEL 9
REMARK VINA RESULT:      -7.5      1.834      4.604
REMARK  Name = 
REMARK  8 active torsions:
REMARK  status: ('A' for Active; 'I' for Inactive)
REMARK    1  A    between atoms: C_1  and  C_2
REMARK    2  A    between atoms: C_4  and  C_5
REMARK    3  A    between atoms: C_5  and  C_6
REMARK    4  A    between atoms: C_5  and  N_15
REMARK    5  A    between atoms: C_9  and  C_10
REMARK    6  A    between atoms: C_10  and  C_11
REMARK    7  A    between atoms: C_10  and  C_12
REMARK    8  A    between atoms: N_18  and  C_19
REMARK                            x       y       z     vdW  Elec       q    Type
REMARK                         _______ _______ _______ _____ _____    ______ ____
ROOT
ATOM      1  C   UNL     1       3.410   6.177  19.119  0.00  0.00    +0.000 C 
ENDROOT
BRANCH   1   2
ATOM      2  N   UNL     1       4.256   5.971  17.902  0.00  0.00    +0.000 NA
ATOM      3  C   UNL     1       4.578   4.530  17.723  0.00  0.00    +0.000 C 
ATOM      4  C   UNL     1       5.530   4.242  16.535  0.00  0.00    +0.000 C 
ATOM      5  N   UNL     1       6.782   5.018  16.539  0.00  0.00    +0.000 NA
ATOM      6  C   UNL     1       7.716   4.540  17.556  0.00  0.00    +0.000 C 
ATOM      7  C   UNL     1       6.449   6.441  16.732  0.00  0.00    +0.000 C 
ATOM      8  C   UNL     1       5.528   6.731  17.949  0.00  0.00    +0.000 C 
ENDBRANCH   1   2
BRANCH   1  12
ATOM      9  C   UNL     1       0.331   1.990  18.820  0.00  0.00    +0.000 C 
ATOM     10  C   UNL     1       1.219   3.044  19.379  0.00  0.00    +0.000 A 
ATOM     11  C   UNL     1       1.874   4.064  18.621  0.00  0.00    +0.000 A 
ATOM     12  C   UNL     1       2.582   4.935  19.434  0.00  0.00    +0.000 A 
ATOM     13  S   UNL     1       2.418   4.363  21.047  0.00  0.00    +0.000 S 
ATOM     14  N   UNL     1       1.444   3.072  20.690  0.00  0.00    +0.000 NA
ENDBRANCH   1  12
BRANCH   1  15
ATOM     15  C   UNL     1       2.515   7.430  19.051  0.00  0.00    +0.000 A 
ATOM     16  C   UNL     1       2.297   8.093  17.835  0.00  0.00    +0.000 A 
ATOM     17  C   UNL     1       1.440   9.201  17.753  0.00  0.00    +0.000 A 
ATOM     18  C   UNL     1       0.764   9.667  18.892  0.00  0.00    +0.000 A 
ATOM     19  C   UNL     1       1.008   9.031  20.105  0.00  0.00    +0.000 A 
ATOM     20  C   UNL     1       1.851   7.922  20.183  0.00  0.00    +0.000 A 
BRANCH  18  21
ATOM     21  C   UNL     1      -0.234  10.813  18.802  0.00  0.00    +0.000 C 
ATOM     22  C   UNL     1      -1.530  10.351  18.123  0.00  0.00    +0.000 C 
ATOM     23  C   UNL     1      -0.558  11.413  20.174  0.00  0.00    +0.000 C 
ENDBRANCH  18  21
ENDBRANCH   1  15
TORSDOF 4
ENDMDL
