MODEL 1
REMARK VINA RESULT:      -7.7      0.000      0.000
REMARK  Name = 
REMARK  8 active torsions:
REMARK  status: ('A' for Active; 'I' for Inactive)
REMARK    1  A    between atoms: C_1  and  C_2
REMARK    2  A    between atoms: C_6  and  N_7
REMARK    3  A    between atoms: C_8  and  C_10
REMARK    4  A    between atoms: C_10  and  N_11
REMARK    5  A    between atoms: C_14  and  C_15
REMARK    6  A    between atoms: N_17  and  C_18
REMARK    7  A    between atoms: C_18  and  C_19
REMARK    8  A    between atoms: C_24  and  N_25
REMARK                            x       y       z     vdW  Elec       q    Type
REMARK                         _______ _______ _______ _____ _____    ______ ____
ROOT
ATOM      1  N   UNL     1       1.490   9.073  19.480  0.00  0.00    +0.000 N 
ATOM      2  N   UNL     1       1.806   9.176  18.172  0.00  0.00    +0.000 NA
ATOM      3  N   UNL     1       2.435   8.065  17.822  0.00  0.00    +0.000 NA
ATOM      4  C   UNL     1       2.516   7.242  18.926  0.00  0.00    +0.000 A 
ATOM      5  C   UNL     1       1.937   7.886  20.011  0.00  0.00    +0.000 A 
ENDROOT
BRANCH   4   6
ATOM      6  C   UNL     1       3.087   5.903  18.880  0.00  0.00    +0.000 C 
ATOM      7  O   UNL     1       3.442   5.291  19.883  0.00  0.00    +0.000 OA
ATOM      8  N   UNL     1       3.172   5.381  17.610  0.00  0.00    +0.000 N 
ATOM      9  H   UNL     1       2.946   5.984  16.825  0.00  0.00    +0.000 HD
BRANCH   8  10
ATOM     10  C   UNL     1       3.739   4.087  17.344  0.00  0.00    +0.000 C 
BRANCH  10  11
ATOM     11  C   UNL     1       5.090   4.264  16.757  0.00  0.00    +0.000 A 
ATOM     12  C   UNL     1       5.554   4.351  15.460  0.00  0.00    +0.000 A 
ATOM     13  C   UNL     1       6.958   4.510  15.548  0.00  0.00    +0.000 A 
ATOM     14  C   UNL     1       7.261   4.515  16.887  0.00  0.00    +0.000 A 
ATOM     15  O   UNL     1       6.135   4.364  17.632  0.00  0.00    +0.000 OA
ENDBRANCH  10  11
ENDBRANCH   8  10
ENDBRANCH   4   6
BRANCH   5  16
ATOM     16  N   UNL     1       1.784   7.517  21.303  0.00  0.00    +0.000 N 
ATOM     17  H   UNL     1       2.014   6.556  21.573  0.00  0.00    +0.000 HD
ATOM     18  H   UNL     1       1.185   7.984  21.978  0.00  0.00    +0.000 HD
ENDBRANCH   5  16
BRANCH   1  19
ATOM     19  C   UNL     1       0.684  10.101  20.093  0.00  0.00    +0.000 C 
BRANCH  19  21
ATOM     20  N   UNL     1      -1.458  10.070  18.831  0.00  0.00    +0.000 N 
ATOM     21  C   UNL     1      -0.333  10.784  19.206  0.00  0.00    +0.000 C 
ATOM     22  O   UNL     1      -0.111  11.956  18.890  0.00  0.00    +0.000 OA
ATOM     23  H   UNL     1      -1.659   9.212  19.343  0.00  0.00    +0.000 HD
BRANCH  20  29
ATOM     24  C   UNL     1      -3.167  10.116  14.198  0.00  0.00    +0.000 C 
ATOM     25  C   UNL     1      -3.303  10.525  15.636  0.00  0.00    +0.000 A 
ATOM     26  C   UNL     1      -4.406  11.274  16.054  0.00  0.00    +0.000 A 
ATOM     27  C   UNL     1      -4.530  11.650  17.388  0.00  0.00    +0.000 A 
ATOM     28  C   UNL     1      -3.561  11.268  18.317  0.00  0.00    +0.000 A 
ATOM     29  C   UNL     1      -2.458  10.503  17.928  0.00  0.00    +0.000 A 
ATOM     30  C   UNL     1      -2.325  10.155  16.576  0.00  0.00    +0.000 A 
ENDBRANCH  20  29
ENDBRANCH  19  21
ENDBRANCH   1  19
TORSDOF 7
ENDMDL
MODEL 2
REMARK VINA RESULT:      -7.7      3.623      5.877
REMARK  Name = 
REMARK  8 active torsions:
REMARK  status: ('A' for Active; 'I' for Inactive)
REMARK    1  A    between atoms: C_1  and  C_2
REMARK    2  A    between atoms: C_6  and  N_7
REMARK    3  A    between atoms: C_8  and  C_10
REMARK    4  A    between atoms: C_10  and  N_11
REMARK    5  A    between atoms: C_14  and  C_15
REMARK    6  A    between atoms: N_17  and  C_18
REMARK    7  A    between atoms: C_18  and  C_19
REMARK    8  A    between atoms: C_24  and  N_25
REMARK                            x       y       z     vdW  Elec       q    Type
REMARK                         _______ _______ _______ _____ _____    ______ ____
ROOT
ATOM      1  N   UNL     1       4.802   4.019  18.871  0.00  0.00    +0.000 N 
ATOM      2  N   UNL     1       5.980   4.321  19.456  0.00  0.00    +0.000 NA
ATOM      3  N   UNL     1       6.826   4.668  18.499  0.00  0.00    +0.000 NA
ATOM      4  C   UNL     1       6.173   4.587  17.287  0.00  0.00    +0.000 A 
ATOM      5  C   UNL     1       4.876   4.144  17.503  0.00  0.00    +0.000 A 
ENDROOT
BRANCH   4   6
ATOM      6  C   UNL     1       6.791   4.968  16.024  0.00  0.00    +0.000 C 
ATOM      7  O   UNL     1       7.519   5.948  15.903  0.00  0.00    +0.000 OA
ATOM      8  N   UNL     1       6.496   4.116  14.985  0.00  0.00    +0.000 N 
ATOM      9  H   UNL     1       5.812   3.382  15.143  0.00  0.00    +0.000 HD
BRANCH   8  10
ATOM     10  C   UNL     1       6.978   4.333  13.648  0.00  0.00    +0.000 C 
BRANCH  10  11
ATOM     11  C   UNL     1       6.101   3.607  12.697  0.00  0.00    +0.000 A 
ATOM     12  C   UNL     1       4.796   3.790  12.286  0.00  0.00    +0.000 A 
ATOM     13  C   UNL     1       4.521   2.757  11.356  0.00  0.00    +0.000 A 
ATOM     14  C   UNL     1       5.672   2.016  11.255  0.00  0.00    +0.000 A 
ATOM     15  O   UNL     1       6.638   2.521  12.065  0.00  0.00    +0.000 OA
ENDBRANCH  10  11
ENDBRANCH   8  10
ENDBRANCH   4   6
BRANCH   5  16
ATOM     16  N   UNL     1       3.857   3.886  16.652  0.00  0.00    +0.000 N 
ATOM     17  H   UNL     1       4.071   3.676  15.673  0.00  0.00    +0.000 HD
ATOM     18  H   UNL     1       2.891   4.171  16.792  0.00  0.00    +0.000 HD
ENDBRANCH   5  16
BRANCH   1  19
ATOM     19  C   UNL     1       3.657   3.727  19.700  0.00  0.00    +0.000 C 
BRANCH  19  21
ATOM     20  N   UNL     1       2.996   6.119  19.834  0.00  0.00    +0.000 N 
ATOM     21  C   UNL     1       2.592   4.797  19.786  0.00  0.00    +0.000 C 
ATOM     22  O   UNL     1       1.415   4.424  19.781  0.00  0.00    +0.000 OA
ATOM     23  H   UNL     1       3.963   6.322  19.585  0.00  0.00    +0.000 HD
BRANCH  20  29
ATOM     24  C   UNL     1       1.128  10.293  17.968  0.00  0.00    +0.000 C 
ATOM     25  C   UNL     1       1.232   9.308  19.096  0.00  0.00    +0.000 A 
ATOM     26  C   UNL     1       0.486   9.492  20.263  0.00  0.00    +0.000 A 
ATOM     27  C   UNL     1       0.584   8.575  21.306  0.00  0.00    +0.000 A 
ATOM     28  C   UNL     1       1.415   7.460  21.183  0.00  0.00    +0.000 A 
ATOM     29  C   UNL     1       2.155   7.243  20.019  0.00  0.00    +0.000 A 
ATOM     30  C   UNL     1       2.075   8.188  18.986  0.00  0.00    +0.000 A 
ENDBRANCH  20  29
ENDBRANCH  19  21
ENDBRANCH   1  19
TORSDOF 7
ENDMDL
MODEL 3
REMARK VINA RESULT:      -7.6      6.354      9.149
REMARK  Name = 
REMARK  8 active torsions:
REMARK  status: ('A' for Active; 'I' for Inactive)
REMARK    1  A    between atoms: C_1  and  C_2
REMARK    2  A    between atoms: C_6  and  N_7
REMARK    3  A    between atoms: C_8  and  C_10
REMARK    4  A    between atoms: C_10  and  N_11
REMARK    5  A    between atoms: C_14  and  C_15
REMARK    6  A    between atoms: N_17  and  C_18
REMARK    7  A    between atoms: C_18  and  C_19
REMARK    8  A    between atoms: C_24  and  N_25
REMARK                            x       y       z     vdW  Elec       q    Type
REMARK                         _______ _______ _______ _____ _____    ______ ____
ROOT
ATOM      1  N   UNL     1       6.853   6.580  17.292  0.00  0.00    +0.000 N 
ATOM      2  N   UNL     1       7.573   5.443  17.384  0.00  0.00    +0.000 NA
ATOM      3  N   UNL     1       6.725   4.445  17.582  0.00  0.00    +0.000 NA
ATOM      4  C   UNL     1       5.446   4.959  17.611  0.00  0.00    +0.000 A 
ATOM      5  C   UNL     1       5.509   6.336  17.453  0.00  0.00    +0.000 A 
ENDROOT
BRANCH   4   6
ATOM      6  C   UNL     1       4.257   4.127  17.741  0.00  0.00    +0.000 C 
ATOM      7  O   UNL     1       3.125   4.533  17.497  0.00  0.00    +0.000 OA
ATOM      8  N   UNL     1       4.524   2.839  18.144  0.00  0.00    +0.000 N 
ATOM      9  H   UNL     1       5.474   2.607  18.416  0.00  0.00    +0.000 HD
BRANCH   8  10
ATOM     10  C   UNL     1       3.487   1.869  18.366  0.00  0.00    +0.000 C 
BRANCH  10  11
ATOM     11  C   UNL     1       2.675   2.291  19.533  0.00  0.00    +0.000 A 
ATOM     12  C   UNL     1       1.327   2.527  19.712  0.00  0.00    +0.000 A 
ATOM     13  C   UNL     1       1.164   2.914  21.064  0.00  0.00    +0.000 A 
ATOM     14  C   UNL     1       2.417   2.886  21.625  0.00  0.00    +0.000 A 
ATOM     15  O   UNL     1       3.343   2.510  20.705  0.00  0.00    +0.000 OA
ENDBRANCH  10  11
ENDBRANCH   8  10
ENDBRANCH   4   6
BRANCH   5  16
ATOM     16  N   UNL     1       4.548   7.288  17.432  0.00  0.00    +0.000 N 
ATOM     17  H   UNL     1       4.024   7.441  16.565  0.00  0.00    +0.000 HD
ATOM     18  H   UNL     1       4.487   8.073  18.075  0.00  0.00    +0.000 HD
ENDBRANCH   5  16
BRANCH   1  19
ATOM     19  C   UNL     1       7.522   7.812  16.949  0.00  0.00    +0.000 C 
BRANCH  19  21
ATOM     20  N   UNL     1       8.543   9.849  17.942  0.00  0.00    +0.000 N 
ATOM     21  C   UNL     1       8.296   8.493  18.056  0.00  0.00    +0.000 C 
ATOM     22  O   UNL     1       8.639   7.797  19.016  0.00  0.00    +0.000 OA
ATOM     23  H   UNL     1       8.010  10.365  17.243  0.00  0.00    +0.000 HD
BRANCH  20  29
ATOM     24  C   UNL     1      12.333  12.969  18.491  0.00  0.00    +0.000 C 
ATOM     25  C   UNL     1      11.209  12.173  19.089  0.00  0.00    +0.000 A 
ATOM     26  C   UNL     1      10.946  12.246  20.460  0.00  0.00    +0.000 A 
ATOM     27  C   UNL     1       9.902  11.508  21.011  0.00  0.00    +0.000 A 
ATOM     28  C   UNL     1       9.104  10.705  20.194  0.00  0.00    +0.000 A 
ATOM     29  C   UNL     1       9.334  10.630  18.818  0.00  0.00    +0.000 A 
ATOM     30  C   UNL     1      10.407  11.352  18.276  0.00  0.00    +0.000 A 
ENDBRANCH  20  29
ENDBRANCH  19  21
ENDBRANCH   1  19
TORSDOF 7
ENDMDL
MODEL 4
REMARK VINA RESULT:      -7.5      3.607      5.768
REMARK  Name = 
REMARK  8 active torsions:
REMARK  status: ('A' for Active; 'I' for Inactive)
REMARK    1  A    between atoms: C_1  and  C_2
REMARK    2  A    between atoms: C_6  and  N_7
REMARK    3  A    between atoms: C_8  and  C_10
REMARK    4  A    between atoms: C_10  and  N_11
REMARK    5  A    between atoms: C_14  and  C_15
REMARK    6  A    between atoms: N_17  and  C_18
REMARK    7  A    between atoms: C_18  and  C_19
REMARK    8  A    between atoms: C_24  and  N_25
REMARK                            x       y       z     vdW  Elec       q    Type
REMARK                         _______ _______ _______ _____ _____    ______ ____
ROOT
ATOM      1  N   UNL     1       4.634   4.556  19.044  0.00  0.00    +0.000 N 
ATOM      2  N   UNL     1       5.676   5.152  19.659  0.00  0.00    +0.000 NA
ATOM      3  N   UNL     1       6.561   5.475  18.729  0.00  0.00    +0.000 NA
ATOM      4  C   UNL     1       6.069   5.079  17.503  0.00  0.00    +0.000 A 
ATOM      5  C   UNL     1       4.841   4.460  17.688  0.00  0.00    +0.000 A 
ENDROOT
BRANCH   4   6
ATOM      6  C   UNL     1       6.758   5.343  16.247  0.00  0.00    +0.000 C 
ATOM      7  O   UNL     1       7.460   6.333  16.063  0.00  0.00    +0.000 OA
ATOM      8  N   UNL     1       6.564   4.371  15.294  0.00  0.00    +0.000 N 
ATOM      9  H   UNL     1       5.895   3.632  15.488  0.00  0.00    +0.000 HD
BRANCH   8  10
ATOM     10  C   UNL     1       7.128   4.459  13.975  0.00  0.00    +0.000 C 
BRANCH  10  11
ATOM     11  C   UNL     1       6.210   3.799  13.013  0.00  0.00    +0.000 A 
ATOM     12  C   UNL     1       4.866   3.945  12.736  0.00  0.00    +0.000 A 
ATOM     13  C   UNL     1       4.565   3.017  11.709  0.00  0.00    +0.000 A 
ATOM     14  C   UNL     1       5.742   2.370  11.422  0.00  0.00    +0.000 A 
ATOM     15  O   UNL     1       6.747   2.835  12.208  0.00  0.00    +0.000 OA
ENDBRANCH  10  11
ENDBRANCH   8  10
ENDBRANCH   4   6
BRANCH   5  16
ATOM     16  N   UNL     1       3.977   3.890  16.817  0.00  0.00    +0.000 N 
ATOM     17  H   UNL     1       3.265   3.248  17.177  0.00  0.00    +0.000 HD
ATOM     18  H   UNL     1       4.137   3.784  15.819  0.00  0.00    +0.000 HD
ENDBRANCH   5  16
BRANCH   1  19
ATOM     19  C   UNL     1       3.463   4.214  19.815  0.00  0.00    +0.000 C 
BRANCH  19  21
ATOM     20  N   UNL     1       2.772   6.597  19.671  0.00  0.00    +0.000 N 
ATOM     21  C   UNL     1       2.419   5.295  19.979  0.00  0.00    +0.000 C 
ATOM     22  O   UNL     1       1.296   4.945  20.354  0.00  0.00    +0.000 OA
ATOM     23  H   UNL     1       3.632   6.735  19.142  0.00  0.00    +0.000 HD
BRANCH  20  29
ATOM     24  C   UNL     1       0.169   9.410  22.787  0.00  0.00    +0.000 C 
ATOM     25  C   UNL     1       0.681   9.137  21.401  0.00  0.00    +0.000 A 
ATOM     26  C   UNL     1       0.394  10.022  20.358  0.00  0.00    +0.000 A 
ATOM     27  C   UNL     1       0.871   9.767  19.076  0.00  0.00    +0.000 A 
ATOM     28  C   UNL     1       1.651   8.636  18.830  0.00  0.00    +0.000 A 
ATOM     29  C   UNL     1       1.968   7.747  19.859  0.00  0.00    +0.000 A 
ATOM     30  C   UNL     1       1.457   7.994  21.142  0.00  0.00    +0.000 A 
ENDBRANCH  20  29
ENDBRANCH  19  21
ENDBRANCH   1  19
TORSDOF 7
ENDMDL
MODEL 5
REMARK VINA RESULT:      -7.5      3.630      6.109
REMARK  Name = 
REMARK  8 active torsions:
REMARK  status: ('A' for Active; 'I' for Inactive)
REMARK    1  A    between atoms: C_1  and  C_2
REMARK    2  A    between atoms: C_6  and  N_7
REMARK    3  A    between atoms: C_8  and  C_10
REMARK    4  A    between atoms: C_10  and  N_11
REMARK    5  A    between atoms: C_14  and  C_15
REMARK    6  A    between atoms: N_17  and  C_18
REMARK    7  A    between atoms: C_18  and  C_19
REMARK    8  A    between atoms: C_24  and  N_25
REMARK                            x       y       z     vdW  Elec       q    Type
REMARK                         _______ _______ _______ _____ _____    ______ ____
ROOT
ATOM      1  N   UNL     1       5.022   4.196  18.502  0.00  0.00    +0.000 N 
ATOM      2  N   UNL     1       6.280   4.308  18.978  0.00  0.00    +0.000 NA
ATOM      3  N   UNL     1       7.082   4.526  17.947  0.00  0.00    +0.000 NA
ATOM      4  C   UNL     1       6.318   4.557  16.799  0.00  0.00    +0.000 A 
ATOM      5  C   UNL     1       4.992   4.319  17.133  0.00  0.00    +0.000 A 
ENDROOT
BRANCH   4   6
ATOM      6  C   UNL     1       6.872   4.847  15.483  0.00  0.00    +0.000 C 
ATOM      7  O   UNL     1       7.577   5.826  15.253  0.00  0.00    +0.000 OA
ATOM      8  N   UNL     1       6.547   3.913  14.528  0.00  0.00    +0.000 N 
ATOM      9  H   UNL     1       5.884   3.184  14.772  0.00  0.00    +0.000 HD
BRANCH   8  10
ATOM     10  C   UNL     1       6.965   4.032  13.157  0.00  0.00    +0.000 C 
BRANCH  10  11
ATOM     11  C   UNL     1       6.011   3.290  12.297  0.00  0.00    +0.000 A 
ATOM     12  C   UNL     1       6.094   2.103  11.599  0.00  0.00    +0.000 A 
ATOM     13  C   UNL     1       4.844   1.929  10.954  0.00  0.00    +0.000 A 
ATOM     14  C   UNL     1       4.080   3.015  11.303  0.00  0.00    +0.000 A 
ATOM     15  O   UNL     1       4.777   3.850  12.116  0.00  0.00    +0.000 OA
ENDBRANCH  10  11
ENDBRANCH   8  10
ENDBRANCH   4   6
BRANCH   5  16
ATOM     16  N   UNL     1       3.874   4.229  16.378  0.00  0.00    +0.000 N 
ATOM     17  H   UNL     1       3.916   3.719  15.490  0.00  0.00    +0.000 HD
ATOM     18  H   UNL     1       3.077   4.857  16.435  0.00  0.00    +0.000 HD
ENDBRANCH   5  16
BRANCH   1  19
ATOM     19  C   UNL     1       3.925   4.079  19.432  0.00  0.00    +0.000 C 
BRANCH  19  21
ATOM     20  N   UNL     1       3.155   6.439  19.544  0.00  0.00    +0.000 N 
ATOM     21  C   UNL     1       2.828   5.114  19.321  0.00  0.00    +0.000 C 
ATOM     22  O   UNL     1       1.703   4.713  19.007  0.00  0.00    +0.000 OA
ATOM     23  H   UNL     1       4.145   6.683  19.550  0.00  0.00    +0.000 HD
BRANCH  20  29
ATOM     24  C   UNL     1      -0.016   9.134  22.204  0.00  0.00    +0.000 C 
ATOM     25  C   UNL     1       0.681   8.859  20.903  0.00  0.00    +0.000 A 
ATOM     26  C   UNL     1       0.458   9.683  19.797  0.00  0.00    +0.000 A 
ATOM     27  C   UNL     1       1.108   9.426  18.592  0.00  0.00    +0.000 A 
ATOM     28  C   UNL     1       1.996   8.354  18.490  0.00  0.00    +0.000 A 
ATOM     29  C   UNL     1       2.250   7.527  19.586  0.00  0.00    +0.000 A 
ATOM     30  C   UNL     1       1.568   7.774  20.786  0.00  0.00    +0.000 A 
ENDBRANCH  20  29
ENDBRANCH  19  21
ENDBRANCH   1  19
TORSDOF 7
ENDMDL
MODEL 6
REMARK VINA RESULT:      -7.4      6.386      9.357
REMARK  Name = 
REMARK  8 active torsions:
REMARK  status: ('A' for Active; 'I' for Inactive)
REMARK    1  A    between atoms: C_1  and  C_2
REMARK    2  A    between atoms: C_6  and  N_7
REMARK    3  A    between atoms: C_8  and  C_10
REMARK    4  A    between atoms: C_10  and  N_11
REMARK    5  A    between atoms: C_14  and  C_15
REMARK    6  A    between atoms: N_17  and  C_18
REMARK    7  A    between atoms: C_18  and  C_19
REMARK    8  A    between atoms: C_24  and  N_25
REMARK                            x       y       z     vdW  Elec       q    Type
REMARK                         _______ _______ _______ _____ _____    ______ ____
ROOT
ATOM      1  N   UNL     1       6.945   6.872  17.798  0.00  0.00    +0.000 N 
ATOM      2  N   UNL     1       7.766   6.112  18.552  0.00  0.00    +0.000 NA
ATOM      3  N   UNL     1       7.154   4.959  18.773  0.00  0.00    +0.000 NA
ATOM      4  C   UNL     1       5.927   4.987  18.146  0.00  0.00    +0.000 A 
ATOM      5  C   UNL     1       5.761   6.223  17.535  0.00  0.00    +0.000 A 
ENDROOT
BRANCH   4   6
ATOM      6  C   UNL     1       5.017   3.850  18.126  0.00  0.00    +0.000 C 
ATOM      7  O   UNL     1       4.312   3.573  17.160  0.00  0.00    +0.000 OA
ATOM      8  N   UNL     1       5.035   3.106  19.283  0.00  0.00    +0.000 N 
ATOM      9  H   UNL     1       5.573   3.453  20.071  0.00  0.00    +0.000 HD
BRANCH   8  10
ATOM     10  C   UNL     1       4.185   1.963  19.479  0.00  0.00    +0.000 C 
BRANCH  10  11
ATOM     11  C   UNL     1       2.933   2.403  20.141  0.00  0.00    +0.000 A 
ATOM     12  C   UNL     1       2.559   2.540  21.463  0.00  0.00    +0.000 A 
ATOM     13  C   UNL     1       1.219   2.998  21.455  0.00  0.00    +0.000 A 
ATOM     14  C   UNL     1       0.862   3.115  20.134  0.00  0.00    +0.000 A 
ATOM     15  O   UNL     1       1.894   2.755  19.327  0.00  0.00    +0.000 OA
ENDBRANCH  10  11
ENDBRANCH   8  10
ENDBRANCH   4   6
BRANCH   5  16
ATOM     16  N   UNL     1       4.739   6.747  16.822  0.00  0.00    +0.000 N 
ATOM     17  H   UNL     1       3.949   6.145  16.574  0.00  0.00    +0.000 HD
ATOM     18  H   UNL     1       4.797   7.581  16.243  0.00  0.00    +0.000 HD
ENDBRANCH   5  16
BRANCH   1  19
ATOM     19  C   UNL     1       7.418   8.142  17.302  0.00  0.00    +0.000 C 
BRANCH  19  21
ATOM     20  N   UNL     1       8.681  10.207  17.866  0.00  0.00    +0.000 N 
ATOM     21  C   UNL     1       8.398   8.890  18.179  0.00  0.00    +0.000 C 
ATOM     22  O   UNL     1       8.868   8.283  19.146  0.00  0.00    +0.000 OA
ATOM     23  H   UNL     1       8.060  10.676  17.209  0.00  0.00    +0.000 HD
BRANCH  20  29
ATOM     24  C   UNL     1      12.331  13.501  17.399  0.00  0.00    +0.000 C 
ATOM     25  C   UNL     1      11.448  12.657  18.272  0.00  0.00    +0.000 A 
ATOM     26  C   UNL     1      11.562  12.724  19.663  0.00  0.00    +0.000 A 
ATOM     27  C   UNL     1      10.739  11.941  20.469  0.00  0.00    +0.000 A 
ATOM     28  C   UNL     1       9.788  11.099  19.891  0.00  0.00    +0.000 A 
ATOM     29  C   UNL     1       9.642  11.028  18.504  0.00  0.00    +0.000 A 
ATOM     30  C   UNL     1      10.495  11.796  17.698  0.00  0.00    +0.000 A 
ENDBRANCH  20  29
ENDBRANCH  19  21
ENDBRANCH   1  19
TORSDOF 7
ENDMDL
MODEL 7
REMARK VINA RESULT:      -7.4      5.448      8.829
REMARK  Name = 
REMARK  8 active torsions:
REMARK  status: ('A' for Active; 'I' for Inactive)
REMARK    1  A    between atoms: C_1  and  C_2
REMARK    2  A    between atoms: C_6  and  N_7
REMARK    3  A    between atoms: C_8  and  C_10
REMARK    4  A    between atoms: C_10  and  N_11
REMARK    5  A    between atoms: C_14  and  C_15
REMARK    6  A    between atoms: N_17  and  C_18
REMARK    7  A    between atoms: C_18  and  C_19
REMARK    8  A    between atoms: C_24  and  N_25
REMARK                            x       y       z     vdW  Elec       q    Type
REMARK                         _______ _______ _______ _____ _____    ______ ____
ROOT
ATOM      1  N   UNL     1       7.195   6.592  17.811  0.00  0.00    +0.000 N 
ATOM      2  N   UNL     1       6.888   7.011  16.565  0.00  0.00    +0.000 NA
ATOM      3  N   UNL     1       5.766   6.408  16.204  0.00  0.00    +0.000 NA
ATOM      4  C   UNL     1       5.353   5.596  17.239  0.00  0.00    +0.000 A 
ATOM      5  C   UNL     1       6.275   5.680  18.273  0.00  0.00    +0.000 A 
ENDROOT
BRANCH   4   6
ATOM      6  C   UNL     1       4.111   4.836  17.208  0.00  0.00    +0.000 C 
ATOM      7  O   UNL     1       3.966   3.817  16.539  0.00  0.00    +0.000 OA
ATOM      8  N   UNL     1       3.123   5.356  18.011  0.00  0.00    +0.000 N 
ATOM      9  H   UNL     1       3.288   6.252  18.459  0.00  0.00    +0.000 HD
BRANCH   8  10
ATOM     10  C   UNL     1       1.811   4.775  18.095  0.00  0.00    +0.000 C 
BRANCH  10  11
ATOM     11  C   UNL     1       1.673   4.085  19.401  0.00  0.00    +0.000 A 
ATOM     12  C   UNL     1       0.863   3.061  19.848  0.00  0.00    +0.000 A 
ATOM     13  C   UNL     1       1.199   2.849  21.208  0.00  0.00    +0.000 A 
ATOM     14  C   UNL     1       2.192   3.751  21.502  0.00  0.00    +0.000 A 
ATOM     15  O   UNL     1       2.487   4.508  20.413  0.00  0.00    +0.000 OA
ENDBRANCH  10  11
ENDBRANCH   8  10
ENDBRANCH   4   6
BRANCH   5  16
ATOM     16  N   UNL     1       6.336   5.073  19.480  0.00  0.00    +0.000 N 
ATOM     17  H   UNL     1       5.522   4.546  19.810  0.00  0.00    +0.000 HD
ATOM     18  H   UNL     1       6.975   5.324  20.230  0.00  0.00    +0.000 HD
ENDBRANCH   5  16
BRANCH   1  19
ATOM     19  C   UNL     1       8.312   7.192  18.500  0.00  0.00    +0.000 C 
BRANCH  19  21
ATOM     20  N   UNL     1       9.354   9.322  19.245  0.00  0.00    +0.000 N 
ATOM     21  C   UNL     1       8.409   8.701  18.449  0.00  0.00    +0.000 C 
ATOM     22  O   UNL     1       7.652   9.290  17.672  0.00  0.00    +0.000 OA
ATOM     23  H   UNL     1      10.081   8.736  19.653  0.00  0.00    +0.000 HD
BRANCH  20  29
ATOM     24  C   UNL     1      10.687  13.633  17.237  0.00  0.00    +0.000 C 
ATOM     25  C   UNL     1      10.181  12.850  18.414  0.00  0.00    +0.000 A 
ATOM     26  C   UNL     1       9.855  13.503  19.606  0.00  0.00    +0.000 A 
ATOM     27  C   UNL     1       9.384  12.774  20.695  0.00  0.00    +0.000 A 
ATOM     28  C   UNL     1       9.220  11.391  20.594  0.00  0.00    +0.000 A 
ATOM     29  C   UNL     1       9.521  10.718  19.408  0.00  0.00    +0.000 A 
ATOM     30  C   UNL     1      10.025  11.455  18.327  0.00  0.00    +0.000 A 
ENDBRANCH  20  29
ENDBRANCH  19  21
ENDBRANCH   1  19
TORSDOF 7
ENDMDL
MODEL 8
REMARK VINA RESULT:      -7.4      6.092      8.767
REMARK  Name = 
REMARK  8 active torsions:
REMARK  status: ('A' for Active; 'I' for Inactive)
REMARK    1  A    between atoms: C_1  and  C_2
REMARK    2  A    between atoms: C_6  and  N_7
REMARK    3  A    between atoms: C_8  and  C_10
REMARK    4  A    between atoms: C_10  and  N_11
REMARK    5  A    between atoms: C_14  and  C_15
REMARK    6  A    between atoms: N_17  and  C_18
REMARK    7  A    between atoms: C_18  and  C_19
REMARK    8  A    between atoms: C_24  and  N_25
REMARK                            x       y       z     vdW  Elec       q    Type
REMARK                         _______ _______ _______ _____ _____    ______ ____
ROOT
ATOM      1  N   UNL     1       6.766   6.516  17.725  0.00  0.00    +0.000 N 
ATOM      2  N   UNL     1       6.258   6.986  16.566  0.00  0.00    +0.000 NA
ATOM      3  N   UNL     1       5.052   6.461  16.415  0.00  0.00    +0.000 NA
ATOM      4  C   UNL     1       4.790   5.648  17.498  0.00  0.00    +0.000 A 
ATOM      5  C   UNL     1       5.893   5.649  18.340  0.00  0.00    +0.000 A 
ENDROOT
BRANCH   4   6
ATOM      6  C   UNL     1       3.517   4.965  17.690  0.00  0.00    +0.000 C 
ATOM      7  O   UNL     1       2.451   5.559  17.818  0.00  0.00    +0.000 OA
ATOM      8  N   UNL     1       3.621   3.594  17.696  0.00  0.00    +0.000 N 
ATOM      9  H   UNL     1       4.548   3.180  17.679  0.00  0.00    +0.000 HD
BRANCH   8  10
ATOM     10  C   UNL     1       2.488   2.735  17.907  0.00  0.00    +0.000 C 
BRANCH  10  11
ATOM     11  C   UNL     1       2.130   2.754  19.347  0.00  0.00    +0.000 A 
ATOM     12  C   UNL     1       0.948   2.975  20.025  0.00  0.00    +0.000 A 
ATOM     13  C   UNL     1       1.252   2.867  21.404  0.00  0.00    +0.000 A 
ATOM     14  C   UNL     1       2.593   2.583  21.480  0.00  0.00    +0.000 A 
ATOM     15  O   UNL     1       3.138   2.513  20.237  0.00  0.00    +0.000 OA
ENDBRANCH  10  11
ENDBRANCH   8  10
ENDBRANCH   4   6
BRANCH   5  16
ATOM     16  N   UNL     1       6.141   5.008  19.504  0.00  0.00    +0.000 N 
ATOM     17  H   UNL     1       6.242   3.988  19.495  0.00  0.00    +0.000 HD
ATOM     18  H   UNL     1       5.939   5.376  20.430  0.00  0.00    +0.000 HD
ENDBRANCH   5  16
BRANCH   1  19
ATOM     19  C   UNL     1       8.028   7.030  18.200  0.00  0.00    +0.000 C 
BRANCH  19  21
ATOM     20  N   UNL     1       9.160   9.073  19.050  0.00  0.00    +0.000 N 
ATOM     21  C   UNL     1       8.176   8.534  18.240  0.00  0.00    +0.000 C 
ATOM     22  O   UNL     1       7.422   9.196  17.520  0.00  0.00    +0.000 OA
ATOM     23  H   UNL     1       9.876   8.438  19.402  0.00  0.00    +0.000 HD
BRANCH  20  29
ATOM     24  C   UNL     1       9.265  12.768  22.325  0.00  0.00    +0.000 C 
ATOM     25  C   UNL     1       9.429  12.278  20.916  0.00  0.00    +0.000 A 
ATOM     26  C   UNL     1       9.822  13.158  19.904  0.00  0.00    +0.000 A 
ATOM     27  C   UNL     1       9.975  12.699  18.599  0.00  0.00    +0.000 A 
ATOM     28  C   UNL     1       9.753  11.354  18.299  0.00  0.00    +0.000 A 
ATOM     29  C   UNL     1       9.378  10.450  19.295  0.00  0.00    +0.000 A 
ATOM     30  C   UNL     1       9.196  10.927  20.601  0.00  0.00    +0.000 A 
ENDBRANCH  20  29
ENDBRANCH  19  21
ENDBRANCH   1  19
TORSDOF 7
ENDMDL
MODEL 9
REMARK VINA RESULT:      -7.4      6.337      9.259
REMARK  Name = 
REMARK  8 active torsions:
REMARK  status: ('A' for Active; 'I' for Inactive)
REMARK    1  A    between atoms: C_1  and  C_2
REMARK    2  A    between atoms: C_6  and  N_7
REMARK    3  A    between atoms: C_8  and  C_10
REMARK    4  A    between atoms: C_10  and  N_11
REMARK    5  A    between atoms: C_14  and  C_15
REMARK    6  A    between atoms: N_17  and  C_18
REMARK    7  A    between atoms: C_18  and  C_19
REMARK    8  A    between atoms: C_24  and  N_25
REMARK                            x       y       z     vdW  Elec       q    Type
REMARK                         _______ _______ _______ _____ _____    ______ ____
ROOT
ATOM      1  N   UNL     1       6.957   6.734  17.676  0.00  0.00    +0.000 N 
ATOM      2  N   UNL     1       7.787   5.839  18.250  0.00  0.00    +0.000 NA
ATOM      3  N   UNL     1       7.101   4.724  18.449  0.00  0.00    +0.000 NA
ATOM      4  C   UNL     1       5.815   4.915  17.990  0.00  0.00    +0.000 A 
ATOM      5  C   UNL     1       5.694   6.213  17.513  0.00  0.00    +0.000 A 
ENDROOT
BRANCH   4   6
ATOM      6  C   UNL     1       4.806   3.864  17.990  0.00  0.00    +0.000 C 
ATOM      7  O   UNL     1       3.928   3.779  17.136  0.00  0.00    +0.000 OA
ATOM      8  N   UNL     1       4.941   2.968  19.023  0.00  0.00    +0.000 N 
ATOM      9  H   UNL     1       5.633   3.159  19.741  0.00  0.00    +0.000 HD
BRANCH   8  10
ATOM     10  C   UNL     1       4.026   1.876  19.223  0.00  0.00    +0.000 C 
BRANCH  10  11
ATOM     11  C   UNL     1       2.834   2.375  19.952  0.00  0.00    +0.000 A 
ATOM     12  C   UNL     1       2.595   2.680  21.277  0.00  0.00    +0.000 A 
ATOM     13  C   UNL     1       1.246   3.105  21.353  0.00  0.00    +0.000 A 
ATOM     14  C   UNL     1       0.751   3.036  20.074  0.00  0.00    +0.000 A 
ATOM     15  O   UNL     1       1.704   2.593  19.215  0.00  0.00    +0.000 OA
ENDBRANCH  10  11
ENDBRANCH   8  10
ENDBRANCH   4   6
BRANCH   5  16
ATOM     16  N   UNL     1       4.648   6.887  16.985  0.00  0.00    +0.000 N 
ATOM     17  H   UNL     1       4.671   7.911  16.981  0.00  0.00    +0.000 HD
ATOM     18  H   UNL     1       3.710   6.513  16.866  0.00  0.00    +0.000 HD
ENDBRANCH   5  16
BRANCH   1  19
ATOM     19  C   UNL     1       7.485   8.003  17.234  0.00  0.00    +0.000 C 
BRANCH  19  21
ATOM     20  N   UNL     1       8.636  10.079  17.971  0.00  0.00    +0.000 N 
ATOM     21  C   UNL     1       8.380   8.739  18.205  0.00  0.00    +0.000 C 
ATOM     22  O   UNL     1       8.810   8.103  19.172  0.00  0.00    +0.000 OA
ATOM     23  H   UNL     1       8.040  10.558  17.297  0.00  0.00    +0.000 HD
BRANCH  20  29
ATOM     24  C   UNL     1       9.505  12.654  22.095  0.00  0.00    +0.000 C 
ATOM     25  C   UNL     1       9.954  12.174  20.746  0.00  0.00    +0.000 A 
ATOM     26  C   UNL     1      11.225  12.504  20.267  0.00  0.00    +0.000 A 
ATOM     27  C   UNL     1      11.639  12.055  19.016  0.00  0.00    +0.000 A 
ATOM     28  C   UNL     1      10.792  11.260  18.242  0.00  0.00    +0.000 A 
ATOM     29  C   UNL     1       9.525  10.899  18.705  0.00  0.00    +0.000 A 
ATOM     30  C   UNL     1       9.104  11.382  19.953  0.00  0.00    +0.000 A 
ENDBRANCH  20  29
ENDBRANCH  19  21
ENDBRANCH   1  19
TORSDOF 7
ENDMDL
