MODEL 1
REMARK VINA RESULT:      -7.2      0.000      0.000
REMARK  Name = 
REMARK  4 active torsions:
REMARK  status: ('A' for Active; 'I' for Inactive)
REMARK    1  A    between atoms: N_2  and  C_4
REMARK    2  A    between atoms: C_9  and  N_10
REMARK    3  A    between atoms: N_13  and  C_14
REMARK    4  A    between atoms: C_14  and  C_15
REMARK                            x       y       z     vdW  Elec       q    Type
REMARK                         _______ _______ _______ _____ _____    ______ ____
ROOT
ATOM      1  N   UNL     1       4.303   6.108  17.973  0.00  0.00    +0.000 N 
ATOM      2  C   UNL     1       3.726   7.435  17.760  0.00  0.00    +0.000 C 
ATOM      3  C   UNL     1       2.201   7.398  17.967  0.00  0.00    +0.000 C 
ATOM      4  N   UNL     1       1.843   6.832  19.290  0.00  0.00    +0.000 NA
ATOM      5  C   UNL     1       2.383   5.455  19.390  0.00  0.00    +0.000 C 
ATOM      6  C   UNL     1       3.915   5.416  19.197  0.00  0.00    +0.000 C 
ENDROOT
BRANCH   1  12
ATOM      7  C   UNL     1       6.543   5.908  16.800  0.00  0.00    +0.000 A 
ATOM      8  C   UNL     1       7.293   5.248  15.806  0.00  0.00    +0.000 A 
ATOM      9  C   UNL     1       6.753   4.196  15.082  0.00  0.00    +0.000 A 
ATOM     10  C   UNL     1       5.456   3.784  15.346  0.00  0.00    +0.000 A 
ATOM     11  N   UNL     1       4.716   4.424  16.297  0.00  0.00    +0.000 NA
ATOM     12  C   UNL     1       5.185   5.482  17.020  0.00  0.00    +0.000 A 
BRANCH   7  14
ATOM     13  O   UNL     1       7.432   7.977  17.136  0.00  0.00    +0.000 OA
ATOM     14  N   UNL     1       7.209   6.898  17.596  0.00  0.00    +0.000 N 
ATOM     15  O   UNL     1       7.850   6.548  18.689  0.00  0.00    +0.000 OA
ENDBRANCH   7  14
ENDBRANCH   1  12
BRANCH   4  16
ATOM     16  C   UNL     1       2.222   7.680  20.451  0.00  0.00    +0.000 C 
BRANCH  16  17
ATOM     17  C   UNL     1       1.207   8.767  20.738  0.00  0.00    +0.000 A 
ATOM     18  C   UNL     1       0.706   9.576  19.681  0.00  0.00    +0.000 A 
ATOM     19  C   UNL     1      -0.223  10.601  19.941  0.00  0.00    +0.000 A 
ATOM     20  C   UNL     1      -0.626  10.792  21.259  0.00  0.00    +0.000 A 
ATOM     21  C   UNL     1      -0.156  10.030  22.268  0.00  0.00    +0.000 A 
ATOM     22  C   UNL     1       0.764   9.002  22.060  0.00  0.00    +0.000 A 
ATOM     23  O   UNL     1      -0.709  10.436  23.417  0.00  0.00    +0.000 OA
ATOM     24  C   UNL     1      -1.565  11.496  23.120  0.00  0.00    +0.000 C 
ATOM     25  O   UNL     1      -1.484  11.692  21.743  0.00  0.00    +0.000 OA
ENDBRANCH  16  17
ENDBRANCH   4  16
TORSDOF 4
ENDMDL
MODEL 2
REMARK VINA RESULT:      -7.1      2.566      8.217
REMARK  Name = 
REMARK  4 active torsions:
REMARK  status: ('A' for Active; 'I' for Inactive)
REMARK    1  A    between atoms: N_2  and  C_4
REMARK    2  A    between atoms: C_9  and  N_10
REMARK    3  A    between atoms: N_13  and  C_14
REMARK    4  A    between atoms: C_14  and  C_15
REMARK                            x       y       z     vdW  Elec       q    Type
REMARK                         _______ _______ _______ _____ _____    ______ ____
ROOT
ATOM      1  N   UNL     1       2.116   7.045  20.020  0.00  0.00    +0.000 N 
ATOM      2  C   UNL     1       1.918   5.746  20.663  0.00  0.00    +0.000 C 
ATOM      3  C   UNL     1       1.532   4.683  19.620  0.00  0.00    +0.000 C 
ATOM      4  N   UNL     1       2.517   4.621  18.513  0.00  0.00    +0.000 NA
ATOM      5  C   UNL     1       2.589   5.946  17.854  0.00  0.00    +0.000 C 
ATOM      6  C   UNL     1       2.979   7.066  18.845  0.00  0.00    +0.000 C 
ENDROOT
BRANCH   1  12
ATOM      7  C   UNL     1       1.159   9.361  19.628  0.00  0.00    +0.000 A 
ATOM      8  C   UNL     1       0.574  10.504  20.210  0.00  0.00    +0.000 A 
ATOM      9  C   UNL     1       0.278  10.546  21.563  0.00  0.00    +0.000 A 
ATOM     10  C   UNL     1       0.557   9.443  22.355  0.00  0.00    +0.000 A 
ATOM     11  N   UNL     1       1.136   8.337  21.805  0.00  0.00    +0.000 NA
ATOM     12  C   UNL     1       1.474   8.249  20.486  0.00  0.00    +0.000 A 
BRANCH   7  14
ATOM     13  O   UNL     1       2.179   9.988  17.691  0.00  0.00    +0.000 OA
ATOM     14  N   UNL     1       1.316   9.340  18.202  0.00  0.00    +0.000 N 
ATOM     15  O   UNL     1       0.351   8.883  17.436  0.00  0.00    +0.000 OA
ENDBRANCH   7  14
ENDBRANCH   1  12
BRANCH   4  16
ATOM     16  C   UNL     1       3.855   4.101  18.902  0.00  0.00    +0.000 C 
BRANCH  16  17
ATOM     17  C   UNL     1       4.923   4.409  17.874  0.00  0.00    +0.000 A 
ATOM     18  C   UNL     1       6.110   5.093  18.256  0.00  0.00    +0.000 A 
ATOM     19  C   UNL     1       7.099   5.400  17.304  0.00  0.00    +0.000 A 
ATOM     20  C   UNL     1       6.872   5.016  15.986  0.00  0.00    +0.000 A 
ATOM     21  C   UNL     1       5.750   4.367  15.613  0.00  0.00    +0.000 A 
ATOM     22  C   UNL     1       4.742   4.039  16.520  0.00  0.00    +0.000 A 
ATOM     23  O   UNL     1       5.800   4.128  14.298  0.00  0.00    +0.000 OA
ATOM     24  C   UNL     1       7.005   4.643  13.822  0.00  0.00    +0.000 C 
ATOM     25  O   UNL     1       7.655   5.198  14.921  0.00  0.00    +0.000 OA
ENDBRANCH  16  17
ENDBRANCH   4  16
TORSDOF 4
ENDMDL
MODEL 3
REMARK VINA RESULT:      -7.0      0.935      1.623
REMARK  Name = 
REMARK  4 active torsions:
REMARK  status: ('A' for Active; 'I' for Inactive)
REMARK    1  A    between atoms: N_2  and  C_4
REMARK    2  A    between atoms: C_9  and  N_10
REMARK    3  A    between atoms: N_13  and  C_14
REMARK    4  A    between atoms: C_14  and  C_15
REMARK                            x       y       z     vdW  Elec       q    Type
REMARK                         _______ _______ _______ _____ _____    ______ ____
ROOT
ATOM      1  N   UNL     1       4.260   6.077  18.362  0.00  0.00    +0.000 N 
ATOM      2  C   UNL     1       3.787   7.435  18.096  0.00  0.00    +0.000 C 
ATOM      3  C   UNL     1       2.252   7.496  18.182  0.00  0.00    +0.000 C 
ATOM      4  N   UNL     1       1.756   6.969  19.475  0.00  0.00    +0.000 NA
ATOM      5  C   UNL     1       2.197   5.562  19.626  0.00  0.00    +0.000 C 
ATOM      6  C   UNL     1       3.734   5.425  19.555  0.00  0.00    +0.000 C 
ENDROOT
BRANCH   1  12
ATOM      7  C   UNL     1       6.600   5.382  17.673  0.00  0.00    +0.000 A 
ATOM      8  C   UNL     1       7.394   4.711  16.721  0.00  0.00    +0.000 A 
ATOM      9  C   UNL     1       6.817   4.043  15.651  0.00  0.00    +0.000 A 
ATOM     10  C   UNL     1       5.437   4.032  15.521  0.00  0.00    +0.000 A 
ATOM     11  N   UNL     1       4.660   4.690  16.430  0.00  0.00    +0.000 NA
ATOM     12  C   UNL     1       5.173   5.387  17.485  0.00  0.00    +0.000 A 
BRANCH   7  14
ATOM     13  O   UNL     1       8.066   6.806  18.679  0.00  0.00    +0.000 OA
ATOM     14  N   UNL     1       7.257   5.939  18.820  0.00  0.00    +0.000 N 
ATOM     15  O   UNL     1       7.222   5.310  19.974  0.00  0.00    +0.000 OA
ENDBRANCH   7  14
ENDBRANCH   1  12
BRANCH   4  16
ATOM     16  C   UNL     1       2.096   7.804  20.658  0.00  0.00    +0.000 C 
BRANCH  16  17
ATOM     17  C   UNL     1       1.074   8.891  20.919  0.00  0.00    +0.000 A 
ATOM     18  C   UNL     1       0.560   9.093  22.229  0.00  0.00    +0.000 A 
ATOM     19  C   UNL     1      -0.403  10.088  22.477  0.00  0.00    +0.000 A 
ATOM     20  C   UNL     1      -0.833  10.857  21.400  0.00  0.00    +0.000 A 
ATOM     21  C   UNL     1      -0.352  10.674  20.154  0.00  0.00    +0.000 A 
ATOM     22  C   UNL     1       0.604   9.702  19.859  0.00  0.00    +0.000 A 
ATOM     23  O   UNL     1      -0.941  11.545  19.326  0.00  0.00    +0.000 OA
ATOM     24  C   UNL     1      -1.826  12.311  20.082  0.00  0.00    +0.000 C 
ATOM     25  O   UNL     1      -1.730  11.845  21.391  0.00  0.00    +0.000 OA
ENDBRANCH  16  17
ENDBRANCH   4  16
TORSDOF 4
ENDMDL
MODEL 4
REMARK VINA RESULT:      -6.8      2.058      8.363
REMARK  Name = 
REMARK  4 active torsions:
REMARK  status: ('A' for Active; 'I' for Inactive)
REMARK    1  A    between atoms: N_2  and  C_4
REMARK    2  A    between atoms: C_9  and  N_10
REMARK    3  A    between atoms: N_13  and  C_14
REMARK    4  A    between atoms: C_14  and  C_15
REMARK                            x       y       z     vdW  Elec       q    Type
REMARK                         _______ _______ _______ _____ _____    ______ ____
ROOT
ATOM      1  N   UNL     1       1.730   8.177  19.687  0.00  0.00    +0.000 N 
ATOM      2  C   UNL     1       1.840   7.153  20.726  0.00  0.00    +0.000 C 
ATOM      3  C   UNL     1       1.709   5.748  20.112  0.00  0.00    +0.000 C 
ATOM      4  N   UNL     1       2.678   5.541  19.009  0.00  0.00    +0.000 NA
ATOM      5  C   UNL     1       2.440   6.558  17.957  0.00  0.00    +0.000 C 
ATOM      6  C   UNL     1       2.561   7.998  18.503  0.00  0.00    +0.000 C 
ENDROOT
BRANCH   1  12
ATOM      7  C   UNL     1       0.349   9.812  21.049  0.00  0.00    +0.000 A 
ATOM      8  C   UNL     1      -0.569  10.882  21.021  0.00  0.00    +0.000 A 
ATOM      9  C   UNL     1      -0.975  11.446  19.822  0.00  0.00    +0.000 A 
ATOM     10  C   UNL     1      -0.465  10.953  18.632  0.00  0.00    +0.000 A 
ATOM     11  N   UNL     1       0.414   9.909  18.645  0.00  0.00    +0.000 NA
ATOM     12  C   UNL     1       0.827   9.297  19.793  0.00  0.00    +0.000 A 
BRANCH   7  14
ATOM     13  O   UNL     1       0.040   9.025  23.164  0.00  0.00    +0.000 OA
ATOM     14  N   UNL     1       0.822   9.366  22.328  0.00  0.00    +0.000 N 
ATOM     15  O   UNL     1       2.056   9.621  22.704  0.00  0.00    +0.000 OA
ENDBRANCH   7  14
ENDBRANCH   1  12
BRANCH   4  16
ATOM     16  C   UNL     1       4.101   5.484  19.437  0.00  0.00    +0.000 C 
BRANCH  16  17
ATOM     17  C   UNL     1       5.063   5.446  18.268  0.00  0.00    +0.000 A 
ATOM     18  C   UNL     1       6.251   6.227  18.291  0.00  0.00    +0.000 A 
ATOM     19  C   UNL     1       7.140   6.213  17.201  0.00  0.00    +0.000 A 
ATOM     20  C   UNL     1       6.814   5.415  16.108  0.00  0.00    +0.000 A 
ATOM     21  C   UNL     1       5.690   4.671  16.076  0.00  0.00    +0.000 A 
ATOM     22  C   UNL     1       4.778   4.651  17.132  0.00  0.00    +0.000 A 
ATOM     23  O   UNL     1       5.633   4.014  14.912  0.00  0.00    +0.000 OA
ATOM     24  C   UNL     1       6.770   4.355  14.181  0.00  0.00    +0.000 C 
ATOM     25  O   UNL     1       7.493   5.245  14.972  0.00  0.00    +0.000 OA
ENDBRANCH  16  17
ENDBRANCH   4  16
TORSDOF 4
ENDMDL
MODEL 5
REMARK VINA RESULT:      -6.8      1.886      3.034
REMARK  Name = 
REMARK  4 active torsions:
REMARK  status: ('A' for Active; 'I' for Inactive)
REMARK    1  A    between atoms: N_2  and  C_4
REMARK    2  A    between atoms: C_9  and  N_10
REMARK    3  A    between atoms: N_13  and  C_14
REMARK    4  A    between atoms: C_14  and  C_15
REMARK                            x       y       z     vdW  Elec       q    Type
REMARK                         _______ _______ _______ _____ _____    ______ ____
ROOT
ATOM      1  N   UNL     1       4.634   4.802  16.324  0.00  0.00    +0.000 N 
ATOM      2  C   UNL     1       4.096   3.715  17.143  0.00  0.00    +0.000 C 
ATOM      3  C   UNL     1       4.402   3.962  18.631  0.00  0.00    +0.000 C 
ATOM      4  N   UNL     1       3.924   5.293  19.074  0.00  0.00    +0.000 NA
ATOM      5  C   UNL     1       4.584   6.341  18.260  0.00  0.00    +0.000 C 
ATOM      6  C   UNL     1       4.315   6.159  16.750  0.00  0.00    +0.000 C 
ENDROOT
BRANCH   1  12
ATOM      7  C   UNL     1       6.862   4.914  15.119  0.00  0.00    +0.000 A 
ATOM      8  C   UNL     1       7.561   4.678  13.917  0.00  0.00    +0.000 A 
ATOM      9  C   UNL     1       6.933   4.096  12.826  0.00  0.00    +0.000 A 
ATOM     10  C   UNL     1       5.598   3.736  12.923  0.00  0.00    +0.000 A 
ATOM     11  N   UNL     1       4.909   3.972  14.076  0.00  0.00    +0.000 NA
ATOM     12  C   UNL     1       5.466   4.566  15.171  0.00  0.00    +0.000 A 
BRANCH   7  14
ATOM     13  O   UNL     1       7.862   4.662  17.149  0.00  0.00    +0.000 OA
ATOM     14  N   UNL     1       7.608   5.398  16.244  0.00  0.00    +0.000 N 
ATOM     15  O   UNL     1       7.741   6.691  16.444  0.00  0.00    +0.000 OA
ENDBRANCH   7  14
ENDBRANCH   1  12
BRANCH   4  16
ATOM     16  C   UNL     1       2.444   5.441  19.106  0.00  0.00    +0.000 C 
BRANCH  16  17
ATOM     17  C   UNL     1       2.004   6.828  19.527  0.00  0.00    +0.000 A 
ATOM     18  C   UNL     1       1.633   7.084  20.876  0.00  0.00    +0.000 A 
ATOM     19  C   UNL     1       1.205   8.364  21.272  0.00  0.00    +0.000 A 
ATOM     20  C   UNL     1       1.155   9.360  20.301  0.00  0.00    +0.000 A 
ATOM     21  C   UNL     1       1.504   9.128  19.019  0.00  0.00    +0.000 A 
ATOM     22  C   UNL     1       1.936   7.877  18.579  0.00  0.00    +0.000 A 
ATOM     23  O   UNL     1       1.357  10.255  18.315  0.00  0.00    +0.000 OA
ATOM     24  C   UNL     1       0.899  11.241  19.189  0.00  0.00    +0.000 C 
ATOM     25  O   UNL     1       0.783  10.634  20.437  0.00  0.00    +0.000 OA
ENDBRANCH  16  17
ENDBRANCH   4  16
TORSDOF 4
ENDMDL
MODEL 6
REMARK VINA RESULT:      -6.8      4.881      9.202
REMARK  Name = 
REMARK  4 active torsions:
REMARK  status: ('A' for Active; 'I' for Inactive)
REMARK    1  A    between atoms: N_2  and  C_4
REMARK    2  A    between atoms: C_9  and  N_10
REMARK    3  A    between atoms: N_13  and  C_14
REMARK    4  A    between atoms: C_14  and  C_15
REMARK                            x       y       z     vdW  Elec       q    Type
REMARK                         _______ _______ _______ _____ _____    ______ ____
ROOT
ATOM      1  N   UNL     1       3.529   4.513  17.953  0.00  0.00    +0.000 N 
ATOM      2  C   UNL     1       3.715   5.948  17.736  0.00  0.00    +0.000 C 
ATOM      3  C   UNL     1       5.205   6.272  17.532  0.00  0.00    +0.000 C 
ATOM      4  N   UNL     1       5.798   5.455  16.447  0.00  0.00    +0.000 NA
ATOM      5  C   UNL     1       5.654   4.020  16.786  0.00  0.00    +0.000 C 
ATOM      6  C   UNL     1       4.177   3.620  17.000  0.00  0.00    +0.000 C 
ENDROOT
BRANCH   1  12
ATOM      7  C   UNL     1       3.352   3.151  20.085  0.00  0.00    +0.000 A 
ATOM      8  C   UNL     1       2.503   2.657  21.096  0.00  0.00    +0.000 A 
ATOM      9  C   UNL     1       1.158   2.993  21.129  0.00  0.00    +0.000 A 
ATOM     10  C   UNL     1       0.643   3.833  20.154  0.00  0.00    +0.000 A 
ATOM     11  N   UNL     1       1.453   4.306  19.163  0.00  0.00    +0.000 NA
ATOM     12  C   UNL     1       2.776   3.987  19.064  0.00  0.00    +0.000 A 
BRANCH   7  14
ATOM     13  O   UNL     1       5.116   1.796  20.572  0.00  0.00    +0.000 OA
ATOM     14  N   UNL     1       4.754   2.868  20.189  0.00  0.00    +0.000 N 
ATOM     15  O   UNL     1       5.631   3.847  20.175  0.00  0.00    +0.000 OA
ENDBRANCH   7  14
ENDBRANCH   1  12
BRANCH   4  16
ATOM     16  C   UNL     1       5.295   5.775  15.084  0.00  0.00    +0.000 C 
BRANCH  16  17
ATOM     17  C   UNL     1       5.936   4.921  14.010  0.00  0.00    +0.000 A 
ATOM     18  C   UNL     1       7.251   5.211  13.553  0.00  0.00    +0.000 A 
ATOM     19  C   UNL     1       7.847   4.435  12.541  0.00  0.00    +0.000 A 
ATOM     20  C   UNL     1       7.104   3.386  12.007  0.00  0.00    +0.000 A 
ATOM     21  C   UNL     1       5.856   3.103  12.433  0.00  0.00    +0.000 A 
ATOM     22  C   UNL     1       5.225   3.842  13.434  0.00  0.00    +0.000 A 
ATOM     23  O   UNL     1       5.388   2.055  11.747  0.00  0.00    +0.000 OA
ATOM     24  C   UNL     1       6.382   1.657  10.854  0.00  0.00    +0.000 C 
ATOM     25  O   UNL     1       7.454   2.525  11.049  0.00  0.00    +0.000 OA
ENDBRANCH  16  17
ENDBRANCH   4  16
TORSDOF 4
ENDMDL
MODEL 7
REMARK VINA RESULT:      -6.8      3.586      8.945
REMARK  Name = 
REMARK  4 active torsions:
REMARK  status: ('A' for Active; 'I' for Inactive)
REMARK    1  A    between atoms: N_2  and  C_4
REMARK    2  A    between atoms: C_9  and  N_10
REMARK    3  A    between atoms: N_13  and  C_14
REMARK    4  A    between atoms: C_14  and  C_15
REMARK                            x       y       z     vdW  Elec       q    Type
REMARK                         _______ _______ _______ _____ _____    ______ ____
ROOT
ATOM      1  N   UNL     1      -0.423  10.331  21.975  0.00  0.00    +0.000 N 
ATOM      2  C   UNL     1      -0.512   9.828  20.605  0.00  0.00    +0.000 C 
ATOM      3  C   UNL     1       0.882   9.436  20.084  0.00  0.00    +0.000 C 
ATOM      4  N   UNL     1       1.555   8.479  20.995  0.00  0.00    +0.000 NA
ATOM      5  C   UNL     1       1.691   9.098  22.334  0.00  0.00    +0.000 C 
ATOM      6  C   UNL     1       0.325   9.514  22.923  0.00  0.00    +0.000 C 
ENDROOT
BRANCH   1  12
ATOM      7  C   UNL     1      -0.451  12.866  22.037  0.00  0.00    +0.000 A 
ATOM      8  C   UNL     1      -1.087  14.022  22.534  0.00  0.00    +0.000 A 
ATOM      9  C   UNL     1      -2.236  13.932  23.305  0.00  0.00    +0.000 A 
ATOM     10  C   UNL     1      -2.770  12.684  23.585  0.00  0.00    +0.000 A 
ATOM     11  N   UNL     1      -2.155  11.558  23.120  0.00  0.00    +0.000 NA
ATOM     12  C   UNL     1      -1.008  11.585  22.382  0.00  0.00    +0.000 A 
BRANCH   7  14
ATOM     13  O   UNL     1       1.716  13.385  21.569  0.00  0.00    +0.000 OA
ATOM     14  N   UNL     1       0.655  13.043  21.142  0.00  0.00    +0.000 N 
ATOM     15  O   UNL     1       0.450  13.142  19.847  0.00  0.00    +0.000 OA
ENDBRANCH   7  14
ENDBRANCH   1  12
BRANCH   4  16
ATOM     16  C   UNL     1       0.931   7.130  21.049  0.00  0.00    +0.000 C 
BRANCH  16  17
ATOM     17  C   UNL     1       1.755   6.076  20.339  0.00  0.00    +0.000 A 
ATOM     18  C   UNL     1       2.836   6.457  19.498  0.00  0.00    +0.000 A 
ATOM     19  C   UNL     1       3.595   5.485  18.820  0.00  0.00    +0.000 A 
ATOM     20  C   UNL     1       3.246   4.149  18.999  0.00  0.00    +0.000 A 
ATOM     21  C   UNL     1       2.222   3.777  19.793  0.00  0.00    +0.000 A 
ATOM     22  C   UNL     1       1.443   4.703  20.487  0.00  0.00    +0.000 A 
ATOM     23  O   UNL     1       2.116   2.444  19.775  0.00  0.00    +0.000 OA
ATOM     24  C   UNL     1       3.116   1.954  18.936  0.00  0.00    +0.000 C 
ATOM     25  O   UNL     1       3.811   3.065  18.463  0.00  0.00    +0.000 OA
ENDBRANCH  16  17
ENDBRANCH   4  16
TORSDOF 4
ENDMDL
MODEL 8
REMARK VINA RESULT:      -6.7      1.930      2.378
REMARK  Name = 
REMARK  4 active torsions:
REMARK  status: ('A' for Active; 'I' for Inactive)
REMARK    1  A    between atoms: N_2  and  C_4
REMARK    2  A    between atoms: C_9  and  N_10
REMARK    3  A    between atoms: N_13  and  C_14
REMARK    4  A    between atoms: C_14  and  C_15
REMARK                            x       y       z     vdW  Elec       q    Type
REMARK                         _______ _______ _______ _____ _____    ______ ____
ROOT
ATOM      1  N   UNL     1       4.064   6.096  18.176  0.00  0.00    +0.000 N 
ATOM      2  C   UNL     1       3.413   7.369  17.866  0.00  0.00    +0.000 C 
ATOM      3  C   UNL     1       1.912   7.299  18.199  0.00  0.00    +0.000 C 
ATOM      4  N   UNL     1       1.682   6.873  19.600  0.00  0.00    +0.000 NA
ATOM      5  C   UNL     1       2.290   5.537  19.806  0.00  0.00    +0.000 C 
ATOM      6  C   UNL     1       3.803   5.533  19.495  0.00  0.00    +0.000 C 
ENDROOT
BRANCH   1  12
ATOM      7  C   UNL     1       4.694   4.025  16.854  0.00  0.00    +0.000 A 
ATOM      8  C   UNL     1       5.606   3.439  15.953  0.00  0.00    +0.000 A 
ATOM      9  C   UNL     1       6.650   4.173  15.413  0.00  0.00    +0.000 A 
ATOM     10  C   UNL     1       6.796   5.507  15.762  0.00  0.00    +0.000 A 
ATOM     11  N   UNL     1       5.927   6.081  16.644  0.00  0.00    +0.000 NA
ATOM     12  C   UNL     1       4.899   5.400  17.228  0.00  0.00    +0.000 A 
BRANCH   7  14
ATOM     13  O   UNL     1       3.737   2.216  17.852  0.00  0.00    +0.000 OA
ATOM     14  N   UNL     1       3.565   3.244  17.269  0.00  0.00    +0.000 N 
ATOM     15  O   UNL     1       2.377   3.470  16.754  0.00  0.00    +0.000 OA
ENDBRANCH   7  14
ENDBRANCH   1  12
BRANCH   4  16
ATOM     16  C   UNL     1       2.110   7.861  20.627  0.00  0.00    +0.000 C 
BRANCH  16  17
ATOM     17  C   UNL     1       1.077   8.943  20.863  0.00  0.00    +0.000 A 
ATOM     18  C   UNL     1       0.602   9.730  19.778  0.00  0.00    +0.000 A 
ATOM     19  C   UNL     1      -0.343  10.750  19.992  0.00  0.00    +0.000 A 
ATOM     20  C   UNL     1      -0.787  10.960  21.294  0.00  0.00    +0.000 A 
ATOM     21  C   UNL     1      -0.343  10.220  22.330  0.00  0.00    +0.000 A 
ATOM     22  C   UNL     1       0.592   9.197  22.168  0.00  0.00    +0.000 A 
ATOM     23  O   UNL     1      -0.933  10.641  23.453  0.00  0.00    +0.000 OA
ATOM     24  C   UNL     1      -1.789  11.688  23.112  0.00  0.00    +0.000 C 
ATOM     25  O   UNL     1      -1.668  11.861  21.735  0.00  0.00    +0.000 OA
ENDBRANCH  16  17
ENDBRANCH   4  16
TORSDOF 4
ENDMDL
MODEL 9
REMARK VINA RESULT:      -6.7      3.795      8.487
REMARK  Name = 
REMARK  4 active torsions:
REMARK  status: ('A' for Active; 'I' for Inactive)
REMARK    1  A    between atoms: N_2  and  C_4
REMARK    2  A    between atoms: C_9  and  N_10
REMARK    3  A    between atoms: N_13  and  C_14
REMARK    4  A    between atoms: C_14  and  C_15
REMARK                            x       y       z     vdW  Elec       q    Type
REMARK                         _______ _______ _______ _____ _____    ______ ____
ROOT
ATOM      1  N   UNL     1       1.428  11.547  19.383  0.00  0.00    +0.000 N 
ATOM      2  C   UNL     1       1.119  10.808  20.607  0.00  0.00    +0.000 C 
ATOM      3  C   UNL     1       0.261   9.571  20.286  0.00  0.00    +0.000 C 
ATOM      4  N   UNL     1       0.899   8.717  19.256  0.00  0.00    +0.000 NA
ATOM      5  C   UNL     1       1.092   9.510  18.019  0.00  0.00    +0.000 C 
ATOM      6  C   UNL     1       1.952  10.770  18.266  0.00  0.00    +0.000 C 
ENDROOT
BRANCH   1  12
ATOM      7  C   UNL     1      -0.076  13.536  18.923  0.00  0.00    +0.000 A 
ATOM      8  C   UNL     1      -0.161  14.935  18.777  0.00  0.00    +0.000 A 
ATOM      9  C   UNL     1       0.945  15.745  18.981  0.00  0.00    +0.000 A 
ATOM     10  C   UNL     1       2.153  15.167  19.339  0.00  0.00    +0.000 A 
ATOM     11  N   UNL     1       2.251  13.812  19.469  0.00  0.00    +0.000 NA
ATOM     12  C   UNL     1       1.203  12.965  19.254  0.00  0.00    +0.000 A 
BRANCH   7  14
ATOM     13  O   UNL     1      -1.905  12.511  19.812  0.00  0.00    +0.000 OA
ATOM     14  N   UNL     1      -1.289  12.776  18.824  0.00  0.00    +0.000 N 
ATOM     15  O   UNL     1      -1.565  12.107  17.727  0.00  0.00    +0.000 OA
ENDBRANCH   7  14
ENDBRANCH   1  12
BRANCH   4  16
ATOM     16  C   UNL     1       2.145   8.036  19.699  0.00  0.00    +0.000 C 
BRANCH  16  17
ATOM     17  C   UNL     1       2.071   6.530  19.558  0.00  0.00    +0.000 A 
ATOM     18  C   UNL     1       1.634   5.728  20.648  0.00  0.00    +0.000 A 
ATOM     19  C   UNL     1       1.580   4.327  20.532  0.00  0.00    +0.000 A 
ATOM     20  C   UNL     1       1.970   3.761  19.323  0.00  0.00    +0.000 A 
ATOM     21  C   UNL     1       2.386   4.512  18.282  0.00  0.00    +0.000 A 
ATOM     22  C   UNL     1       2.455   5.904  18.349  0.00  0.00    +0.000 A 
ATOM     23  O   UNL     1       2.698   3.708  17.260  0.00  0.00    +0.000 OA
ATOM     24  C   UNL     1       2.466   2.396  17.670  0.00  0.00    +0.000 C 
ATOM     25  O   UNL     1       2.006   2.471  18.982  0.00  0.00    +0.000 OA
ENDBRANCH  16  17
ENDBRANCH   4  16
TORSDOF 4
ENDMDL
