MODEL 1
REMARK VINA RESULT:      -7.6      0.000      0.000
REMARK  Name = 
REMARK  7 active torsions:
REMARK  status: ('A' for Active; 'I' for Inactive)
REMARK    1  A    between atoms: C_1  and  C_2
REMARK    2  A    between atoms: C_2  and  C_3
REMARK    3  A    between atoms: C_2  and  C_4
REMARK    4  A    between atoms: C_4  and  C_5
REMARK    5  A    between atoms: C_4  and  C_20
REMARK    6  A    between atoms: N_10  and  C_11
REMARK    7  A    between atoms: C_11  and  C_12
REMARK                            x       y       z     vdW  Elec       q    Type
REMARK                         _______ _______ _______ _____ _____    ______ ____
ROOT
ATOM      1  C   UNL     1       2.414   7.799  18.561  0.00  0.00    +0.000 C 
ATOM      2  O   UNL     1       2.451   8.021  17.358  0.00  0.00    +0.000 OA
ATOM      3  N   UNL     1       1.788   8.731  19.376  0.00  0.00    +0.000 N 
ATOM      4  C   UNL     1       1.123   9.909  18.811  0.00  0.00    +0.000 C 
ATOM      5  C   UNL     1      -0.363   9.892  19.227  0.00  0.00    +0.000 C 
ATOM      6  N   UNL     1      -0.536   9.787  20.697  0.00  0.00    +0.000 NA
ATOM      7  C   UNL     1       0.215   8.625  21.231  0.00  0.00    +0.000 C 
ATOM      8  C   UNL     1       1.708   8.648  20.822  0.00  0.00    +0.000 C 
ENDROOT
BRANCH   1   9
ATOM      9  C   UNL     1       3.081   6.464  18.999  0.00  0.00    +0.000 C 
BRANCH   9  10
ATOM     10  C   UNL     1       2.182   5.223  19.181  0.00  0.00    +0.000 A 
ATOM     11  C   UNL     1       1.824   4.809  20.480  0.00  0.00    +0.000 A 
ATOM     12  C   UNL     1       1.126   3.608  20.680  0.00  0.00    +0.000 A 
ATOM     13  C   UNL     1       0.764   2.809  19.594  0.00  0.00    +0.000 A 
ATOM     14  C   UNL     1       1.099   3.205  18.305  0.00  0.00    +0.000 A 
ATOM     15  C   UNL     1       1.805   4.391  18.096  0.00  0.00    +0.000 A 
ENDBRANCH   9  10
BRANCH   9  17
ATOM     16  C   UNL     1       5.423   5.218  19.216  0.00  0.00    +0.000 C 
ATOM     17  C   UNL     1       4.500   6.136  18.397  0.00  0.00    +0.000 C 
ATOM     18  C   UNL     1       4.434   5.591  16.958  0.00  0.00    +0.000 C 
ENDBRANCH   9  17
ENDBRANCH   1   9
BRANCH   6  19
ATOM     19  C   UNL     1      -0.244  11.031  21.444  0.00  0.00    +0.000 C 
BRANCH  19  20
ATOM     20  C   UNL     1      -1.496  11.754  21.885  0.00  0.00    +0.000 A 
ATOM     21  C   UNL     1      -2.209  12.580  20.994  0.00  0.00    +0.000 A 
ATOM     22  C   UNL     1      -3.381  13.217  21.418  0.00  0.00    +0.000 A 
ATOM     23  C   UNL     1      -3.850  13.044  22.715  0.00  0.00    +0.000 A 
ATOM     24  C   UNL     1      -3.152  12.228  23.607  0.00  0.00    +0.000 A 
ATOM     25  C   UNL     1      -1.978  11.587  23.195  0.00  0.00    +0.000 A 
ENDBRANCH  19  20
ENDBRANCH   6  19
TORSDOF 5
ENDMDL
MODEL 2
REMARK VINA RESULT:      -7.4      0.413      1.187
REMARK  Name = 
REMARK  7 active torsions:
REMARK  status: ('A' for Active; 'I' for Inactive)
REMARK    1  A    between atoms: C_1  and  C_2
REMARK    2  A    between atoms: C_2  and  C_3
REMARK    3  A    between atoms: C_2  and  C_4
REMARK    4  A    between atoms: C_4  and  C_5
REMARK    5  A    between atoms: C_4  and  C_20
REMARK    6  A    between atoms: N_10  and  C_11
REMARK    7  A    between atoms: C_11  and  C_12
REMARK                            x       y       z     vdW  Elec       q    Type
REMARK                         _______ _______ _______ _____ _____    ______ ____
ROOT
ATOM      1  C   UNL     1       2.408   7.769  18.456  0.00  0.00    +0.000 C 
ATOM      2  O   UNL     1       2.383   8.034  17.262  0.00  0.00    +0.000 OA
ATOM      3  N   UNL     1       1.840   8.677  19.337  0.00  0.00    +0.000 N 
ATOM      4  C   UNL     1       1.163   9.883  18.851  0.00  0.00    +0.000 C 
ATOM      5  C   UNL     1      -0.299   9.869  19.347  0.00  0.00    +0.000 C 
ATOM      6  N   UNL     1      -0.394   9.712  20.820  0.00  0.00    +0.000 NA
ATOM      7  C   UNL     1       0.369   8.523  21.271  0.00  0.00    +0.000 C 
ATOM      8  C   UNL     1       1.837   8.543  20.781  0.00  0.00    +0.000 C 
ENDROOT
BRANCH   1   9
ATOM      9  C   UNL     1       3.079   6.410  18.809  0.00  0.00    +0.000 C 
BRANCH   9  10
ATOM     10  C   UNL     1       2.169   5.197  19.095  0.00  0.00    +0.000 A 
ATOM     11  C   UNL     1       1.839   4.875  20.426  0.00  0.00    +0.000 A 
ATOM     12  C   UNL     1       1.130   3.700  20.722  0.00  0.00    +0.000 A 
ATOM     13  C   UNL     1       0.731   2.837  19.701  0.00  0.00    +0.000 A 
ATOM     14  C   UNL     1       1.038   3.142  18.381  0.00  0.00    +0.000 A 
ATOM     15  C   UNL     1       1.754   4.301  18.077  0.00  0.00    +0.000 A 
ENDBRANCH   9  10
BRANCH   9  17
ATOM     16  C   UNL     1       5.311   7.199  17.591  0.00  0.00    +0.000 C 
ATOM     17  C   UNL     1       4.406   6.040  18.041  0.00  0.00    +0.000 C 
ATOM     18  C   UNL     1       5.274   5.016  18.794  0.00  0.00    +0.000 C 
ENDBRANCH   9  17
ENDBRANCH   1   9
BRANCH   6  19
ATOM     19  C   UNL     1      -0.044  10.925  21.594  0.00  0.00    +0.000 C 
BRANCH  19  20
ATOM     20  C   UNL     1      -1.259  11.727  22.000  0.00  0.00    +0.000 A 
ATOM     21  C   UNL     1      -1.950  11.445  23.195  0.00  0.00    +0.000 A 
ATOM     22  C   UNL     1      -3.056  12.220  23.562  0.00  0.00    +0.000 A 
ATOM     23  C   UNL     1      -3.482  13.269  22.757  0.00  0.00    +0.000 A 
ATOM     24  C   UNL     1      -2.806  13.559  21.571  0.00  0.00    +0.000 A 
ATOM     25  C   UNL     1      -1.700  12.789  21.191  0.00  0.00    +0.000 A 
ENDBRANCH  19  20
ENDBRANCH   6  19
TORSDOF 5
ENDMDL
MODEL 3
REMARK VINA RESULT:      -7.2      2.623      8.288
REMARK  Name = 
REMARK  7 active torsions:
REMARK  status: ('A' for Active; 'I' for Inactive)
REMARK    1  A    between atoms: C_1  and  C_2
REMARK    2  A    between atoms: C_2  and  C_3
REMARK    3  A    between atoms: C_2  and  C_4
REMARK    4  A    between atoms: C_4  and  C_5
REMARK    5  A    between atoms: C_4  and  C_20
REMARK    6  A    between atoms: N_10  and  C_11
REMARK    7  A    between atoms: C_11  and  C_12
REMARK                            x       y       z     vdW  Elec       q    Type
REMARK                         _______ _______ _______ _____ _____    ______ ____
ROOT
ATOM      1  C   UNL     1       0.643   9.303  19.811  0.00  0.00    +0.000 C 
ATOM      2  O   UNL     1      -0.055   9.259  20.816  0.00  0.00    +0.000 OA
ATOM      3  N   UNL     1       1.657   8.365  19.681  0.00  0.00    +0.000 N 
ATOM      4  C   UNL     1       1.843   7.306  20.677  0.00  0.00    +0.000 C 
ATOM      5  C   UNL     1       1.722   5.935  19.977  0.00  0.00    +0.000 C 
ATOM      6  N   UNL     1       2.648   5.807  18.824  0.00  0.00    +0.000 NA
ATOM      7  C   UNL     1       2.474   6.940  17.884  0.00  0.00    +0.000 C 
ATOM      8  C   UNL     1       2.605   8.314  18.585  0.00  0.00    +0.000 C 
ENDROOT
BRANCH   1   9
ATOM      9  C   UNL     1       0.265  10.425  18.802  0.00  0.00    +0.000 C 
BRANCH   9  10
ATOM     10  C   UNL     1      -1.194  10.500  18.304  0.00  0.00    +0.000 A 
ATOM     11  C   UNL     1      -1.584   9.744  17.182  0.00  0.00    +0.000 A 
ATOM     12  C   UNL     1      -2.863   9.899  16.625  0.00  0.00    +0.000 A 
ATOM     13  C   UNL     1      -3.774  10.798  17.182  0.00  0.00    +0.000 A 
ATOM     14  C   UNL     1      -3.411  11.546  18.296  0.00  0.00    +0.000 A 
ATOM     15  C   UNL     1      -2.137  11.409  18.849  0.00  0.00    +0.000 A 
ENDBRANCH   9  10
BRANCH   9  17
ATOM     16  C   UNL     1       1.220  12.282  20.453  0.00  0.00    +0.000 C 
ATOM     17  C   UNL     1       0.938  11.836  19.009  0.00  0.00    +0.000 C 
ATOM     18  C   UNL     1       2.228  12.016  18.189  0.00  0.00    +0.000 C 
ENDBRANCH   9  17
ENDBRANCH   1   9
BRANCH   6  19
ATOM     19  C   UNL     1       4.067   5.600  19.191  0.00  0.00    +0.000 C 
BRANCH  19  20
ATOM     20  C   UNL     1       4.941   5.301  17.995  0.00  0.00    +0.000 A 
ATOM     21  C   UNL     1       4.620   4.258  17.103  0.00  0.00    +0.000 A 
ATOM     22  C   UNL     1       5.430   4.019  15.988  0.00  0.00    +0.000 A 
ATOM     23  C   UNL     1       6.553   4.802  15.749  0.00  0.00    +0.000 A 
ATOM     24  C   UNL     1       6.882   5.838  16.625  0.00  0.00    +0.000 A 
ATOM     25  C   UNL     1       6.081   6.086  17.745  0.00  0.00    +0.000 A 
ENDBRANCH  19  20
ENDBRANCH   6  19
TORSDOF 5
ENDMDL
MODEL 4
REMARK VINA RESULT:      -7.2      0.222      1.383
REMARK  Name = 
REMARK  7 active torsions:
REMARK  status: ('A' for Active; 'I' for Inactive)
REMARK    1  A    between atoms: C_1  and  C_2
REMARK    2  A    between atoms: C_2  and  C_3
REMARK    3  A    between atoms: C_2  and  C_4
REMARK    4  A    between atoms: C_4  and  C_5
REMARK    5  A    between atoms: C_4  and  C_20
REMARK    6  A    between atoms: N_10  and  C_11
REMARK    7  A    between atoms: C_11  and  C_12
REMARK                            x       y       z     vdW  Elec       q    Type
REMARK                         _______ _______ _______ _____ _____    ______ ____
ROOT
ATOM      1  C   UNL     1       2.479   7.877  18.422  0.00  0.00    +0.000 C 
ATOM      2  O   UNL     1       2.478   8.056  17.211  0.00  0.00    +0.000 OA
ATOM      3  N   UNL     1       1.826   8.806  19.218  0.00  0.00    +0.000 N 
ATOM      4  C   UNL     1       1.090   9.928  18.627  0.00  0.00    +0.000 C 
ATOM      5  C   UNL     1      -0.384   9.853  19.080  0.00  0.00    +0.000 C 
ATOM      6  N   UNL     1      -0.518   9.795  20.557  0.00  0.00    +0.000 NA
ATOM      7  C   UNL     1       0.303   8.692  21.114  0.00  0.00    +0.000 C 
ATOM      8  C   UNL     1       1.783   8.773  20.668  0.00  0.00    +0.000 C 
ENDROOT
BRANCH   1   9
ATOM      9  C   UNL     1       3.222   6.593  18.891  0.00  0.00    +0.000 C 
BRANCH   9  10
ATOM     10  C   UNL     1       2.393   5.312  19.123  0.00  0.00    +0.000 A 
ATOM     11  C   UNL     1       1.975   4.546  18.017  0.00  0.00    +0.000 A 
ATOM     12  C   UNL     1       1.106   3.457  18.190  0.00  0.00    +0.000 A 
ATOM     13  C   UNL     1       0.651   3.108  19.462  0.00  0.00    +0.000 A 
ATOM     14  C   UNL     1       1.061   3.845  20.567  0.00  0.00    +0.000 A 
ATOM     15  C   UNL     1       1.914   4.938  20.405  0.00  0.00    +0.000 A 
ENDBRANCH   9  10
BRANCH   9  17
ATOM     16  C   UNL     1       5.547   5.302  18.999  0.00  0.00    +0.000 C 
ATOM     17  C   UNL     1       4.650   6.322  18.279  0.00  0.00    +0.000 C 
ATOM     18  C   UNL     1       4.607   5.955  16.785  0.00  0.00    +0.000 C 
ENDBRANCH   9  17
ENDBRANCH   1   9
BRANCH   6  19
ATOM     19  C   UNL     1      -0.272  11.078  21.252  0.00  0.00    +0.000 C 
BRANCH  19  20
ATOM     20  C   UNL     1      -1.544  11.729  21.742  0.00  0.00    +0.000 A 
ATOM     21  C   UNL     1      -1.934  11.636  23.093  0.00  0.00    +0.000 A 
ATOM     22  C   UNL     1      -3.103  12.270  23.528  0.00  0.00    +0.000 A 
ATOM     23  C   UNL     1      -3.888  12.993  22.638  0.00  0.00    +0.000 A 
ATOM     24  C   UNL     1      -3.513  13.093  21.297  0.00  0.00    +0.000 A 
ATOM     25  C   UNL     1      -2.347  12.461  20.849  0.00  0.00    +0.000 A 
ENDBRANCH  19  20
ENDBRANCH   6  19
TORSDOF 5
ENDMDL
MODEL 5
REMARK VINA RESULT:      -7.1      3.865      9.731
REMARK  Name = 
REMARK  7 active torsions:
REMARK  status: ('A' for Active; 'I' for Inactive)
REMARK    1  A    between atoms: C_1  and  C_2
REMARK    2  A    between atoms: C_2  and  C_3
REMARK    3  A    between atoms: C_2  and  C_4
REMARK    4  A    between atoms: C_4  and  C_5
REMARK    5  A    between atoms: C_4  and  C_20
REMARK    6  A    between atoms: N_10  and  C_11
REMARK    7  A    between atoms: C_11  and  C_12
REMARK                            x       y       z     vdW  Elec       q    Type
REMARK                         _______ _______ _______ _____ _____    ______ ____
ROOT
ATOM      1  C   UNL     1       5.097   5.643  18.871  0.00  0.00    +0.000 C 
ATOM      2  O   UNL     1       5.982   5.959  19.656  0.00  0.00    +0.000 OA
ATOM      3  N   UNL     1       5.449   5.421  17.548  0.00  0.00    +0.000 N 
ATOM      4  C   UNL     1       6.847   5.486  17.113  0.00  0.00    +0.000 C 
ATOM      5  C   UNL     1       7.244   4.126  16.500  0.00  0.00    +0.000 C 
ATOM      6  N   UNL     1       6.324   3.708  15.412  0.00  0.00    +0.000 NA
ATOM      7  C   UNL     1       4.916   3.731  15.879  0.00  0.00    +0.000 C 
ATOM      8  C   UNL     1       4.517   5.098  16.484  0.00  0.00    +0.000 C 
ENDROOT
BRANCH   1   9
ATOM      9  C   UNL     1       3.679   5.525  19.500  0.00  0.00    +0.000 C 
BRANCH   9  10
ATOM     10  C   UNL     1       2.732   6.739  19.401  0.00  0.00    +0.000 A 
ATOM     11  C   UNL     1       2.703   7.502  18.218  0.00  0.00    +0.000 A 
ATOM     12  C   UNL     1       1.956   8.689  18.151  0.00  0.00    +0.000 A 
ATOM     13  C   UNL     1       1.220   9.126  19.253  0.00  0.00    +0.000 A 
ATOM     14  C   UNL     1       1.227   8.381  20.426  0.00  0.00    +0.000 A 
ATOM     15  C   UNL     1       1.977   7.207  20.507  0.00  0.00    +0.000 A 
ENDBRANCH   9  10
BRANCH   9  17
ATOM     16  C   UNL     1       2.520   3.431  20.666  0.00  0.00    +0.000 C 
ATOM     17  C   UNL     1       2.945   4.135  19.367  0.00  0.00    +0.000 C 
ATOM     18  C   UNL     1       1.729   4.183  18.425  0.00  0.00    +0.000 C 
ENDBRANCH   9  17
ENDBRANCH   1   9
BRANCH   6  19
ATOM     19  C   UNL     1       6.501   4.441  14.138  0.00  0.00    +0.000 C 
BRANCH  19  20
ATOM     20  C   UNL     1       5.970   3.676  12.948  0.00  0.00    +0.000 A 
ATOM     21  C   UNL     1       6.747   2.683  12.317  0.00  0.00    +0.000 A 
ATOM     22  C   UNL     1       6.222   1.970  11.233  0.00  0.00    +0.000 A 
ATOM     23  C   UNL     1       4.939   2.231  10.770  0.00  0.00    +0.000 A 
ATOM     24  C   UNL     1       4.159   3.212  11.386  0.00  0.00    +0.000 A 
ATOM     25  C   UNL     1       4.673   3.934  12.469  0.00  0.00    +0.000 A 
ENDBRANCH  19  20
ENDBRANCH   6  19
TORSDOF 5
ENDMDL
MODEL 6
REMARK VINA RESULT:      -7.1      2.694      8.196
REMARK  Name = 
REMARK  7 active torsions:
REMARK  status: ('A' for Active; 'I' for Inactive)
REMARK    1  A    between atoms: C_1  and  C_2
REMARK    2  A    between atoms: C_2  and  C_3
REMARK    3  A    between atoms: C_2  and  C_4
REMARK    4  A    between atoms: C_4  and  C_5
REMARK    5  A    between atoms: C_4  and  C_20
REMARK    6  A    between atoms: N_10  and  C_11
REMARK    7  A    between atoms: C_11  and  C_12
REMARK                            x       y       z     vdW  Elec       q    Type
REMARK                         _______ _______ _______ _____ _____    ______ ____
ROOT
ATOM      1  C   UNL     1       0.670   9.625  19.713  0.00  0.00    +0.000 C 
ATOM      2  O   UNL     1       0.026   9.678  20.753  0.00  0.00    +0.000 OA
ATOM      3  N   UNL     1       1.640   8.641  19.598  0.00  0.00    +0.000 N 
ATOM      4  C   UNL     1       1.841   7.645  20.654  0.00  0.00    +0.000 C 
ATOM      5  C   UNL     1       1.633   6.236  20.059  0.00  0.00    +0.000 C 
ATOM      6  N   UNL     1       2.491   5.993  18.872  0.00  0.00    +0.000 NA
ATOM      7  C   UNL     1       2.307   7.066  17.865  0.00  0.00    +0.000 C 
ATOM      8  C   UNL     1       2.526   8.478  18.460  0.00  0.00    +0.000 C 
ENDROOT
BRANCH   1   9
ATOM      9  C   UNL     1       0.279  10.690  18.649  0.00  0.00    +0.000 C 
BRANCH   9  10
ATOM     10  C   UNL     1      -1.190  10.749  18.178  0.00  0.00    +0.000 A 
ATOM     11  C   UNL     1      -2.079  11.655  18.788  0.00  0.00    +0.000 A 
ATOM     12  C   UNL     1      -3.447  11.633  18.476  0.00  0.00    +0.000 A 
ATOM     13  C   UNL     1      -3.948  10.719  17.548  0.00  0.00    +0.000 A 
ATOM     14  C   UNL     1      -3.085   9.824  16.928  0.00  0.00    +0.000 A 
ATOM     15  C   UNL     1      -1.725   9.829  17.241  0.00  0.00    +0.000 A 
ENDBRANCH   9  10
BRANCH   9  17
ATOM     16  C   UNL     1       1.067  12.737  20.158  0.00  0.00    +0.000 C 
ATOM     17  C   UNL     1       0.966  12.106  18.760  0.00  0.00    +0.000 C 
ATOM     18  C   UNL     1       2.360  12.153  18.109  0.00  0.00    +0.000 C 
ENDBRANCH   9  17
ENDBRANCH   1   9
BRANCH   6  19
ATOM     19  C   UNL     1       3.919   5.755  19.179  0.00  0.00    +0.000 C 
BRANCH  19  20
ATOM     20  C   UNL     1       4.738   5.455  17.946  0.00  0.00    +0.000 A 
ATOM     21  C   UNL     1       5.781   6.312  17.540  0.00  0.00    +0.000 A 
ATOM     22  C   UNL     1       6.543   5.998  16.409  0.00  0.00    +0.000 A 
ATOM     23  C   UNL     1       6.281   4.846  15.678  0.00  0.00    +0.000 A 
ATOM     24  C   UNL     1       5.250   3.989  16.069  0.00  0.00    +0.000 A 
ATOM     25  C   UNL     1       4.479   4.293  17.197  0.00  0.00    +0.000 A 
ENDBRANCH  19  20
ENDBRANCH   6  19
TORSDOF 5
ENDMDL
MODEL 7
REMARK VINA RESULT:      -7.0      1.967      4.173
REMARK  Name = 
REMARK  7 active torsions:
REMARK  status: ('A' for Active; 'I' for Inactive)
REMARK    1  A    between atoms: C_1  and  C_2
REMARK    2  A    between atoms: C_2  and  C_3
REMARK    3  A    between atoms: C_2  and  C_4
REMARK    4  A    between atoms: C_4  and  C_5
REMARK    5  A    between atoms: C_4  and  C_20
REMARK    6  A    between atoms: N_10  and  C_11
REMARK    7  A    between atoms: C_11  and  C_12
REMARK                            x       y       z     vdW  Elec       q    Type
REMARK                         _______ _______ _______ _____ _____    ______ ____
ROOT
ATOM      1  C   UNL     1       3.171   5.808  19.190  0.00  0.00    +0.000 C 
ATOM      2  O   UNL     1       3.294   5.128  20.200  0.00  0.00    +0.000 OA
ATOM      3  N   UNL     1       2.218   6.815  19.196  0.00  0.00    +0.000 N 
ATOM      4  C   UNL     1       1.433   7.111  20.398  0.00  0.00    +0.000 C 
ATOM      5  C   UNL     1       1.674   8.581  20.804  0.00  0.00    +0.000 C 
ATOM      6  N   UNL     1       1.398   9.525  19.693  0.00  0.00    +0.000 NA
ATOM      7  C   UNL     1       2.157   9.141  18.478  0.00  0.00    +0.000 C 
ATOM      8  C   UNL     1       1.906   7.670  18.066  0.00  0.00    +0.000 C 
ENDROOT
BRANCH   1   9
ATOM      9  C   UNL     1       4.137   5.434  18.030  0.00  0.00    +0.000 C 
BRANCH   9  10
ATOM     10  C   UNL     1       5.589   5.953  18.092  0.00  0.00    +0.000 A 
ATOM     11  C   UNL     1       6.481   5.410  19.038  0.00  0.00    +0.000 A 
ATOM     12  C   UNL     1       7.762   5.957  19.209  0.00  0.00    +0.000 A 
ATOM     13  C   UNL     1       8.178   7.043  18.437  0.00  0.00    +0.000 A 
ATOM     14  C   UNL     1       7.316   7.587  17.492  0.00  0.00    +0.000 A 
ATOM     15  C   UNL     1       6.036   7.058  17.323  0.00  0.00    +0.000 A 
ENDBRANCH   9  10
BRANCH   9  17
ATOM     16  C   UNL     1       2.589   3.441  17.183  0.00  0.00    +0.000 C 
ATOM     17  C   UNL     1       4.008   3.985  17.422  0.00  0.00    +0.000 C 
ATOM     18  C   UNL     1       4.819   3.799  16.127  0.00  0.00    +0.000 C 
ENDBRANCH   9  17
ENDBRANCH   1   9
BRANCH   6  19
ATOM     19  C   UNL     1      -0.039   9.742  19.408  0.00  0.00    +0.000 C 
BRANCH  19  20
ATOM     20  C   UNL     1      -0.462  11.179  19.604  0.00  0.00    +0.000 A 
ATOM     21  C   UNL     1      -1.154  11.581  20.765  0.00  0.00    +0.000 A 
ATOM     22  C   UNL     1      -1.511  12.923  20.935  0.00  0.00    +0.000 A 
ATOM     23  C   UNL     1      -1.190  13.868  19.969  0.00  0.00    +0.000 A 
ATOM     24  C   UNL     1      -0.504  13.483  18.815  0.00  0.00    +0.000 A 
ATOM     25  C   UNL     1      -0.144  12.143  18.632  0.00  0.00    +0.000 A 
ENDBRANCH  19  20
ENDBRANCH   6  19
TORSDOF 5
ENDMDL
MODEL 8
REMARK VINA RESULT:      -6.9      1.780      3.991
REMARK  Name = 
REMARK  7 active torsions:
REMARK  status: ('A' for Active; 'I' for Inactive)
REMARK    1  A    between atoms: C_1  and  C_2
REMARK    2  A    between atoms: C_2  and  C_3
REMARK    3  A    between atoms: C_2  and  C_4
REMARK    4  A    between atoms: C_4  and  C_5
REMARK    5  A    between atoms: C_4  and  C_20
REMARK    6  A    between atoms: N_10  and  C_11
REMARK    7  A    between atoms: C_11  and  C_12
REMARK                            x       y       z     vdW  Elec       q    Type
REMARK                         _______ _______ _______ _____ _____    ______ ____
ROOT
ATOM      1  C   UNL     1       3.008   5.659  19.349  0.00  0.00    +0.000 C 
ATOM      2  O   UNL     1       3.082   4.888  20.295  0.00  0.00    +0.000 OA
ATOM      3  N   UNL     1       2.076   6.685  19.416  0.00  0.00    +0.000 N 
ATOM      4  C   UNL     1       1.257   6.889  20.614  0.00  0.00    +0.000 C 
ATOM      5  C   UNL     1       1.516   8.309  21.161  0.00  0.00    +0.000 C 
ATOM      6  N   UNL     1       1.297   9.357  20.133  0.00  0.00    +0.000 NA
ATOM      7  C   UNL     1       2.089   9.067  18.913  0.00  0.00    +0.000 C 
ATOM      8  C   UNL     1       1.821   7.646  18.360  0.00  0.00    +0.000 C 
ENDROOT
BRANCH   1   9
ATOM      9  C   UNL     1       4.005   5.370  18.190  0.00  0.00    +0.000 C 
BRANCH   9  10
ATOM     10  C   UNL     1       5.427   5.963  18.284  0.00  0.00    +0.000 A 
ATOM     11  C   UNL     1       5.806   6.998  17.407  0.00  0.00    +0.000 A 
ATOM     12  C   UNL     1       7.132   7.460  17.377  0.00  0.00    +0.000 A 
ATOM     13  C   UNL     1       8.094   6.907  18.224  0.00  0.00    +0.000 A 
ATOM     14  C   UNL     1       7.737   5.891  19.103  0.00  0.00    +0.000 A 
ATOM     15  C   UNL     1       6.425   5.417  19.131  0.00  0.00    +0.000 A 
ENDBRANCH   9  10
BRANCH   9  17
ATOM     16  C   UNL     1       2.576   3.345  17.218  0.00  0.00    +0.000 C 
ATOM     17  C   UNL     1       3.959   3.933  17.542  0.00  0.00    +0.000 C 
ATOM     18  C   UNL     1       4.841   3.809  16.286  0.00  0.00    +0.000 C 
ENDBRANCH   9  17
ENDBRANCH   1   9
BRANCH   6  19
ATOM     19  C   UNL     1      -0.124   9.633  19.823  0.00  0.00    +0.000 C 
BRANCH  19  20
ATOM     20  C   UNL     1      -0.731  10.667  20.743  0.00  0.00    +0.000 A 
ATOM     21  C   UNL     1      -0.623  10.547  22.143  0.00  0.00    +0.000 A 
ATOM     22  C   UNL     1      -1.170  11.532  22.973  0.00  0.00    +0.000 A 
ATOM     23  C   UNL     1      -1.822  12.632  22.429  0.00  0.00    +0.000 A 
ATOM     24  C   UNL     1      -1.936  12.763  21.044  0.00  0.00    +0.000 A 
ATOM     25  C   UNL     1      -1.395  11.783  20.203  0.00  0.00    +0.000 A 
ENDBRANCH  19  20
ENDBRANCH   6  19
TORSDOF 5
ENDMDL
MODEL 9
REMARK VINA RESULT:      -6.8      2.240      4.871
REMARK  Name = 
REMARK  7 active torsions:
REMARK  status: ('A' for Active; 'I' for Inactive)
REMARK    1  A    between atoms: C_1  and  C_2
REMARK    2  A    between atoms: C_2  and  C_3
REMARK    3  A    between atoms: C_2  and  C_4
REMARK    4  A    between atoms: C_4  and  C_5
REMARK    5  A    between atoms: C_4  and  C_20
REMARK    6  A    between atoms: N_10  and  C_11
REMARK    7  A    between atoms: C_11  and  C_12
REMARK                            x       y       z     vdW  Elec       q    Type
REMARK                         _______ _______ _______ _____ _____    ______ ____
ROOT
ATOM      1  C   UNL     1       3.647   4.594  17.840  0.00  0.00    +0.000 C 
ATOM      2  O   UNL     1       3.672   3.378  17.978  0.00  0.00    +0.000 OA
ATOM      3  N   UNL     1       2.655   5.304  18.500  0.00  0.00    +0.000 N 
ATOM      4  C   UNL     1       1.711   4.632  19.398  0.00  0.00    +0.000 C 
ATOM      5  C   UNL     1       1.831   5.255  20.806  0.00  0.00    +0.000 C 
ATOM      6  N   UNL     1       1.654   6.728  20.788  0.00  0.00    +0.000 NA
ATOM      7  C   UNL     1       2.578   7.354  19.811  0.00  0.00    +0.000 C 
ATOM      8  C   UNL     1       2.451   6.736  18.397  0.00  0.00    +0.000 C 
ENDROOT
BRANCH   1   9
ATOM      9  C   UNL     1       4.769   5.171  16.930  0.00  0.00    +0.000 C 
BRANCH   9  10
ATOM     10  C   UNL     1       5.945   5.913  17.600  0.00  0.00    +0.000 A 
ATOM     11  C   UNL     1       6.407   7.123  17.048  0.00  0.00    +0.000 A 
ATOM     12  C   UNL     1       7.560   7.745  17.554  0.00  0.00    +0.000 A 
ATOM     13  C   UNL     1       8.260   7.179  18.620  0.00  0.00    +0.000 A 
ATOM     14  C   UNL     1       7.815   5.991  19.184  0.00  0.00    +0.000 A 
ATOM     15  C   UNL     1       6.677   5.357  18.681  0.00  0.00    +0.000 A 
ENDBRANCH   9  10
BRANCH   9  17
ATOM     16  C   UNL     1       5.166   5.004  14.303  0.00  0.00    +0.000 C 
ATOM     17  C   UNL     1       5.193   4.313  15.676  0.00  0.00    +0.000 C 
ATOM     18  C   UNL     1       6.564   3.633  15.846  0.00  0.00    +0.000 C 
ENDBRANCH   9  17
ENDBRANCH   1   9
BRANCH   6  19
ATOM     19  C   UNL     1       0.258   7.182  20.603  0.00  0.00    +0.000 C 
BRANCH  19  20
ATOM     20  C   UNL     1       0.009   8.554  21.184  0.00  0.00    +0.000 A 
ATOM     21  C   UNL     1      -0.372   8.715  22.532  0.00  0.00    +0.000 A 
ATOM     22  C   UNL     1      -0.570   9.998  23.053  0.00  0.00    +0.000 A 
ATOM     23  C   UNL     1      -0.395  11.121  22.254  0.00  0.00    +0.000 A 
ATOM     24  C   UNL     1      -0.017  10.976  20.917  0.00  0.00    +0.000 A 
ATOM     25  C   UNL     1       0.181   9.697  20.383  0.00  0.00    +0.000 A 
ENDBRANCH  19  20
ENDBRANCH   6  19
TORSDOF 5
ENDMDL
