MODEL 1
REMARK VINA RESULT:      -7.6      0.000      0.000
REMARK  Name = 
REMARK  10 active torsions:
REMARK  status: ('A' for Active; 'I' for Inactive)
REMARK    1  A    between atoms: C_1  and  O_2
REMARK    2  A    between atoms: O_2  and  C_3
REMARK    3  A    between atoms: C_7  and  N_8
REMARK    4  A    between atoms: C_9  and  C_11
REMARK    5  A    between atoms: C_11  and  N_12
REMARK    6  A    between atoms: N_12  and  C_13
REMARK    7  A    between atoms: N_12  and  C_14
REMARK    8  A    between atoms: C_14  and  C_15
REMARK    9  A    between atoms: C_14  and  C_16
REMARK   10  A    between atoms: N_21  and  C_22
REMARK                            x       y       z     vdW  Elec       q    Type
REMARK                         _______ _______ _______ _____ _____    ______ ____
ROOT
ATOM      1  C   UNL     1       1.442   3.986  20.487  0.00  0.00    +0.000 C 
ATOM      2  C   UNL     1       2.273   3.628  21.728  0.00  0.00    +0.000 C 
ENDROOT
BRANCH   1   3
ATOM      3  C   UNL     1       1.509   5.519  20.305  0.00  0.00    +0.000 C 
ATOM      4  O   UNL     1       0.928   6.287  21.077  0.00  0.00    +0.000 OA
ATOM      5  N   UNL     1       2.295   5.963  19.258  0.00  0.00    +0.000 N 
ATOM      6  C   UNL     1       2.473   7.268  18.849  0.00  0.00    +0.000 C 
ATOM      7  O   UNL     1       3.234   7.522  17.918  0.00  0.00    +0.000 OA
ATOM      8  N   UNL     1       1.730   8.192  19.522  0.00  0.00    +0.000 N 
ATOM      9  H   UNL     1       2.811   5.301  18.695  0.00  0.00    +0.000 HD
ATOM     10  H   UNL     1       1.338   7.863  20.403  0.00  0.00    +0.000 HD
BRANCH   8  11
ATOM     11  C   UNL     1       1.755   9.632  19.300  0.00  0.00    +0.000 C 
ATOM     12  C   UNL     1       1.148  10.022  17.946  0.00  0.00    +0.000 C 
ATOM     13  C   UNL     1      -0.349   9.722  17.890  0.00  0.00    +0.000 C 
ATOM     14  C   UNL     1      -1.094  10.470  18.990  0.00  0.00    +0.000 C 
ATOM     15  C   UNL     1      -0.517  10.173  20.372  0.00  0.00    +0.000 C 
ATOM     16  C   UNL     1       1.003  10.359  20.432  0.00  0.00    +0.000 C 
ENDBRANCH   8  11
ENDBRANCH   1   3
BRANCH   1  17
ATOM     17  N   UNL     1       1.912   3.235  19.278  0.00  0.00    +0.000 NA
ATOM     18  C   UNL     1       0.872   2.337  18.739  0.00  0.00    +0.000 C 
BRANCH  17  19
ATOM     19  C   UNL     1       3.160   2.479  19.572  0.00  0.00    +0.000 C 
BRANCH  19  21
ATOM     20  N   UNL     1       4.201   3.459  17.591  0.00  0.00    +0.000 N 
ATOM     21  C   UNL     1       4.403   3.101  18.914  0.00  0.00    +0.000 C 
ATOM     22  O   UNL     1       5.436   3.245  19.563  0.00  0.00    +0.000 OA
ATOM     23  H   UNL     1       3.318   3.136  17.206  0.00  0.00    +0.000 HD
BRANCH  20  28
ATOM     24  C   UNL     1       6.887   5.630  16.264  0.00  0.00    +0.000 A 
ATOM     25  C   UNL     1       7.078   5.093  14.991  0.00  0.00    +0.000 A 
ATOM     26  C   UNL     1       6.322   3.997  14.571  0.00  0.00    +0.000 A 
ATOM     27  C   UNL     1       5.371   3.438  15.418  0.00  0.00    +0.000 A 
ATOM     28  C   UNL     1       5.166   3.966  16.698  0.00  0.00    +0.000 A 
ATOM     29  C   UNL     1       5.942   5.057  17.122  0.00  0.00    +0.000 A 
BRANCH  24  31
ATOM     30  C   UNL     1       7.202   7.634  17.510  0.00  0.00    +0.000 C 
ATOM     31  O   UNL     1       7.678   6.712  16.541  0.00  0.00    +0.000 OA
ENDBRANCH  24  31
ENDBRANCH  20  28
ENDBRANCH  19  21
ENDBRANCH  17  19
ENDBRANCH   1  17
TORSDOF 7
ENDMDL
MODEL 2
REMARK VINA RESULT:      -7.2      1.849      6.920
REMARK  Name = 
REMARK  10 active torsions:
REMARK  status: ('A' for Active; 'I' for Inactive)
REMARK    1  A    between atoms: C_1  and  O_2
REMARK    2  A    between atoms: O_2  and  C_3
REMARK    3  A    between atoms: C_7  and  N_8
REMARK    4  A    between atoms: C_9  and  C_11
REMARK    5  A    between atoms: C_11  and  N_12
REMARK    6  A    between atoms: N_12  and  C_13
REMARK    7  A    between atoms: N_12  and  C_14
REMARK    8  A    between atoms: C_14  and  C_15
REMARK    9  A    between atoms: C_14  and  C_16
REMARK   10  A    between atoms: N_21  and  C_22
REMARK                            x       y       z     vdW  Elec       q    Type
REMARK                         _______ _______ _______ _____ _____    ______ ____
ROOT
ATOM      1  C   UNL     1       2.534   2.570  20.103  0.00  0.00    +0.000 C 
ATOM      2  C   UNL     1       1.622   1.867  19.086  0.00  0.00    +0.000 C 
ENDROOT
BRANCH   1   3
ATOM      3  C   UNL     1       3.828   2.980  19.366  0.00  0.00    +0.000 C 
ATOM      4  O   UNL     1       4.932   2.911  19.914  0.00  0.00    +0.000 OA
ATOM      5  N   UNL     1       3.669   3.379  18.052  0.00  0.00    +0.000 N 
ATOM      6  C   UNL     1       4.648   3.846  17.201  0.00  0.00    +0.000 C 
ATOM      7  O   UNL     1       4.367   4.134  16.040  0.00  0.00    +0.000 OA
ATOM      8  N   UNL     1       5.884   3.984  17.761  0.00  0.00    +0.000 N 
ATOM      9  H   UNL     1       2.755   3.351  17.622  0.00  0.00    +0.000 HD
ATOM     10  H   UNL     1       6.008   3.490  18.644  0.00  0.00    +0.000 HD
BRANCH   8  11
ATOM     11  C   UNL     1       7.087   4.431  17.073  0.00  0.00    +0.000 C 
ATOM     12  C   UNL     1       6.873   5.756  16.329  0.00  0.00    +0.000 C 
ATOM     13  C   UNL     1       6.617   6.911  17.295  0.00  0.00    +0.000 C 
ATOM     14  C   UNL     1       7.784   7.079  18.261  0.00  0.00    +0.000 C 
ATOM     15  C   UNL     1       8.095   5.786  19.010  0.00  0.00    +0.000 C 
ATOM     16  C   UNL     1       8.249   4.582  18.073  0.00  0.00    +0.000 C 
ENDBRANCH   8  11
ENDBRANCH   1   3
BRANCH   1  17
ATOM     17  N   UNL     1       1.839   3.730  20.749  0.00  0.00    +0.000 NA
ATOM     18  C   UNL     1       0.627   4.137  20.012  0.00  0.00    +0.000 C 
BRANCH  17  19
ATOM     19  C   UNL     1       2.767   4.882  20.915  0.00  0.00    +0.000 C 
BRANCH  19  21
ATOM     20  N   UNL     1       1.906   7.168  20.916  0.00  0.00    +0.000 N 
ATOM     21  C   UNL     1       2.330   6.121  20.116  0.00  0.00    +0.000 C 
ATOM     22  O   UNL     1       2.390   6.113  18.888  0.00  0.00    +0.000 OA
ATOM     23  H   UNL     1       1.811   6.926  21.898  0.00  0.00    +0.000 HD
BRANCH  20  28
ATOM     24  C   UNL     1       0.071  10.379  21.044  0.00  0.00    +0.000 A 
ATOM     25  C   UNL     1       0.200  10.828  19.729  0.00  0.00    +0.000 A 
ATOM     26  C   UNL     1       0.911  10.072  18.796  0.00  0.00    +0.000 A 
ATOM     27  C   UNL     1       1.488   8.862  19.170  0.00  0.00    +0.000 A 
ATOM     28  C   UNL     1       1.364   8.396  20.484  0.00  0.00    +0.000 A 
ATOM     29  C   UNL     1       0.665   9.170  21.423  0.00  0.00    +0.000 A 
BRANCH  24  31
ATOM     30  C   UNL     1      -1.057  10.698  23.116  0.00  0.00    +0.000 C 
ATOM     31  O   UNL     1      -0.665  11.206  21.849  0.00  0.00    +0.000 OA
ENDBRANCH  24  31
ENDBRANCH  20  28
ENDBRANCH  19  21
ENDBRANCH  17  19
ENDBRANCH   1  17
TORSDOF 7
ENDMDL
MODEL 3
REMARK VINA RESULT:      -7.2      3.943      7.307
REMARK  Name = 
REMARK  10 active torsions:
REMARK  status: ('A' for Active; 'I' for Inactive)
REMARK    1  A    between atoms: C_1  and  O_2
REMARK    2  A    between atoms: O_2  and  C_3
REMARK    3  A    between atoms: C_7  and  N_8
REMARK    4  A    between atoms: C_9  and  C_11
REMARK    5  A    between atoms: C_11  and  N_12
REMARK    6  A    between atoms: N_12  and  C_13
REMARK    7  A    between atoms: N_12  and  C_14
REMARK    8  A    between atoms: C_14  and  C_15
REMARK    9  A    between atoms: C_14  and  C_16
REMARK   10  A    between atoms: N_21  and  C_22
REMARK                            x       y       z     vdW  Elec       q    Type
REMARK                         _______ _______ _______ _____ _____    ______ ____
ROOT
ATOM      1  C   UNL     1       5.578   6.820  17.144  0.00  0.00    +0.000 C 
ATOM      2  C   UNL     1       4.892   6.999  15.781  0.00  0.00    +0.000 C 
ENDROOT
BRANCH   1   3
ATOM      3  C   UNL     1       4.905   5.625  17.854  0.00  0.00    +0.000 C 
ATOM      4  O   UNL     1       5.113   5.381  19.046  0.00  0.00    +0.000 OA
ATOM      5  N   UNL     1       4.027   4.887  17.082  0.00  0.00    +0.000 N 
ATOM      6  C   UNL     1       3.348   3.746  17.456  0.00  0.00    +0.000 C 
ATOM      7  O   UNL     1       2.569   3.210  16.673  0.00  0.00    +0.000 OA
ATOM      8  N   UNL     1       3.645   3.280  18.703  0.00  0.00    +0.000 N 
ATOM      9  H   UNL     1       3.832   5.165  16.130  0.00  0.00    +0.000 HD
ATOM     10  H   UNL     1       4.118   3.951  19.306  0.00  0.00    +0.000 HD
BRANCH   8  11
ATOM     11  C   UNL     1       3.049   2.114  19.341  0.00  0.00    +0.000 C 
ATOM     12  C   UNL     1       3.323   2.073  20.850  0.00  0.00    +0.000 C 
ATOM     13  C   UNL     1       2.629   3.220  21.582  0.00  0.00    +0.000 C 
ATOM     14  C   UNL     1       1.121   3.171  21.360  0.00  0.00    +0.000 C 
ATOM     15  C   UNL     1       0.763   3.160  19.877  0.00  0.00    +0.000 C 
ATOM     16  C   UNL     1       1.529   2.089  19.091  0.00  0.00    +0.000 C 
ENDBRANCH   8  11
ENDBRANCH   1   3
BRANCH   1  17
ATOM     17  N   UNL     1       7.059   6.649  16.991  0.00  0.00    +0.000 NA
ATOM     18  C   UNL     1       7.433   5.250  16.707  0.00  0.00    +0.000 C 
BRANCH  17  19
ATOM     19  C   UNL     1       7.780   7.153  18.192  0.00  0.00    +0.000 C 
BRANCH  19  21
ATOM     20  N   UNL     1       9.037   9.060  19.060  0.00  0.00    +0.000 N 
ATOM     21  C   UNL     1       8.145   8.643  18.086  0.00  0.00    +0.000 C 
ATOM     22  O   UNL     1       7.662   9.333  17.191  0.00  0.00    +0.000 OA
ATOM     23  H   UNL     1       9.213   8.367  19.783  0.00  0.00    +0.000 HD
BRANCH  20  28
ATOM     24  C   UNL     1       9.589  12.286  20.786  0.00  0.00    +0.000 A 
ATOM     25  C   UNL     1      10.296  13.003  19.821  0.00  0.00    +0.000 A 
ATOM     26  C   UNL     1      10.605  12.412  18.594  0.00  0.00    +0.000 A 
ATOM     27  C   UNL     1      10.204  11.107  18.326  0.00  0.00    +0.000 A 
ATOM     28  C   UNL     1       9.491  10.376  19.283  0.00  0.00    +0.000 A 
ATOM     29  C   UNL     1       9.199  10.968  20.522  0.00  0.00    +0.000 A 
BRANCH  24  31
ATOM     30  C   UNL     1       8.738  12.282  23.009  0.00  0.00    +0.000 C 
ATOM     31  O   UNL     1       9.337  12.989  21.933  0.00  0.00    +0.000 OA
ENDBRANCH  24  31
ENDBRANCH  20  28
ENDBRANCH  19  21
ENDBRANCH  17  19
ENDBRANCH   1  17
TORSDOF 7
ENDMDL
MODEL 4
REMARK VINA RESULT:      -7.1      3.613      6.974
REMARK  Name = 
REMARK  10 active torsions:
REMARK  status: ('A' for Active; 'I' for Inactive)
REMARK    1  A    between atoms: C_1  and  O_2
REMARK    2  A    between atoms: O_2  and  C_3
REMARK    3  A    between atoms: C_7  and  N_8
REMARK    4  A    between atoms: C_9  and  C_11
REMARK    5  A    between atoms: C_11  and  N_12
REMARK    6  A    between atoms: N_12  and  C_13
REMARK    7  A    between atoms: N_12  and  C_14
REMARK    8  A    between atoms: C_14  and  C_15
REMARK    9  A    between atoms: C_14  and  C_16
REMARK   10  A    between atoms: N_21  and  C_22
REMARK                            x       y       z     vdW  Elec       q    Type
REMARK                         _______ _______ _______ _____ _____    ______ ____
ROOT
ATOM      1  C   UNL     1       6.457   5.547  16.207  0.00  0.00    +0.000 C 
ATOM      2  C   UNL     1       6.808   4.539  15.103  0.00  0.00    +0.000 C 
ENDROOT
BRANCH   1   3
ATOM      3  C   UNL     1       5.143   5.078  16.870  0.00  0.00    +0.000 C 
ATOM      4  O   UNL     1       4.310   5.883  17.295  0.00  0.00    +0.000 OA
ATOM      5  N   UNL     1       4.948   3.709  16.909  0.00  0.00    +0.000 N 
ATOM      6  C   UNL     1       3.895   3.037  17.494  0.00  0.00    +0.000 C 
ATOM      7  O   UNL     1       3.832   1.812  17.421  0.00  0.00    +0.000 OA
ATOM      8  N   UNL     1       3.001   3.826  18.156  0.00  0.00    +0.000 N 
ATOM      9  H   UNL     1       5.623   3.089  16.485  0.00  0.00    +0.000 HD
ATOM     10  H   UNL     1       3.058   4.817  17.928  0.00  0.00    +0.000 HD
BRANCH   8  11
ATOM     11  C   UNL     1       1.795   3.366  18.831  0.00  0.00    +0.000 C 
ATOM     12  C   UNL     1       2.072   2.190  19.777  0.00  0.00    +0.000 C 
ATOM     13  C   UNL     1       2.951   2.607  20.955  0.00  0.00    +0.000 C 
ATOM     14  C   UNL     1       2.294   3.729  21.752  0.00  0.00    +0.000 C 
ATOM     15  C   UNL     1       1.941   4.923  20.870  0.00  0.00    +0.000 C 
ATOM     16  C   UNL     1       1.151   4.522  19.619  0.00  0.00    +0.000 C 
ENDBRANCH   8  11
ENDBRANCH   1   3
BRANCH   1  17
ATOM     17  N   UNL     1       7.582   5.697  17.187  0.00  0.00    +0.000 NA
ATOM     18  C   UNL     1       7.994   4.405  17.767  0.00  0.00    +0.000 C 
BRANCH  17  19
ATOM     19  C   UNL     1       7.229   6.668  18.259  0.00  0.00    +0.000 C 
BRANCH  19  21
ATOM     20  N   UNL     1       8.647   8.548  18.908  0.00  0.00    +0.000 N 
ATOM     21  C   UNL     1       7.739   8.089  17.969  0.00  0.00    +0.000 C 
ATOM     22  O   UNL     1       7.343   8.693  16.975  0.00  0.00    +0.000 OA
ATOM     23  H   UNL     1       8.741   7.945  19.721  0.00  0.00    +0.000 HD
BRANCH  20  28
ATOM     24  C   UNL     1       9.856  11.735  20.348  0.00  0.00    +0.000 A 
ATOM     25  C   UNL     1      10.301  12.406  19.209  0.00  0.00    +0.000 A 
ATOM     26  C   UNL     1      10.214  11.796  17.956  0.00  0.00    +0.000 A 
ATOM     27  C   UNL     1       9.676  10.518  17.836  0.00  0.00    +0.000 A 
ATOM     28  C   UNL     1       9.222   9.833  18.969  0.00  0.00    +0.000 A 
ATOM     29  C   UNL     1       9.330  10.443  20.229  0.00  0.00    +0.000 A 
BRANCH  24  31
ATOM     30  C   UNL     1       9.858  13.864  21.412  0.00  0.00    +0.000 C 
ATOM     31  O   UNL     1       9.981  12.453  21.506  0.00  0.00    +0.000 OA
ENDBRANCH  24  31
ENDBRANCH  20  28
ENDBRANCH  19  21
ENDBRANCH  17  19
ENDBRANCH   1  17
TORSDOF 7
ENDMDL
MODEL 5
REMARK VINA RESULT:      -7.0      3.779      7.043
REMARK  Name = 
REMARK  10 active torsions:
REMARK  status: ('A' for Active; 'I' for Inactive)
REMARK    1  A    between atoms: C_1  and  O_2
REMARK    2  A    between atoms: O_2  and  C_3
REMARK    3  A    between atoms: C_7  and  N_8
REMARK    4  A    between atoms: C_9  and  C_11
REMARK    5  A    between atoms: C_11  and  N_12
REMARK    6  A    between atoms: N_12  and  C_13
REMARK    7  A    between atoms: N_12  and  C_14
REMARK    8  A    between atoms: C_14  and  C_15
REMARK    9  A    between atoms: C_14  and  C_16
REMARK   10  A    between atoms: N_21  and  C_22
REMARK                            x       y       z     vdW  Elec       q    Type
REMARK                         _______ _______ _______ _____ _____    ______ ____
ROOT
ATOM      1  C   UNL     1       5.733   6.761  16.829  0.00  0.00    +0.000 C 
ATOM      2  C   UNL     1       5.176   6.361  15.455  0.00  0.00    +0.000 C 
ENDROOT
BRANCH   1   3
ATOM      3  C   UNL     1       4.919   6.006  17.903  0.00  0.00    +0.000 C 
ATOM      4  O   UNL     1       5.168   4.833  18.196  0.00  0.00    +0.000 OA
ATOM      5  N   UNL     1       3.936   6.743  18.537  0.00  0.00    +0.000 N 
ATOM      6  C   UNL     1       3.039   6.291  19.483  0.00  0.00    +0.000 C 
ATOM      7  O   UNL     1       2.238   7.071  19.991  0.00  0.00    +0.000 OA
ATOM      8  N   UNL     1       3.106   4.956  19.752  0.00  0.00    +0.000 N 
ATOM      9  H   UNL     1       3.815   7.721  18.316  0.00  0.00    +0.000 HD
ATOM     10  H   UNL     1       3.960   4.501  19.435  0.00  0.00    +0.000 HD
BRANCH   8  11
ATOM     11  C   UNL     1       2.289   4.241  20.723  0.00  0.00    +0.000 C 
ATOM     12  C   UNL     1       0.818   4.156  20.297  0.00  0.00    +0.000 C 
ATOM     13  C   UNL     1       0.641   3.297  19.046  0.00  0.00    +0.000 C 
ATOM     14  C   UNL     1       1.162   1.883  19.281  0.00  0.00    +0.000 C 
ATOM     15  C   UNL     1       2.612   1.882  19.757  0.00  0.00    +0.000 C 
ATOM     16  C   UNL     1       2.846   2.822  20.946  0.00  0.00    +0.000 C 
ENDBRANCH   8  11
ENDBRANCH   1   3
BRANCH   1  17
ATOM     17  N   UNL     1       7.206   6.495  16.920  0.00  0.00    +0.000 NA
ATOM     18  C   UNL     1       7.523   5.060  16.791  0.00  0.00    +0.000 C 
BRANCH  17  19
ATOM     19  C   UNL     1       7.770   7.048  18.182  0.00  0.00    +0.000 C 
BRANCH  19  21
ATOM     20  N   UNL     1       8.977   8.988  19.046  0.00  0.00    +0.000 N 
ATOM     21  C   UNL     1       8.075   8.552  18.090  0.00  0.00    +0.000 C 
ATOM     22  O   UNL     1       7.541   9.236  17.220  0.00  0.00    +0.000 OA
ATOM     23  H   UNL     1       9.200   8.291  19.752  0.00  0.00    +0.000 HD
BRANCH  20  28
ATOM     24  C   UNL     1      10.242  12.393  18.340  0.00  0.00    +0.000 A 
ATOM     25  C   UNL     1      10.270  12.952  19.617  0.00  0.00    +0.000 A 
ATOM     26  C   UNL     1       9.856  12.203  20.721  0.00  0.00    +0.000 A 
ATOM     27  C   UNL     1       9.418  10.893  20.552  0.00  0.00    +0.000 A 
ATOM     28  C   UNL     1       9.387  10.317  19.277  0.00  0.00    +0.000 A 
ATOM     29  C   UNL     1       9.786  11.080  18.169  0.00  0.00    +0.000 A 
BRANCH  24  31
ATOM     30  C   UNL     1      11.040  14.551  17.730  0.00  0.00    +0.000 C 
ATOM     31  O   UNL     1      10.691  13.227  17.352  0.00  0.00    +0.000 OA
ENDBRANCH  24  31
ENDBRANCH  20  28
ENDBRANCH  19  21
ENDBRANCH  17  19
ENDBRANCH   1  17
TORSDOF 7
ENDMDL
MODEL 6
REMARK VINA RESULT:      -7.0      4.119      6.787
REMARK  Name = 
REMARK  10 active torsions:
REMARK  status: ('A' for Active; 'I' for Inactive)
REMARK    1  A    between atoms: C_1  and  O_2
REMARK    2  A    between atoms: O_2  and  C_3
REMARK    3  A    between atoms: C_7  and  N_8
REMARK    4  A    between atoms: C_9  and  C_11
REMARK    5  A    between atoms: C_11  and  N_12
REMARK    6  A    between atoms: N_12  and  C_13
REMARK    7  A    between atoms: N_12  and  C_14
REMARK    8  A    between atoms: C_14  and  C_15
REMARK    9  A    between atoms: C_14  and  C_16
REMARK   10  A    between atoms: N_21  and  C_22
REMARK                            x       y       z     vdW  Elec       q    Type
REMARK                         _______ _______ _______ _____ _____    ______ ____
ROOT
ATOM      1  C   UNL     1      -0.487  11.537  19.694  0.00  0.00    +0.000 C 
ATOM      2  C   UNL     1       0.397  12.396  18.780  0.00  0.00    +0.000 C 
ENDROOT
BRANCH   1   3
ATOM      3  C   UNL     1      -1.946  11.683  19.208  0.00  0.00    +0.000 C 
ATOM      4  O   UNL     1      -2.761  12.387  19.812  0.00  0.00    +0.000 OA
ATOM      5  N   UNL     1      -2.256  11.017  18.037  0.00  0.00    +0.000 N 
ATOM      6  C   UNL     1      -3.492  10.938  17.428  0.00  0.00    +0.000 C 
ATOM      7  O   UNL     1      -3.615  10.337  16.364  0.00  0.00    +0.000 OA
ATOM      8  N   UNL     1      -4.512  11.533  18.110  0.00  0.00    +0.000 N 
ATOM      9  H   UNL     1      -1.539  10.511  17.537  0.00  0.00    +0.000 HD
ATOM     10  H   UNL     1      -4.215  12.181  18.838  0.00  0.00    +0.000 HD
BRANCH   8  11
ATOM     11  C   UNL     1      -5.898  11.612  17.672  0.00  0.00    +0.000 C 
ATOM     12  C   UNL     1      -6.826  10.730  18.516  0.00  0.00    +0.000 C 
ATOM     13  C   UNL     1      -6.925  11.230  19.956  0.00  0.00    +0.000 C 
ATOM     14  C   UNL     1      -7.444  12.662  19.999  0.00  0.00    +0.000 C 
ATOM     15  C   UNL     1      -6.600  13.600  19.141  0.00  0.00    +0.000 C 
ATOM     16  C   UNL     1      -6.390  13.072  17.717  0.00  0.00    +0.000 C 
ENDBRANCH   8  11
ENDBRANCH   1   3
BRANCH   1  17
ATOM     17  N   UNL     1      -0.023  10.112  19.722  0.00  0.00    +0.000 NA
ATOM     18  C   UNL     1      -0.380   9.432  20.982  0.00  0.00    +0.000 C 
BRANCH  17  19
ATOM     19  C   UNL     1       1.442  10.024  19.472  0.00  0.00    +0.000 C 
BRANCH  19  21
ATOM     20  N   UNL     1       2.361   7.805  19.025  0.00  0.00    +0.000 N 
ATOM     21  C   UNL     1       1.808   8.936  18.448  0.00  0.00    +0.000 C 
ATOM     22  O   UNL     1       1.592   9.119  17.253  0.00  0.00    +0.000 OA
ATOM     23  H   UNL     1       2.574   7.906  20.013  0.00  0.00    +0.000 HD
BRANCH  20  28
ATOM     24  C   UNL     1       2.662   4.308  17.852  0.00  0.00    +0.000 A 
ATOM     25  C   UNL     1       3.834   4.365  17.098  0.00  0.00    +0.000 A 
ATOM     26  C   UNL     1       4.524   5.572  16.963  0.00  0.00    +0.000 A 
ATOM     27  C   UNL     1       4.050   6.722  17.587  0.00  0.00    +0.000 A 
ATOM     28  C   UNL     1       2.878   6.680  18.350  0.00  0.00    +0.000 A 
ATOM     29  C   UNL     1       2.177   5.469  18.466  0.00  0.00    +0.000 A 
BRANCH  24  31
ATOM     30  C   UNL     1       2.980   1.953  17.984  0.00  0.00    +0.000 C 
ATOM     31  O   UNL     1       2.097   3.063  17.918  0.00  0.00    +0.000 OA
ENDBRANCH  24  31
ENDBRANCH  20  28
ENDBRANCH  19  21
ENDBRANCH  17  19
ENDBRANCH   1  17
TORSDOF 7
ENDMDL
MODEL 7
REMARK VINA RESULT:      -7.0      2.411      3.797
REMARK  Name = 
REMARK  10 active torsions:
REMARK  status: ('A' for Active; 'I' for Inactive)
REMARK    1  A    between atoms: C_1  and  O_2
REMARK    2  A    between atoms: O_2  and  C_3
REMARK    3  A    between atoms: C_7  and  N_8
REMARK    4  A    between atoms: C_9  and  C_11
REMARK    5  A    between atoms: C_11  and  N_12
REMARK    6  A    between atoms: N_12  and  C_13
REMARK    7  A    between atoms: N_12  and  C_14
REMARK    8  A    between atoms: C_14  and  C_15
REMARK    9  A    between atoms: C_14  and  C_16
REMARK   10  A    between atoms: N_21  and  C_22
REMARK                            x       y       z     vdW  Elec       q    Type
REMARK                         _______ _______ _______ _____ _____    ______ ____
ROOT
ATOM      1  C   UNL     1       3.130   5.283  17.792  0.00  0.00    +0.000 C 
ATOM      2  C   UNL     1       2.136   4.119  17.915  0.00  0.00    +0.000 C 
ENDROOT
BRANCH   1   3
ATOM      3  C   UNL     1       2.514   6.503  18.511  0.00  0.00    +0.000 C 
ATOM      4  O   UNL     1       2.064   6.418  19.657  0.00  0.00    +0.000 OA
ATOM      5  N   UNL     1       2.547   7.693  17.807  0.00  0.00    +0.000 N 
ATOM      6  C   UNL     1       2.015   8.904  18.197  0.00  0.00    +0.000 C 
ATOM      7  O   UNL     1       2.150   9.893  17.481  0.00  0.00    +0.000 OA
ATOM      8  N   UNL     1       1.330   8.882  19.376  0.00  0.00    +0.000 N 
ATOM      9  H   UNL     1       2.990   7.732  16.900  0.00  0.00    +0.000 HD
ATOM     10  H   UNL     1       1.507   8.063  19.955  0.00  0.00    +0.000 HD
BRANCH   8  11
ATOM     11  C   UNL     1       0.699  10.028  20.016  0.00  0.00    +0.000 C 
ATOM     12  C   UNL     1      -0.734   9.723  20.473  0.00  0.00    +0.000 C 
ATOM     13  C   UNL     1      -0.761   8.684  21.592  0.00  0.00    +0.000 C 
ATOM     14  C   UNL     1       0.041   9.163  22.797  0.00  0.00    +0.000 C 
ATOM     15  C   UNL     1       1.472   9.535  22.417  0.00  0.00    +0.000 C 
ATOM     16  C   UNL     1       1.538  10.493  21.222  0.00  0.00    +0.000 C 
ENDBRANCH   8  11
ENDBRANCH   1   3
BRANCH   1  17
ATOM     17  N   UNL     1       4.479   4.908  18.329  0.00  0.00    +0.000 NA
ATOM     18  C   UNL     1       4.483   4.803  19.801  0.00  0.00    +0.000 C 
BRANCH  17  19
ATOM     19  C   UNL     1       5.521   5.864  17.866  0.00  0.00    +0.000 C 
BRANCH  19  21
ATOM     20  N   UNL     1       6.146   4.785  15.765  0.00  0.00    +0.000 N 
ATOM     21  C   UNL     1       5.625   5.936  16.333  0.00  0.00    +0.000 C 
ATOM     22  O   UNL     1       5.253   6.944  15.738  0.00  0.00    +0.000 OA
ATOM     23  H   UNL     1       6.511   4.119  16.440  0.00  0.00    +0.000 HD
BRANCH  20  28
ATOM     24  C   UNL     1       5.896   3.421  12.334  0.00  0.00    +0.000 A 
ATOM     25  C   UNL     1       6.973   4.045  11.705  0.00  0.00    +0.000 A 
ATOM     26  C   UNL     1       7.781   4.935  12.415  0.00  0.00    +0.000 A 
ATOM     27  C   UNL     1       7.520   5.199  13.757  0.00  0.00    +0.000 A 
ATOM     28  C   UNL     1       6.445   4.578  14.403  0.00  0.00    +0.000 A 
ATOM     29  C   UNL     1       5.624   3.698  13.679  0.00  0.00    +0.000 A 
BRANCH  24  31
ATOM     30  C   UNL     1       3.939   2.999  11.047  0.00  0.00    +0.000 C 
ATOM     31  O   UNL     1       5.200   2.560  11.530  0.00  0.00    +0.000 OA
ENDBRANCH  24  31
ENDBRANCH  20  28
ENDBRANCH  19  21
ENDBRANCH  17  19
ENDBRANCH   1  17
TORSDOF 7
ENDMDL
MODEL 8
REMARK VINA RESULT:      -6.9      3.654     10.043
REMARK  Name = 
REMARK  10 active torsions:
REMARK  status: ('A' for Active; 'I' for Inactive)
REMARK    1  A    between atoms: C_1  and  O_2
REMARK    2  A    between atoms: O_2  and  C_3
REMARK    3  A    between atoms: C_7  and  N_8
REMARK    4  A    between atoms: C_9  and  C_11
REMARK    5  A    between atoms: C_11  and  N_12
REMARK    6  A    between atoms: N_12  and  C_13
REMARK    7  A    between atoms: N_12  and  C_14
REMARK    8  A    between atoms: C_14  and  C_15
REMARK    9  A    between atoms: C_14  and  C_16
REMARK   10  A    between atoms: N_21  and  C_22
REMARK                            x       y       z     vdW  Elec       q    Type
REMARK                         _______ _______ _______ _____ _____    ______ ____
ROOT
ATOM      1  C   UNL     1       1.207   9.796  18.316  0.00  0.00    +0.000 C 
ATOM      2  C   UNL     1       2.157  10.976  18.061  0.00  0.00    +0.000 C 
ENDROOT
BRANCH   1   3
ATOM      3  C   UNL     1       2.074   8.537  18.539  0.00  0.00    +0.000 C 
ATOM      4  O   UNL     1       3.062   8.299  17.838  0.00  0.00    +0.000 OA
ATOM      5  N   UNL     1       1.697   7.730  19.598  0.00  0.00    +0.000 N 
ATOM      6  C   UNL     1       2.263   6.529  19.969  0.00  0.00    +0.000 C 
ATOM      7  O   UNL     1       1.846   5.933  20.959  0.00  0.00    +0.000 OA
ATOM      8  N   UNL     1       3.254   6.078  19.148  0.00  0.00    +0.000 N 
ATOM      9  H   UNL     1       0.925   8.001  20.190  0.00  0.00    +0.000 HD
ATOM     10  H   UNL     1       3.640   6.782  18.521  0.00  0.00    +0.000 HD
BRANCH   8  11
ATOM     11  C   UNL     1       4.024   4.856  19.334  0.00  0.00    +0.000 C 
ATOM     12  C   UNL     1       3.388   3.654  18.625  0.00  0.00    +0.000 C 
ATOM     13  C   UNL     1       3.416   3.814  17.106  0.00  0.00    +0.000 C 
ATOM     14  C   UNL     1       4.846   3.973  16.603  0.00  0.00    +0.000 C 
ATOM     15  C   UNL     1       5.570   5.123  17.298  0.00  0.00    +0.000 C 
ATOM     16  C   UNL     1       5.466   5.052  18.826  0.00  0.00    +0.000 C 
ENDBRANCH   8  11
ENDBRANCH   1   3
BRANCH   1  17
ATOM     17  N   UNL     1       0.282  10.077  19.461  0.00  0.00    +0.000 NA
ATOM     18  C   UNL     1      -1.114  10.260  19.020  0.00  0.00    +0.000 C 
BRANCH  17  19
ATOM     19  C   UNL     1       0.746  11.254  20.246  0.00  0.00    +0.000 C 
BRANCH  19  21
ATOM     20  N   UNL     1      -0.902  12.496  21.553  0.00  0.00    +0.000 N 
ATOM     21  C   UNL     1      -0.019  11.429  21.568  0.00  0.00    +0.000 C 
ATOM     22  O   UNL     1       0.177  10.652  22.500  0.00  0.00    +0.000 OA
ATOM     23  H   UNL     1      -0.819  13.089  20.732  0.00  0.00    +0.000 HD
BRANCH  20  28
ATOM     24  C   UNL     1      -3.676  12.699  23.993  0.00  0.00    +0.000 A 
ATOM     25  C   UNL     1      -3.323  13.834  24.725  0.00  0.00    +0.000 A 
ATOM     26  C   UNL     1      -2.152  14.530  24.418  0.00  0.00    +0.000 A 
ATOM     27  C   UNL     1      -1.335  14.100  23.378  0.00  0.00    +0.000 A 
ATOM     28  C   UNL     1      -1.676  12.966  22.633  0.00  0.00    +0.000 A 
ATOM     29  C   UNL     1      -2.844  12.258  22.957  0.00  0.00    +0.000 A 
BRANCH  24  31
ATOM     30  C   UNL     1      -6.055  12.786  24.012  0.00  0.00    +0.000 C 
ATOM     31  O   UNL     1      -4.854  12.124  24.385  0.00  0.00    +0.000 OA
ENDBRANCH  24  31
ENDBRANCH  20  28
ENDBRANCH  19  21
ENDBRANCH  17  19
ENDBRANCH   1  17
TORSDOF 7
ENDMDL
MODEL 9
REMARK VINA RESULT:      -6.8      3.705      6.269
REMARK  Name = 
REMARK  10 active torsions:
REMARK  status: ('A' for Active; 'I' for Inactive)
REMARK    1  A    between atoms: C_1  and  O_2
REMARK    2  A    between atoms: O_2  and  C_3
REMARK    3  A    between atoms: C_7  and  N_8
REMARK    4  A    between atoms: C_9  and  C_11
REMARK    5  A    between atoms: C_11  and  N_12
REMARK    6  A    between atoms: N_12  and  C_13
REMARK    7  A    between atoms: N_12  and  C_14
REMARK    8  A    between atoms: C_14  and  C_15
REMARK    9  A    between atoms: C_14  and  C_16
REMARK   10  A    between atoms: N_21  and  C_22
REMARK                            x       y       z     vdW  Elec       q    Type
REMARK                         _______ _______ _______ _____ _____    ______ ____
ROOT
ATOM      1  C   UNL     1      -0.390  11.126  18.515  0.00  0.00    +0.000 C 
ATOM      2  C   UNL     1      -1.229  10.021  17.857  0.00  0.00    +0.000 C 
ENDROOT
BRANCH   1   3
ATOM      3  C   UNL     1      -1.119  11.563  19.804  0.00  0.00    +0.000 C 
ATOM      4  O   UNL     1      -2.147  12.246  19.765  0.00  0.00    +0.000 OA
ATOM      5  N   UNL     1      -0.573  11.102  20.987  0.00  0.00    +0.000 N 
ATOM      6  C   UNL     1      -0.995  11.395  22.267  0.00  0.00    +0.000 C 
ATOM      7  O   UNL     1      -0.433  10.882  23.232  0.00  0.00    +0.000 OA
ATOM      8  N   UNL     1      -2.019  12.292  22.347  0.00  0.00    +0.000 N 
ATOM      9  H   UNL     1       0.228  10.485  20.969  0.00  0.00    +0.000 HD
ATOM     10  H   UNL     1      -2.523  12.440  21.475  0.00  0.00    +0.000 HD
BRANCH   8  11
ATOM     11  C   UNL     1      -2.660  12.745  23.574  0.00  0.00    +0.000 C 
ATOM     12  C   UNL     1      -2.184  14.141  23.997  0.00  0.00    +0.000 C 
ATOM     13  C   UNL     1      -2.621  15.213  22.999  0.00  0.00    +0.000 C 
ATOM     14  C   UNL     1      -4.139  15.238  22.861  0.00  0.00    +0.000 C 
ATOM     15  C   UNL     1      -4.700  13.868  22.488  0.00  0.00    +0.000 C 
ATOM     16  C   UNL     1      -4.191  12.750  23.405  0.00  0.00    +0.000 C 
ENDBRANCH   8  11
ENDBRANCH   1   3
BRANCH   1  17
ATOM     17  N   UNL     1       1.015  10.667  18.767  0.00  0.00    +0.000 NA
ATOM     18  C   UNL     1       1.991  11.768  18.652  0.00  0.00    +0.000 C 
BRANCH  17  19
ATOM     19  C   UNL     1       1.380   9.542  17.863  0.00  0.00    +0.000 C 
BRANCH  19  21
ATOM     20  N   UNL     1       2.530   7.388  17.798  0.00  0.00    +0.000 N 
ATOM     21  C   UNL     1       1.918   8.318  18.622  0.00  0.00    +0.000 C 
ATOM     22  O   UNL     1       1.793   8.246  19.842  0.00  0.00    +0.000 OA
ATOM     23  H   UNL     1       2.414   7.576  16.805  0.00  0.00    +0.000 HD
BRANCH  20  28
ATOM     24  C   UNL     1       4.994   4.791  18.733  0.00  0.00    +0.000 A 
ATOM     25  C   UNL     1       4.176   3.670  18.883  0.00  0.00    +0.000 A 
ATOM     26  C   UNL     1       2.798   3.775  18.687  0.00  0.00    +0.000 A 
ATOM     27  C   UNL     1       2.234   4.998  18.334  0.00  0.00    +0.000 A 
ATOM     28  C   UNL     1       3.040   6.130  18.177  0.00  0.00    +0.000 A 
ATOM     29  C   UNL     1       4.423   6.023  18.394  0.00  0.00    +0.000 A 
BRANCH  24  31
ATOM     30  C   UNL     1       7.197   4.745  17.832  0.00  0.00    +0.000 C 
ATOM     31  O   UNL     1       6.325   4.545  18.935  0.00  0.00    +0.000 OA
ENDBRANCH  24  31
ENDBRANCH  20  28
ENDBRANCH  19  21
ENDBRANCH  17  19
ENDBRANCH   1  17
TORSDOF 7
ENDMDL
