MODEL 1
REMARK VINA RESULT:      -8.2      0.000      0.000
REMARK  Name = 
REMARK  11 active torsions:
REMARK  status: ('A' for Active; 'I' for Inactive)
REMARK    1  A    between atoms: C_1  and  O_2
REMARK    2  A    between atoms: O_2  and  C_3
REMARK    3  A    between atoms: C_3  and  C_4
REMARK    4  A    between atoms: C_4  and  O_5
REMARK    5  A    between atoms: O_5  and  C_6
REMARK    6  A    between atoms: C_8  and  C_9
REMARK    7  A    between atoms: N_18  and  C_19
REMARK    8  A    between atoms: C_22  and  N_23
REMARK    9  A    between atoms: C_24  and  C_26
REMARK   10  A    between atoms: C_29  and  O_30
REMARK   11  A    between atoms: O_30  and  C_31
REMARK                            x       y       z     vdW  Elec       q    Type
REMARK                         _______ _______ _______ _____ _____    ______ ____
ROOT
ATOM      1  C   UNL     1       5.073   6.267  16.363  0.00  0.00    +0.000 A 
ATOM      2  N   UNL     1       4.763   5.153  17.078  0.00  0.00    +0.000 NA
ATOM      3  C   UNL     1       3.765   5.555  17.853  0.00  0.00    +0.000 A 
ATOM      4  N   UNL     1       3.576   6.927  17.649  0.00  0.00    +0.000 N 
ATOM      5  N   UNL     1       4.358   7.353  16.629  0.00  0.00    +0.000 NA
ENDROOT
BRANCH   3   6
ATOM      6  C   UNL     1       2.924   4.655  18.665  0.00  0.00    +0.000 A 
ATOM      7  C   UNL     1       1.791   4.033  18.092  0.00  0.00    +0.000 A 
ATOM      8  C   UNL     1       0.982   3.161  18.840  0.00  0.00    +0.000 A 
ATOM      9  C   UNL     1       1.332   2.921  20.151  0.00  0.00    +0.000 A 
ATOM     10  C   UNL     1       2.417   3.533  20.724  0.00  0.00    +0.000 A 
ATOM     11  C   UNL     1       3.202   4.423  20.025  0.00  0.00    +0.000 A 
ATOM     12  O   UNL     1       2.609   3.162  22.017  0.00  0.00    +0.000 OA
ATOM     13  C   UNL     1       1.491   2.274  22.210  0.00  0.00    +0.000 C 
ATOM     14  O   UNL     1       0.689   2.098  21.021  0.00  0.00    +0.000 OA
ENDBRANCH   3   6
BRANCH   4  15
ATOM     15  C   UNL     1       2.683   7.825  18.291  0.00  0.00    +0.000 A 
ATOM     16  C   UNL     1       2.308   7.627  19.619  0.00  0.00    +0.000 A 
ATOM     17  C   UNL     1       1.310   8.419  20.186  0.00  0.00    +0.000 A 
ATOM     18  C   UNL     1       0.699   9.442  19.458  0.00  0.00    +0.000 A 
ATOM     19  C   UNL     1       1.100   9.658  18.134  0.00  0.00    +0.000 A 
ATOM     20  C   UNL     1       2.112   8.875  17.559  0.00  0.00    +0.000 A 
BRANCH  18  21
ATOM     21  N   UNL     1      -0.321  10.260  19.999  0.00  0.00    +0.000 N 
ATOM     22  C   UNL     1      -0.126  11.230  20.972  0.00  0.00    +0.000 C 
ATOM     23  O   UNL     1       0.957  11.563  21.444  0.00  0.00    +0.000 OA
ATOM     24  H   UNL     1      -1.245  10.134  19.614  0.00  0.00    +0.000 HD
BRANCH  22  25
ATOM     25  C   UNL     1      -1.328  11.938  21.489  0.00  0.00    +0.000 A 
ATOM     26  C   UNL     1      -1.530  11.912  22.877  0.00  0.00    +0.000 A 
ATOM     27  C   UNL     1      -2.621  12.563  23.448  0.00  0.00    +0.000 A 
ATOM     28  C   UNL     1      -3.515  13.271  22.648  0.00  0.00    +0.000 A 
ATOM     29  C   UNL     1      -3.317  13.312  21.265  0.00  0.00    +0.000 A 
ATOM     30  C   UNL     1      -2.228  12.648  20.684  0.00  0.00    +0.000 A 
BRANCH  28  31
ATOM     31  O   UNL     1      -4.554  13.845  23.321  0.00  0.00    +0.000 OA
ATOM     32  C   UNL     1      -4.266  15.074  23.977  0.00  0.00    +0.000 C 
ENDBRANCH  28  31
ENDBRANCH  22  25
ENDBRANCH  18  21
ENDBRANCH   4  15
BRANCH   1  33
ATOM     33  O   UNL     1       5.979   6.388  15.376  0.00  0.00    +0.000 OA
BRANCH  33  34
ATOM     34  C   UNL     1       6.937   5.337  15.438  0.00  0.00    +0.000 C 
BRANCH  34  35
ATOM     35  C   UNL     1       7.103   4.727  14.051  0.00  0.00    +0.000 C 
BRANCH  35  37
ATOM     36  C   UNL     1       5.979   3.415  12.445  0.00  0.00    +0.000 C 
ATOM     37  O   UNL     1       5.947   3.940  13.766  0.00  0.00    +0.000 OA
ENDBRANCH  35  37
ENDBRANCH  34  35
ENDBRANCH  33  34
ENDBRANCH   1  33
TORSDOF 9
ENDMDL
MODEL 2
REMARK VINA RESULT:      -7.9      0.698      1.066
REMARK  Name = 
REMARK  11 active torsions:
REMARK  status: ('A' for Active; 'I' for Inactive)
REMARK    1  A    between atoms: C_1  and  O_2
REMARK    2  A    between atoms: O_2  and  C_3
REMARK    3  A    between atoms: C_3  and  C_4
REMARK    4  A    between atoms: C_4  and  O_5
REMARK    5  A    between atoms: O_5  and  C_6
REMARK    6  A    between atoms: C_8  and  C_9
REMARK    7  A    between atoms: N_18  and  C_19
REMARK    8  A    between atoms: C_22  and  N_23
REMARK    9  A    between atoms: C_24  and  C_26
REMARK   10  A    between atoms: C_29  and  O_30
REMARK   11  A    between atoms: O_30  and  C_31
REMARK                            x       y       z     vdW  Elec       q    Type
REMARK                         _______ _______ _______ _____ _____    ______ ____
ROOT
ATOM      1  C   UNL     1       5.247   6.323  16.596  0.00  0.00    +0.000 A 
ATOM      2  N   UNL     1       4.928   5.215  17.318  0.00  0.00    +0.000 NA
ATOM      3  C   UNL     1       3.850   5.589  17.993  0.00  0.00    +0.000 A 
ATOM      4  N   UNL     1       3.617   6.945  17.731  0.00  0.00    +0.000 N 
ATOM      5  N   UNL     1       4.463   7.380  16.768  0.00  0.00    +0.000 NA
ENDROOT
BRANCH   3   6
ATOM      6  C   UNL     1       2.984   4.673  18.759  0.00  0.00    +0.000 A 
ATOM      7  C   UNL     1       1.908   4.012  18.121  0.00  0.00    +0.000 A 
ATOM      8  C   UNL     1       1.078   3.124  18.824  0.00  0.00    +0.000 A 
ATOM      9  C   UNL     1       1.349   2.906  20.158  0.00  0.00    +0.000 A 
ATOM     10  C   UNL     1       2.377   3.555  20.793  0.00  0.00    +0.000 A 
ATOM     11  C   UNL     1       3.180   4.461  20.136  0.00  0.00    +0.000 A 
ATOM     12  O   UNL     1       2.496   3.201  22.099  0.00  0.00    +0.000 OA
ATOM     13  C   UNL     1       1.394   2.283  22.229  0.00  0.00    +0.000 C 
ATOM     14  O   UNL     1       0.675   2.073  20.994  0.00  0.00    +0.000 OA
ENDBRANCH   3   6
BRANCH   4  15
ATOM     15  C   UNL     1       2.633   7.816  18.267  0.00  0.00    +0.000 A 
ATOM     16  C   UNL     1       2.180   8.913  17.534  0.00  0.00    +0.000 A 
ATOM     17  C   UNL     1       1.337   9.849  18.131  0.00  0.00    +0.000 A 
ATOM     18  C   UNL     1       0.900   9.692  19.448  0.00  0.00    +0.000 A 
ATOM     19  C   UNL     1       1.332   8.573  20.171  0.00  0.00    +0.000 A 
ATOM     20  C   UNL     1       2.170   7.619  19.575  0.00  0.00    +0.000 A 
BRANCH  18  21
ATOM     21  N   UNL     1       0.049  10.624  20.088  0.00  0.00    +0.000 N 
ATOM     22  C   UNL     1       0.475  11.621  20.954  0.00  0.00    +0.000 C 
ATOM     23  O   UNL     1       1.644  11.881  21.227  0.00  0.00    +0.000 OA
ATOM     24  H   UNL     1      -0.932  10.560  19.863  0.00  0.00    +0.000 HD
BRANCH  22  25
ATOM     25  C   UNL     1      -0.567  12.459  21.606  0.00  0.00    +0.000 A 
ATOM     26  C   UNL     1      -1.421  11.814  22.513  0.00  0.00    +0.000 A 
ATOM     27  C   UNL     1      -2.415  12.525  23.182  0.00  0.00    +0.000 A 
ATOM     28  C   UNL     1      -2.559  13.895  22.975  0.00  0.00    +0.000 A 
ATOM     29  C   UNL     1      -1.706  14.549  22.081  0.00  0.00    +0.000 A 
ATOM     30  C   UNL     1      -0.713  13.836  21.396  0.00  0.00    +0.000 A 
BRANCH  28  31
ATOM     31  O   UNL     1      -3.582  14.475  23.668  0.00  0.00    +0.000 OA
ATOM     32  C   UNL     1      -4.568  13.586  24.178  0.00  0.00    +0.000 C 
ENDBRANCH  28  31
ENDBRANCH  22  25
ENDBRANCH  18  21
ENDBRANCH   4  15
BRANCH   1  33
ATOM     33  O   UNL     1       6.228   6.460  15.687  0.00  0.00    +0.000 OA
BRANCH  33  34
ATOM     34  C   UNL     1       6.929   5.235  15.510  0.00  0.00    +0.000 C 
BRANCH  34  35
ATOM     35  C   UNL     1       7.023   4.920  14.023  0.00  0.00    +0.000 C 
BRANCH  35  37
ATOM     36  C   UNL     1       6.268   3.400  12.383  0.00  0.00    +0.000 C 
ATOM     37  O   UNL     1       6.209   3.779  13.752  0.00  0.00    +0.000 OA
ENDBRANCH  35  37
ENDBRANCH  34  35
ENDBRANCH  33  34
ENDBRANCH   1  33
TORSDOF 9
ENDMDL
MODEL 3
REMARK VINA RESULT:      -7.7      1.580      2.555
REMARK  Name = 
REMARK  11 active torsions:
REMARK  status: ('A' for Active; 'I' for Inactive)
REMARK    1  A    between atoms: C_1  and  O_2
REMARK    2  A    between atoms: O_2  and  C_3
REMARK    3  A    between atoms: C_3  and  C_4
REMARK    4  A    between atoms: C_4  and  O_5
REMARK    5  A    between atoms: O_5  and  C_6
REMARK    6  A    between atoms: C_8  and  C_9
REMARK    7  A    between atoms: N_18  and  C_19
REMARK    8  A    between atoms: C_22  and  N_23
REMARK    9  A    between atoms: C_24  and  C_26
REMARK   10  A    between atoms: C_29  and  O_30
REMARK   11  A    between atoms: O_30  and  C_31
REMARK                            x       y       z     vdW  Elec       q    Type
REMARK                         _______ _______ _______ _____ _____    ______ ____
ROOT
ATOM      1  C   UNL     1       5.262   6.768  17.073  0.00  0.00    +0.000 A 
ATOM      2  N   UNL     1       4.961   5.614  17.726  0.00  0.00    +0.000 NA
ATOM      3  C   UNL     1       3.802   5.884  18.309  0.00  0.00    +0.000 A 
ATOM      4  N   UNL     1       3.493   7.230  18.071  0.00  0.00    +0.000 N 
ATOM      5  N   UNL     1       4.389   7.760  17.205  0.00  0.00    +0.000 NA
ENDROOT
BRANCH   3   6
ATOM      6  C   UNL     1       2.940   4.880  18.961  0.00  0.00    +0.000 A 
ATOM      7  C   UNL     1       1.961   4.188  18.209  0.00  0.00    +0.000 A 
ATOM      8  C   UNL     1       1.138   3.218  18.803  0.00  0.00    +0.000 A 
ATOM      9  C   UNL     1       1.318   2.950  20.143  0.00  0.00    +0.000 A 
ATOM     10  C   UNL     1       2.250   3.627  20.887  0.00  0.00    +0.000 A 
ATOM     11  C   UNL     1       3.042   4.612  20.338  0.00  0.00    +0.000 A 
ATOM     12  O   UNL     1       2.290   3.216  22.181  0.00  0.00    +0.000 OA
ATOM     13  C   UNL     1       1.243   2.228  22.181  0.00  0.00    +0.000 C 
ATOM     14  O   UNL     1       0.636   2.037  20.884  0.00  0.00    +0.000 OA
ENDBRANCH   3   6
BRANCH   4  15
ATOM     15  C   UNL     1       2.403   8.008  18.539  0.00  0.00    +0.000 A 
ATOM     16  C   UNL     1       1.787   8.942  17.707  0.00  0.00    +0.000 A 
ATOM     17  C   UNL     1       0.828   9.811  18.226  0.00  0.00    +0.000 A 
ATOM     18  C   UNL     1       0.438   9.740  19.565  0.00  0.00    +0.000 A 
ATOM     19  C   UNL     1       1.037   8.780  20.390  0.00  0.00    +0.000 A 
ATOM     20  C   UNL     1       1.994   7.894  19.874  0.00  0.00    +0.000 A 
BRANCH  18  21
ATOM     21  N   UNL     1      -0.527  10.609  20.127  0.00  0.00    +0.000 N 
ATOM     22  C   UNL     1      -0.263  11.567  21.095  0.00  0.00    +0.000 C 
ATOM     23  O   UNL     1       0.846  11.846  21.543  0.00  0.00    +0.000 OA
ATOM     24  H   UNL     1      -1.465  10.529  19.763  0.00  0.00    +0.000 HD
BRANCH  22  25
ATOM     25  C   UNL     1      -1.416  12.335  21.637  0.00  0.00    +0.000 A 
ATOM     26  C   UNL     1      -2.499  12.546  20.772  0.00  0.00    +0.000 A 
ATOM     27  C   UNL     1      -3.628  13.240  21.202  0.00  0.00    +0.000 A 
ATOM     28  C   UNL     1      -3.705  13.716  22.509  0.00  0.00    +0.000 A 
ATOM     29  C   UNL     1      -2.634  13.502  23.383  0.00  0.00    +0.000 A 
ATOM     30  C   UNL     1      -1.492  12.815  22.951  0.00  0.00    +0.000 A 
BRANCH  28  31
ATOM     31  O   UNL     1      -4.849  14.399  22.804  0.00  0.00    +0.000 OA
ATOM     32  C   UNL     1      -5.825  13.683  23.549  0.00  0.00    +0.000 C 
ENDBRANCH  28  31
ENDBRANCH  22  25
ENDBRANCH  18  21
ENDBRANCH   4  15
BRANCH   1  33
ATOM     33  O   UNL     1       6.308   7.010  16.264  0.00  0.00    +0.000 OA
BRANCH  33  34
ATOM     34  C   UNL     1       7.514   7.114  17.014  0.00  0.00    +0.000 C 
BRANCH  34  35
ATOM     35  C   UNL     1       7.637   8.525  17.573  0.00  0.00    +0.000 C 
BRANCH  35  37
ATOM     36  C   UNL     1       9.069   9.845  18.905  0.00  0.00    +0.000 C 
ATOM     37  O   UNL     1       8.658   8.526  18.570  0.00  0.00    +0.000 OA
ENDBRANCH  35  37
ENDBRANCH  34  35
ENDBRANCH  33  34
ENDBRANCH   1  33
TORSDOF 9
ENDMDL
MODEL 4
REMARK VINA RESULT:      -7.6      3.263     10.995
REMARK  Name = 
REMARK  11 active torsions:
REMARK  status: ('A' for Active; 'I' for Inactive)
REMARK    1  A    between atoms: C_1  and  O_2
REMARK    2  A    between atoms: O_2  and  C_3
REMARK    3  A    between atoms: C_3  and  C_4
REMARK    4  A    between atoms: C_4  and  O_5
REMARK    5  A    between atoms: O_5  and  C_6
REMARK    6  A    between atoms: C_8  and  C_9
REMARK    7  A    between atoms: N_18  and  C_19
REMARK    8  A    between atoms: C_22  and  N_23
REMARK    9  A    between atoms: C_24  and  C_26
REMARK   10  A    between atoms: C_29  and  O_30
REMARK   11  A    between atoms: O_30  and  C_31
REMARK                            x       y       z     vdW  Elec       q    Type
REMARK                         _______ _______ _______ _____ _____    ______ ____
ROOT
ATOM      1  C   UNL     1      -1.625  14.823  22.768  0.00  0.00    +0.000 A 
ATOM      2  N   UNL     1      -2.395  14.711  21.653  0.00  0.00    +0.000 NA
ATOM      3  C   UNL     1      -2.082  13.510  21.185  0.00  0.00    +0.000 A 
ATOM      4  N   UNL     1      -1.057  12.982  21.980  0.00  0.00    +0.000 N 
ATOM      5  N   UNL     1      -0.836  13.792  23.043  0.00  0.00    +0.000 NA
ENDROOT
BRANCH   3   6
ATOM      6  C   UNL     1      -2.811  12.819  20.104  0.00  0.00    +0.000 A 
ATOM      7  C   UNL     1      -4.216  12.679  20.171  0.00  0.00    +0.000 A 
ATOM      8  C   UNL     1      -4.934  12.038  19.148  0.00  0.00    +0.000 A 
ATOM      9  C   UNL     1      -4.228  11.555  18.068  0.00  0.00    +0.000 A 
ATOM     10  C   UNL     1      -2.863  11.667  18.000  0.00  0.00    +0.000 A 
ATOM     11  C   UNL     1      -2.131  12.255  19.008  0.00  0.00    +0.000 A 
ATOM     12  O   UNL     1      -2.347  11.146  16.856  0.00  0.00    +0.000 OA
ATOM     13  C   UNL     1      -3.544  10.651  16.225  0.00  0.00    +0.000 C 
ATOM     14  O   UNL     1      -4.745  10.928  16.979  0.00  0.00    +0.000 OA
ENDBRANCH   3   6
BRANCH   4  15
ATOM     15  C   UNL     1      -0.339  11.765  21.845  0.00  0.00    +0.000 A 
ATOM     16  C   UNL     1       0.757  11.679  20.987  0.00  0.00    +0.000 A 
ATOM     17  C   UNL     1       1.351  10.442  20.741  0.00  0.00    +0.000 A 
ATOM     18  C   UNL     1       0.895   9.282  21.370  0.00  0.00    +0.000 A 
ATOM     19  C   UNL     1      -0.186   9.378  22.255  0.00  0.00    +0.000 A 
ATOM     20  C   UNL     1      -0.783  10.620  22.519  0.00  0.00    +0.000 A 
BRANCH  18  21
ATOM     21  N   UNL     1       1.470   8.010  21.140  0.00  0.00    +0.000 N 
ATOM     22  C   UNL     1       1.977   7.578  19.923  0.00  0.00    +0.000 C 
ATOM     23  O   UNL     1       2.064   8.256  18.902  0.00  0.00    +0.000 OA
ATOM     24  H   UNL     1       1.534   7.398  21.940  0.00  0.00    +0.000 HD
BRANCH  22  25
ATOM     25  C   UNL     1       2.466   6.175  19.839  0.00  0.00    +0.000 A 
ATOM     26  C   UNL     1       1.778   5.219  20.600  0.00  0.00    +0.000 A 
ATOM     27  C   UNL     1       2.158   3.879  20.568  0.00  0.00    +0.000 A 
ATOM     28  C   UNL     1       3.215   3.467  19.759  0.00  0.00    +0.000 A 
ATOM     29  C   UNL     1       3.900   4.411  18.989  0.00  0.00    +0.000 A 
ATOM     30  C   UNL     1       3.530   5.762  19.027  0.00  0.00    +0.000 A 
BRANCH  28  31
ATOM     31  O   UNL     1       3.507   2.136  19.832  0.00  0.00    +0.000 OA
ATOM     32  C   UNL     1       3.559   1.443  18.591  0.00  0.00    +0.000 C 
ENDBRANCH  28  31
ENDBRANCH  22  25
ENDBRANCH  18  21
ENDBRANCH   4  15
BRANCH   1  33
ATOM     33  O   UNL     1      -1.608  15.830  23.660  0.00  0.00    +0.000 OA
BRANCH  33  34
ATOM     34  C   UNL     1      -1.900  15.351  24.968  0.00  0.00    +0.000 C 
BRANCH  34  35
ATOM     35  C   UNL     1      -3.399  15.111  25.092  0.00  0.00    +0.000 C 
BRANCH  35  37
ATOM     36  C   UNL     1      -4.348  13.112  24.272  0.00  0.00    +0.000 C 
ATOM     37  O   UNL     1      -3.613  13.719  25.327  0.00  0.00    +0.000 OA
ENDBRANCH  35  37
ENDBRANCH  34  35
ENDBRANCH  33  34
ENDBRANCH   1  33
TORSDOF 9
ENDMDL
MODEL 5
REMARK VINA RESULT:      -7.6      1.034      1.820
REMARK  Name = 
REMARK  11 active torsions:
REMARK  status: ('A' for Active; 'I' for Inactive)
REMARK    1  A    between atoms: C_1  and  O_2
REMARK    2  A    between atoms: O_2  and  C_3
REMARK    3  A    between atoms: C_3  and  C_4
REMARK    4  A    between atoms: C_4  and  O_5
REMARK    5  A    between atoms: O_5  and  C_6
REMARK    6  A    between atoms: C_8  and  C_9
REMARK    7  A    between atoms: N_18  and  C_19
REMARK    8  A    between atoms: C_22  and  N_23
REMARK    9  A    between atoms: C_24  and  C_26
REMARK   10  A    between atoms: C_29  and  O_30
REMARK   11  A    between atoms: O_30  and  C_31
REMARK                            x       y       z     vdW  Elec       q    Type
REMARK                         _______ _______ _______ _____ _____    ______ ____
ROOT
ATOM      1  C   UNL     1       4.906   6.125  16.360  0.00  0.00    +0.000 A 
ATOM      2  N   UNL     1       4.589   5.036  17.110  0.00  0.00    +0.000 NA
ATOM      3  C   UNL     1       3.637   5.486  17.916  0.00  0.00    +0.000 A 
ATOM      4  N   UNL     1       3.485   6.860  17.692  0.00  0.00    +0.000 N 
ATOM      5  N   UNL     1       4.238   7.239  16.632  0.00  0.00    +0.000 NA
ENDROOT
BRANCH   3   6
ATOM      6  C   UNL     1       2.801   4.631  18.779  0.00  0.00    +0.000 A 
ATOM      7  C   UNL     1       1.634   4.022  18.261  0.00  0.00    +0.000 A 
ATOM      8  C   UNL     1       0.829   3.192  19.058  0.00  0.00    +0.000 A 
ATOM      9  C   UNL     1       1.215   2.980  20.364  0.00  0.00    +0.000 A 
ATOM     10  C   UNL     1       2.333   3.580  20.885  0.00  0.00    +0.000 A 
ATOM     11  C   UNL     1       3.117   4.430  20.136  0.00  0.00    +0.000 A 
ATOM     12  O   UNL     1       2.558   3.239  22.181  0.00  0.00    +0.000 OA
ATOM     13  C   UNL     1       1.425   2.386  22.434  0.00  0.00    +0.000 C 
ATOM     14  O   UNL     1       0.581   2.198  21.277  0.00  0.00    +0.000 OA
ENDBRANCH   3   6
BRANCH   4  15
ATOM     15  C   UNL     1       2.649   7.799  18.349  0.00  0.00    +0.000 A 
ATOM     16  C   UNL     1       2.217   7.575  19.656  0.00  0.00    +0.000 A 
ATOM     17  C   UNL     1       1.270   8.420  20.232  0.00  0.00    +0.000 A 
ATOM     18  C   UNL     1       0.766   9.521  19.536  0.00  0.00    +0.000 A 
ATOM     19  C   UNL     1       1.225   9.762  18.234  0.00  0.00    +0.000 A 
ATOM     20  C   UNL     1       2.187   8.924  17.652  0.00  0.00    +0.000 A 
BRANCH  18  21
ATOM     21  N   UNL     1      -0.199  10.397  20.086  0.00  0.00    +0.000 N 
ATOM     22  C   UNL     1      -0.249  10.786  21.417  0.00  0.00    +0.000 C 
ATOM     23  O   UNL     1       0.571  10.489  22.281  0.00  0.00    +0.000 OA
ATOM     24  H   UNL     1      -0.875  10.777  19.441  0.00  0.00    +0.000 HD
BRANCH  22  25
ATOM     25  C   UNL     1      -1.388  11.645  21.841  0.00  0.00    +0.000 A 
ATOM     26  C   UNL     1      -2.065  12.343  20.830  0.00  0.00    +0.000 A 
ATOM     27  C   UNL     1      -3.154  13.157  21.136  0.00  0.00    +0.000 A 
ATOM     28  C   UNL     1      -3.599  13.271  22.451  0.00  0.00    +0.000 A 
ATOM     29  C   UNL     1      -2.937  12.571  23.465  0.00  0.00    +0.000 A 
ATOM     30  C   UNL     1      -1.834  11.761  23.164  0.00  0.00    +0.000 A 
BRANCH  28  31
ATOM     31  O   UNL     1      -4.657  14.115  22.627  0.00  0.00    +0.000 OA
ATOM     32  C   UNL     1      -5.632  13.699  23.575  0.00  0.00    +0.000 C 
ENDBRANCH  28  31
ENDBRANCH  22  25
ENDBRANCH  18  21
ENDBRANCH   4  15
BRANCH   1  33
ATOM     33  O   UNL     1       5.775   6.197  15.336  0.00  0.00    +0.000 OA
BRANCH  33  34
ATOM     34  C   UNL     1       7.025   5.619  15.693  0.00  0.00    +0.000 C 
BRANCH  34  35
ATOM     35  C   UNL     1       7.551   6.296  16.952  0.00  0.00    +0.000 C 
BRANCH  35  37
ATOM     36  C   UNL     1       7.625   5.708  19.236  0.00  0.00    +0.000 C 
ATOM     37  O   UNL     1       7.879   5.284  17.903  0.00  0.00    +0.000 OA
ENDBRANCH  35  37
ENDBRANCH  34  35
ENDBRANCH  33  34
ENDBRANCH   1  33
TORSDOF 9
ENDMDL
MODEL 6
REMARK VINA RESULT:      -7.5      2.912     11.283
REMARK  Name = 
REMARK  11 active torsions:
REMARK  status: ('A' for Active; 'I' for Inactive)
REMARK    1  A    between atoms: C_1  and  O_2
REMARK    2  A    between atoms: O_2  and  C_3
REMARK    3  A    between atoms: C_3  and  C_4
REMARK    4  A    between atoms: C_4  and  O_5
REMARK    5  A    between atoms: O_5  and  C_6
REMARK    6  A    between atoms: C_8  and  C_9
REMARK    7  A    between atoms: N_18  and  C_19
REMARK    8  A    between atoms: C_22  and  N_23
REMARK    9  A    between atoms: C_24  and  C_26
REMARK   10  A    between atoms: C_29  and  O_30
REMARK   11  A    between atoms: O_30  and  C_31
REMARK                            x       y       z     vdW  Elec       q    Type
REMARK                         _______ _______ _______ _____ _____    ______ ____
ROOT
ATOM      1  C   UNL     1      -0.589  13.871  22.330  0.00  0.00    +0.000 A 
ATOM      2  N   UNL     1      -1.750  13.984  21.632  0.00  0.00    +0.000 NA
ATOM      3  C   UNL     1      -1.685  12.984  20.764  0.00  0.00    +0.000 A 
ATOM      4  N   UNL     1      -0.437  12.363  20.903  0.00  0.00    +0.000 N 
ATOM      5  N   UNL     1       0.219  12.882  21.968  0.00  0.00    +0.000 NA
ENDROOT
BRANCH   3   6
ATOM      6  C   UNL     1      -2.808  12.536  19.919  0.00  0.00    +0.000 A 
ATOM      7  C   UNL     1      -2.557  11.878  18.693  0.00  0.00    +0.000 A 
ATOM      8  C   UNL     1      -3.609  11.430  17.877  0.00  0.00    +0.000 A 
ATOM      9  C   UNL     1      -4.899  11.642  18.313  0.00  0.00    +0.000 A 
ATOM     10  C   UNL     1      -5.156  12.296  19.491  0.00  0.00    +0.000 A 
ATOM     11  C   UNL     1      -4.143  12.781  20.288  0.00  0.00    +0.000 A 
ATOM     12  O   UNL     1      -6.484  12.396  19.758  0.00  0.00    +0.000 OA
ATOM     13  C   UNL     1      -7.041  11.767  18.587  0.00  0.00    +0.000 C 
ATOM     14  O   UNL     1      -6.039  11.264  17.676  0.00  0.00    +0.000 OA
ENDBRANCH   3   6
BRANCH   4  15
ATOM     15  C   UNL     1       0.134  11.298  20.160  0.00  0.00    +0.000 A 
ATOM     16  C   UNL     1       0.042   9.983  20.617  0.00  0.00    +0.000 A 
ATOM     17  C   UNL     1       0.744   8.969  19.966  0.00  0.00    +0.000 A 
ATOM     18  C   UNL     1       1.513   9.236  18.832  0.00  0.00    +0.000 A 
ATOM     19  C   UNL     1       1.579  10.553  18.358  0.00  0.00    +0.000 A 
ATOM     20  C   UNL     1       0.867  11.577  18.999  0.00  0.00    +0.000 A 
BRANCH  18  21
ATOM     21  N   UNL     1       2.242   8.234  18.149  0.00  0.00    +0.000 N 
ATOM     22  C   UNL     1       2.638   7.026  18.704  0.00  0.00    +0.000 C 
ATOM     23  O   UNL     1       2.353   6.627  19.830  0.00  0.00    +0.000 OA
ATOM     24  H   UNL     1       2.454   8.418  17.180  0.00  0.00    +0.000 HD
BRANCH  22  25
ATOM     25  C   UNL     1       3.476   6.125  17.867  0.00  0.00    +0.000 A 
ATOM     26  C   UNL     1       4.506   6.724  17.128  0.00  0.00    +0.000 A 
ATOM     27  C   UNL     1       5.349   5.953  16.330  0.00  0.00    +0.000 A 
ATOM     28  C   UNL     1       5.193   4.570  16.274  0.00  0.00    +0.000 A 
ATOM     29  C   UNL     1       4.175   3.962  17.015  0.00  0.00    +0.000 A 
ATOM     30  C   UNL     1       3.317   4.734  17.809  0.00  0.00    +0.000 A 
BRANCH  28  31
ATOM     31  O   UNL     1       6.063   3.929  15.441  0.00  0.00    +0.000 OA
ATOM     32  C   UNL     1       6.859   4.766  14.611  0.00  0.00    +0.000 C 
ENDBRANCH  28  31
ENDBRANCH  22  25
ENDBRANCH  18  21
ENDBRANCH   4  15
BRANCH   1  33
ATOM     33  O   UNL     1      -0.185  14.605  23.382  0.00  0.00    +0.000 OA
BRANCH  33  34
ATOM     34  C   UNL     1      -1.290  14.964  24.203  0.00  0.00    +0.000 C 
BRANCH  34  35
ATOM     35  C   UNL     1      -0.959  16.244  24.960  0.00  0.00    +0.000 C 
BRANCH  35  37
ATOM     36  C   UNL     1       0.087  16.456  27.064  0.00  0.00    +0.000 C 
ATOM     37  O   UNL     1       0.230  16.025  25.717  0.00  0.00    +0.000 OA
ENDBRANCH  35  37
ENDBRANCH  34  35
ENDBRANCH  33  34
ENDBRANCH   1  33
TORSDOF 9
ENDMDL
MODEL 7
REMARK VINA RESULT:      -7.5      2.496      5.239
REMARK  Name = 
REMARK  11 active torsions:
REMARK  status: ('A' for Active; 'I' for Inactive)
REMARK    1  A    between atoms: C_1  and  O_2
REMARK    2  A    between atoms: O_2  and  C_3
REMARK    3  A    between atoms: C_3  and  C_4
REMARK    4  A    between atoms: C_4  and  O_5
REMARK    5  A    between atoms: O_5  and  C_6
REMARK    6  A    between atoms: C_8  and  C_9
REMARK    7  A    between atoms: N_18  and  C_19
REMARK    8  A    between atoms: C_22  and  N_23
REMARK    9  A    between atoms: C_24  and  C_26
REMARK   10  A    between atoms: C_29  and  O_30
REMARK   11  A    between atoms: O_30  and  C_31
REMARK                            x       y       z     vdW  Elec       q    Type
REMARK                         _______ _______ _______ _____ _____    ______ ____
ROOT
ATOM      1  C   UNL     1       2.478   3.597  17.676  0.00  0.00    +0.000 A 
ATOM      2  N   UNL     1       3.805   3.843  17.505  0.00  0.00    +0.000 NA
ATOM      3  C   UNL     1       3.940   5.095  17.918  0.00  0.00    +0.000 A 
ATOM      4  N   UNL     1       2.669   5.595  18.228  0.00  0.00    +0.000 N 
ATOM      5  N   UNL     1       1.753   4.601  18.155  0.00  0.00    +0.000 NA
ENDROOT
BRANCH   3   6
ATOM      6  C   UNL     1       5.235   5.766  18.142  0.00  0.00    +0.000 A 
ATOM      7  C   UNL     1       6.207   5.172  18.980  0.00  0.00    +0.000 A 
ATOM      8  C   UNL     1       7.452   5.783  19.199  0.00  0.00    +0.000 A 
ATOM      9  C   UNL     1       7.705   6.979  18.561  0.00  0.00    +0.000 A 
ATOM     10  C   UNL     1       6.764   7.574  17.761  0.00  0.00    +0.000 A 
ATOM     11  C   UNL     1       5.521   7.016  17.564  0.00  0.00    +0.000 A 
ATOM     12  O   UNL     1       7.201   8.737  17.211  0.00  0.00    +0.000 OA
ATOM     13  C   UNL     1       8.516   8.831  17.791  0.00  0.00    +0.000 C 
ATOM     14  O   UNL     1       8.852   7.705  18.632  0.00  0.00    +0.000 OA
ENDBRANCH   3   6
BRANCH   4  15
ATOM     15  C   UNL     1       2.282   6.896  18.642  0.00  0.00    +0.000 A 
ATOM     16  C   UNL     1       2.029   7.169  19.986  0.00  0.00    +0.000 A 
ATOM     17  C   UNL     1       1.495   8.402  20.357  0.00  0.00    +0.000 A 
ATOM     18  C   UNL     1       1.241   9.395  19.409  0.00  0.00    +0.000 A 
ATOM     19  C   UNL     1       1.526   9.129  18.063  0.00  0.00    +0.000 A 
ATOM     20  C   UNL     1       2.075   7.895  17.682  0.00  0.00    +0.000 A 
BRANCH  18  21
ATOM     21  N   UNL     1       0.695  10.655  19.748  0.00  0.00    +0.000 N 
ATOM     22  C   UNL     1      -0.544  11.120  19.331  0.00  0.00    +0.000 C 
ATOM     23  O   UNL     1      -1.365  10.483  18.678  0.00  0.00    +0.000 OA
ATOM     24  H   UNL     1       1.250  11.231  20.363  0.00  0.00    +0.000 HD
BRANCH  22  25
ATOM     25  C   UNL     1      -0.923  12.508  19.712  0.00  0.00    +0.000 A 
ATOM     26  C   UNL     1      -0.268  13.550  19.040  0.00  0.00    +0.000 A 
ATOM     27  C   UNL     1      -0.573  14.880  19.321  0.00  0.00    +0.000 A 
ATOM     28  C   UNL     1      -1.553  15.192  20.261  0.00  0.00    +0.000 A 
ATOM     29  C   UNL     1      -2.218  14.161  20.930  0.00  0.00    +0.000 A 
ATOM     30  C   UNL     1      -1.907  12.822  20.659  0.00  0.00    +0.000 A 
BRANCH  28  31
ATOM     31  O   UNL     1      -1.744  16.528  20.466  0.00  0.00    +0.000 OA
ATOM     32  C   UNL     1      -2.074  16.911  21.796  0.00  0.00    +0.000 C 
ENDBRANCH  28  31
ENDBRANCH  22  25
ENDBRANCH  18  21
ENDBRANCH   4  15
BRANCH   1  33
ATOM     33  O   UNL     1       1.820   2.442  17.472  0.00  0.00    +0.000 OA
BRANCH  33  34
ATOM     34  C   UNL     1       0.954   2.154  18.564  0.00  0.00    +0.000 C 
BRANCH  34  35
ATOM     35  C   UNL     1       1.786   1.954  19.825  0.00  0.00    +0.000 C 
BRANCH  35  37
ATOM     36  C   UNL     1       2.122   3.404  21.656  0.00  0.00    +0.000 C 
ATOM     37  O   UNL     1       1.169   2.679  20.889  0.00  0.00    +0.000 OA
ENDBRANCH  35  37
ENDBRANCH  34  35
ENDBRANCH  33  34
ENDBRANCH   1  33
TORSDOF 9
ENDMDL
MODEL 8
REMARK VINA RESULT:      -7.4      1.069      1.362
REMARK  Name = 
REMARK  11 active torsions:
REMARK  status: ('A' for Active; 'I' for Inactive)
REMARK    1  A    between atoms: C_1  and  O_2
REMARK    2  A    between atoms: O_2  and  C_3
REMARK    3  A    between atoms: C_3  and  C_4
REMARK    4  A    between atoms: C_4  and  O_5
REMARK    5  A    between atoms: O_5  and  C_6
REMARK    6  A    between atoms: C_8  and  C_9
REMARK    7  A    between atoms: N_18  and  C_19
REMARK    8  A    between atoms: C_22  and  N_23
REMARK    9  A    between atoms: C_24  and  C_26
REMARK   10  A    between atoms: C_29  and  O_30
REMARK   11  A    between atoms: O_30  and  C_31
REMARK                            x       y       z     vdW  Elec       q    Type
REMARK                         _______ _______ _______ _____ _____    ______ ____
ROOT
ATOM      1  C   UNL     1       5.342   6.093  16.483  0.00  0.00    +0.000 A 
ATOM      2  N   UNL     1       5.003   5.005  17.226  0.00  0.00    +0.000 NA
ATOM      3  C   UNL     1       3.948   5.421  17.913  0.00  0.00    +0.000 A 
ATOM      4  N   UNL     1       3.750   6.779  17.636  0.00  0.00    +0.000 N 
ATOM      5  N   UNL     1       4.592   7.175  16.652  0.00  0.00    +0.000 NA
ENDROOT
BRANCH   3   6
ATOM      6  C   UNL     1       3.068   4.541  18.706  0.00  0.00    +0.000 A 
ATOM      7  C   UNL     1       1.946   3.927  18.103  0.00  0.00    +0.000 A 
ATOM      8  C   UNL     1       1.102   3.075  18.832  0.00  0.00    +0.000 A 
ATOM      9  C   UNL     1       1.405   2.844  20.157  0.00  0.00    +0.000 A 
ATOM     10  C   UNL     1       2.479   3.449  20.759  0.00  0.00    +0.000 A 
ATOM     11  C   UNL     1       3.299   4.320  20.076  0.00  0.00    +0.000 A 
ATOM     12  O   UNL     1       2.624   3.089  22.061  0.00  0.00    +0.000 OA
ATOM     13  C   UNL     1       1.488   2.218  22.226  0.00  0.00    +0.000 C 
ATOM     14  O   UNL     1       0.723   2.039  21.014  0.00  0.00    +0.000 OA
ENDBRANCH   3   6
BRANCH   4  15
ATOM     15  C   UNL     1       2.801   7.687  18.174  0.00  0.00    +0.000 A 
ATOM     16  C   UNL     1       2.444   8.839  17.475  0.00  0.00    +0.000 A 
ATOM     17  C   UNL     1       1.637   9.800  18.084  0.00  0.00    +0.000 A 
ATOM     18  C   UNL     1       1.142   9.615  19.376  0.00  0.00    +0.000 A 
ATOM     19  C   UNL     1       1.479   8.442  20.064  0.00  0.00    +0.000 A 
ATOM     20  C   UNL     1       2.280   7.464  19.455  0.00  0.00    +0.000 A 
BRANCH  18  21
ATOM     21  N   UNL     1       0.327  10.570  20.027  0.00  0.00    +0.000 N 
ATOM     22  C   UNL     1      -0.951  10.929  19.621  0.00  0.00    +0.000 C 
ATOM     23  O   UNL     1      -1.578  10.421  18.695  0.00  0.00    +0.000 OA
ATOM     24  H   UNL     1       0.709  10.990  20.861  0.00  0.00    +0.000 HD
BRANCH  22  25
ATOM     25  C   UNL     1      -1.633  12.017  20.373  0.00  0.00    +0.000 A 
ATOM     26  C   UNL     1      -0.933  12.574  21.453  0.00  0.00    +0.000 A 
ATOM     27  C   UNL     1      -1.489  13.610  22.202  0.00  0.00    +0.000 A 
ATOM     28  C   UNL     1      -2.742  14.122  21.871  0.00  0.00    +0.000 A 
ATOM     29  C   UNL     1      -3.443  13.580  20.790  0.00  0.00    +0.000 A 
ATOM     30  C   UNL     1      -2.893  12.530  20.042  0.00  0.00    +0.000 A 
BRANCH  28  31
ATOM     31  O   UNL     1      -3.189  15.116  22.692  0.00  0.00    +0.000 OA
ATOM     32  C   UNL     1      -3.707  14.698  23.949  0.00  0.00    +0.000 C 
ENDBRANCH  28  31
ENDBRANCH  22  25
ENDBRANCH  18  21
ENDBRANCH   4  15
BRANCH   1  33
ATOM     33  O   UNL     1       6.311   6.189  15.555  0.00  0.00    +0.000 OA
BRANCH  33  34
ATOM     34  C   UNL     1       6.785   4.899  15.185  0.00  0.00    +0.000 C 
BRANCH  34  35
ATOM     35  C   UNL     1       5.888   4.329  14.094  0.00  0.00    +0.000 C 
BRANCH  35  37
ATOM     36  C   UNL     1       7.609   4.999  12.626  0.00  0.00    +0.000 C 
ATOM     37  O   UNL     1       6.707   3.960  12.985  0.00  0.00    +0.000 OA
ENDBRANCH  35  37
ENDBRANCH  34  35
ENDBRANCH  33  34
ENDBRANCH   1  33
TORSDOF 9
ENDMDL
MODEL 9
REMARK VINA RESULT:      -7.4      3.379     11.045
REMARK  Name = 
REMARK  11 active torsions:
REMARK  status: ('A' for Active; 'I' for Inactive)
REMARK    1  A    between atoms: C_1  and  O_2
REMARK    2  A    between atoms: O_2  and  C_3
REMARK    3  A    between atoms: C_3  and  C_4
REMARK    4  A    between atoms: C_4  and  O_5
REMARK    5  A    between atoms: O_5  and  C_6
REMARK    6  A    between atoms: C_8  and  C_9
REMARK    7  A    between atoms: N_18  and  C_19
REMARK    8  A    between atoms: C_22  and  N_23
REMARK    9  A    between atoms: C_24  and  C_26
REMARK   10  A    between atoms: C_29  and  O_30
REMARK   11  A    between atoms: O_30  and  C_31
REMARK                            x       y       z     vdW  Elec       q    Type
REMARK                         _______ _______ _______ _____ _____    ______ ____
ROOT
ATOM      1  C   UNL     1      -1.025  14.685  23.513  0.00  0.00    +0.000 A 
ATOM      2  N   UNL     1      -2.090  14.745  22.670  0.00  0.00    +0.000 NA
ATOM      3  C   UNL     1      -2.108  13.542  22.113  0.00  0.00    +0.000 A 
ATOM      4  N   UNL     1      -0.989  12.832  22.566  0.00  0.00    +0.000 N 
ATOM      5  N   UNL     1      -0.354  13.540  23.530  0.00  0.00    +0.000 NA
ENDROOT
BRANCH   3   6
ATOM      6  C   UNL     1      -3.211  13.023  21.283  0.00  0.00    +0.000 A 
ATOM      7  C   UNL     1      -4.522  12.946  21.808  0.00  0.00    +0.000 A 
ATOM      8  C   UNL     1      -5.591  12.468  21.033  0.00  0.00    +0.000 A 
ATOM      9  C   UNL     1      -5.327  12.084  19.737  0.00  0.00    +0.000 A 
ATOM     10  C   UNL     1      -4.058  12.135  19.221  0.00  0.00    +0.000 A 
ATOM     11  C   UNL     1      -2.985  12.561  19.973  0.00  0.00    +0.000 A 
ATOM     12  O   UNL     1      -3.998  11.730  17.925  0.00  0.00    +0.000 OA
ATOM     13  C   UNL     1      -5.375  11.373  17.693  0.00  0.00    +0.000 C 
ATOM     14  O   UNL     1      -6.229  11.618  18.832  0.00  0.00    +0.000 OA
ENDBRANCH   3   6
BRANCH   4  15
ATOM     15  C   UNL     1      -0.531  11.537  22.209  0.00  0.00    +0.000 A 
ATOM     16  C   UNL     1      -0.859  10.427  22.987  0.00  0.00    +0.000 A 
ATOM     17  C   UNL     1      -0.271   9.191  22.719  0.00  0.00    +0.000 A 
ATOM     18  C   UNL     1       0.618   9.030  21.654  0.00  0.00    +0.000 A 
ATOM     19  C   UNL     1       0.921  10.140  20.856  0.00  0.00    +0.000 A 
ATOM     20  C   UNL     1       0.325  11.384  21.110  0.00  0.00    +0.000 A 
BRANCH  18  21
ATOM     21  N   UNL     1       1.236   7.793  21.356  0.00  0.00    +0.000 N 
ATOM     22  C   UNL     1       1.805   7.465  20.134  0.00  0.00    +0.000 C 
ATOM     23  O   UNL     1       1.917   8.219  19.171  0.00  0.00    +0.000 OA
ATOM     24  H   UNL     1       1.283   7.124  22.110  0.00  0.00    +0.000 HD
BRANCH  22  25
ATOM     25  C   UNL     1       2.335   6.085  19.968  0.00  0.00    +0.000 A 
ATOM     26  C   UNL     1       3.573   5.955  19.321  0.00  0.00    +0.000 A 
ATOM     27  C   UNL     1       4.151   4.701  19.138  0.00  0.00    +0.000 A 
ATOM     28  C   UNL     1       3.516   3.557  19.617  0.00  0.00    +0.000 A 
ATOM     29  C   UNL     1       2.287   3.677  20.273  0.00  0.00    +0.000 A 
ATOM     30  C   UNL     1       1.695   4.935  20.449  0.00  0.00    +0.000 A 
BRANCH  28  31
ATOM     31  O   UNL     1       4.169   2.388  19.357  0.00  0.00    +0.000 OA
ATOM     32  C   UNL     1       3.576   1.553  18.370  0.00  0.00    +0.000 C 
ENDBRANCH  28  31
ENDBRANCH  22  25
ENDBRANCH  18  21
ENDBRANCH   4  15
BRANCH   1  33
ATOM     33  O   UNL     1      -0.602  15.626  24.376  0.00  0.00    +0.000 OA
BRANCH  33  34
ATOM     34  C   UNL     1      -0.310  16.842  23.695  0.00  0.00    +0.000 C 
BRANCH  34  35
ATOM     35  C   UNL     1       1.053  17.353  24.144  0.00  0.00    +0.000 C 
BRANCH  35  37
ATOM     36  C   UNL     1       3.035  17.118  22.886  0.00  0.00    +0.000 C 
ATOM     37  O   UNL     1       2.051  16.452  23.667  0.00  0.00    +0.000 OA
ENDBRANCH  35  37
ENDBRANCH  34  35
ENDBRANCH  33  34
ENDBRANCH   1  33
TORSDOF 9
ENDMDL
