MODEL 1
REMARK VINA RESULT:      -8.3      0.000      0.000
REMARK  Name = 
REMARK  7 active torsions:
REMARK  status: ('A' for Active; 'I' for Inactive)
REMARK    1  A    between atoms: C_2  and  C_3
REMARK    2  A    between atoms: C_2  and  C_16
REMARK    3  A    between atoms: C_4  and  N_5
REMARK    4  A    between atoms: N_5  and  C_6
REMARK    5  A    between atoms: C_10  and  C_11
REMARK    6  A    between atoms: C_19  and  O_20
REMARK    7  A    between atoms: O_20  and  C_21
REMARK                            x       y       z     vdW  Elec       q    Type
REMARK                         _______ _______ _______ _____ _____    ______ ____
ROOT
ATOM      1  O   UNL     1       1.087  10.997  19.989  0.00  0.00    +0.000 OA
ATOM      2  C   UNL     1       0.748  10.433  18.956  0.00  0.00    +0.000 C 
ENDROOT
BRANCH   2   3
ATOM      3  C   UNL     1      -0.631  10.574  18.429  0.00  0.00    +0.000 A 
ATOM      4  C   UNL     1      -1.050   9.755  17.374  0.00  0.00    +0.000 A 
ATOM      5  C   UNL     1      -2.341   9.894  16.855  0.00  0.00    +0.000 A 
ATOM      6  C   UNL     1      -3.211  10.853  17.380  0.00  0.00    +0.000 A 
ATOM      7  C   UNL     1      -2.774  11.699  18.402  0.00  0.00    +0.000 A 
ATOM      8  C   UNL     1      -1.494  11.552  18.937  0.00  0.00    +0.000 A 
BRANCH   6   9
ATOM      9  O   UNL     1      -4.441  10.959  16.771  0.00  0.00    +0.000 OA
BRANCH   9  10
ATOM     10  C   UNL     1      -5.495  11.501  17.493  0.00  0.00    +0.000 A 
ATOM     11  N   UNL     1      -5.847  12.747  17.139  0.00  0.00    +0.000 NA
ATOM     12  C   UNL     1      -6.866  13.290  17.831  0.00  0.00    +0.000 A 
ATOM     13  C   UNL     1      -7.530  12.639  18.845  0.00  0.00    +0.000 A 
ATOM     14  C   UNL     1      -7.100  11.362  19.112  0.00  0.00    +0.000 A 
ATOM     15  N   UNL     1      -6.099  10.763  18.446  0.00  0.00    +0.000 NA
ENDBRANCH   9  10
ENDBRANCH   6   9
ENDBRANCH   2   3
BRANCH   2  16
ATOM     16  C   UNL     1       1.685   9.612  18.147  0.00  0.00    +0.000 C 
ATOM     17  C   UNL     1       2.086   8.411  18.579  0.00  0.00    +0.000 C 
BRANCH  17  18
ATOM     18  N   UNL     1       2.979   7.594  17.936  0.00  0.00    +0.000 N 
ATOM     19  H   UNL     1       3.768   8.052  17.490  0.00  0.00    +0.000 HD
BRANCH  18  20
ATOM     20  C   UNL     1       3.033   6.193  17.957  0.00  0.00    +0.000 A 
ATOM     21  C   UNL     1       4.076   5.548  17.277  0.00  0.00    +0.000 A 
ATOM     22  C   UNL     1       4.216   4.160  17.322  0.00  0.00    +0.000 A 
ATOM     23  C   UNL     1       3.307   3.392  18.041  0.00  0.00    +0.000 A 
ATOM     24  C   UNL     1       2.250   4.006  18.729  0.00  0.00    +0.000 A 
ATOM     25  C   UNL     1       2.138   5.408  18.692  0.00  0.00    +0.000 A 
BRANCH  24  26
ATOM     26  C   UNL     1       1.239   3.192  19.492  0.00  0.00    +0.000 C 
ATOM     27  F   UNL     1       1.793   2.198  20.241  0.00  0.00    +0.000 F 
ATOM     28  F   UNL     1       0.504   3.945  20.359  0.00  0.00    +0.000 F 
ATOM     29  F   UNL     1       0.339   2.579  18.673  0.00  0.00    +0.000 F 
ENDBRANCH  24  26
ENDBRANCH  18  20
ENDBRANCH  17  18
ENDBRANCH   2  16
TORSDOF 7
ENDMDL
MODEL 2
REMARK VINA RESULT:      -8.2      4.540     10.436
REMARK  Name = 
REMARK  7 active torsions:
REMARK  status: ('A' for Active; 'I' for Inactive)
REMARK    1  A    between atoms: C_2  and  C_3
REMARK    2  A    between atoms: C_2  and  C_16
REMARK    3  A    between atoms: C_4  and  N_5
REMARK    4  A    between atoms: N_5  and  C_6
REMARK    5  A    between atoms: C_10  and  C_11
REMARK    6  A    between atoms: C_19  and  O_20
REMARK    7  A    between atoms: O_20  and  C_21
REMARK                            x       y       z     vdW  Elec       q    Type
REMARK                         _______ _______ _______ _____ _____    ______ ____
ROOT
ATOM      1  O   UNL     1       2.111   6.306  19.671  0.00  0.00    +0.000 OA
ATOM      2  C   UNL     1       2.669   6.913  18.766  0.00  0.00    +0.000 C 
ENDROOT
BRANCH   2   3
ATOM      3  C   UNL     1       3.897   6.373  18.131  0.00  0.00    +0.000 A 
ATOM      4  C   UNL     1       4.395   6.982  16.974  0.00  0.00    +0.000 A 
ATOM      5  C   UNL     1       5.539   6.469  16.355  0.00  0.00    +0.000 A 
ATOM      6  C   UNL     1       6.183   5.346  16.884  0.00  0.00    +0.000 A 
ATOM      7  C   UNL     1       5.655   4.715  18.014  0.00  0.00    +0.000 A 
ATOM      8  C   UNL     1       4.525   5.234  18.646  0.00  0.00    +0.000 A 
BRANCH   6   9
ATOM      9  O   UNL     1       7.266   4.876  16.179  0.00  0.00    +0.000 OA
BRANCH   9  10
ATOM     10  C   UNL     1       7.130   4.669  14.813  0.00  0.00    +0.000 A 
ATOM     11  N   UNL     1       7.957   5.391  14.041  0.00  0.00    +0.000 NA
ATOM     12  C   UNL     1       7.838   5.206  12.714  0.00  0.00    +0.000 A 
ATOM     13  C   UNL     1       6.935   4.337  12.146  0.00  0.00    +0.000 A 
ATOM     14  C   UNL     1       6.151   3.635  13.027  0.00  0.00    +0.000 A 
ATOM     15  N   UNL     1       6.235   3.768  14.362  0.00  0.00    +0.000 NA
ENDBRANCH   9  10
ENDBRANCH   6   9
ENDBRANCH   2   3
BRANCH   2  16
ATOM     16  C   UNL     1       2.147   8.191  18.218  0.00  0.00    +0.000 C 
ATOM     17  C   UNL     1       1.677   9.141  19.034  0.00  0.00    +0.000 C 
BRANCH  17  18
ATOM     18  N   UNL     1       1.133  10.334  18.632  0.00  0.00    +0.000 N 
ATOM     19  H   UNL     1       1.775  11.008  18.229  0.00  0.00    +0.000 HD
BRANCH  18  20
ATOM     20  C   UNL     1      -0.225  10.676  18.553  0.00  0.00    +0.000 A 
ATOM     21  C   UNL     1      -0.802  11.392  19.612  0.00  0.00    +0.000 A 
ATOM     22  C   UNL     1      -2.130  11.817  19.555  0.00  0.00    +0.000 A 
ATOM     23  C   UNL     1      -2.907  11.524  18.440  0.00  0.00    +0.000 A 
ATOM     24  C   UNL     1      -2.361  10.807  17.366  0.00  0.00    +0.000 A 
ATOM     25  C   UNL     1      -1.014  10.406  17.430  0.00  0.00    +0.000 A 
BRANCH  24  26
ATOM     26  C   UNL     1      -3.191  10.455  16.160  0.00  0.00    +0.000 C 
ATOM     27  F   UNL     1      -3.293   9.114  15.940  0.00  0.00    +0.000 F 
ATOM     28  F   UNL     1      -4.472  10.914  16.251  0.00  0.00    +0.000 F 
ATOM     29  F   UNL     1      -2.687  10.981  15.008  0.00  0.00    +0.000 F 
ENDBRANCH  24  26
ENDBRANCH  18  20
ENDBRANCH  17  18
ENDBRANCH   2  16
TORSDOF 7
ENDMDL
MODEL 3
REMARK VINA RESULT:      -8.1      0.644      1.302
REMARK  Name = 
REMARK  7 active torsions:
REMARK  status: ('A' for Active; 'I' for Inactive)
REMARK    1  A    between atoms: C_2  and  C_3
REMARK    2  A    between atoms: C_2  and  C_16
REMARK    3  A    between atoms: C_4  and  N_5
REMARK    4  A    between atoms: N_5  and  C_6
REMARK    5  A    between atoms: C_10  and  C_11
REMARK    6  A    between atoms: C_19  and  O_20
REMARK    7  A    between atoms: O_20  and  C_21
REMARK                            x       y       z     vdW  Elec       q    Type
REMARK                         _______ _______ _______ _____ _____    ______ ____
ROOT
ATOM      1  O   UNL     1       1.226  10.285  20.535  0.00  0.00    +0.000 OA
ATOM      2  C   UNL     1       0.872   9.989  19.401  0.00  0.00    +0.000 C 
ENDROOT
BRANCH   2   3
ATOM      3  C   UNL     1      -0.449  10.420  18.879  0.00  0.00    +0.000 A 
ATOM      4  C   UNL     1      -0.940   9.848  17.700  0.00  0.00    +0.000 A 
ATOM      5  C   UNL     1      -2.174  10.262  17.187  0.00  0.00    +0.000 A 
ATOM      6  C   UNL     1      -2.914  11.249  17.844  0.00  0.00    +0.000 A 
ATOM      7  C   UNL     1      -2.398  11.849  18.996  0.00  0.00    +0.000 A 
ATOM      8  C   UNL     1      -1.177  11.427  19.522  0.00  0.00    +0.000 A 
BRANCH   6   9
ATOM      9  O   UNL     1      -4.087  11.635  17.239  0.00  0.00    +0.000 OA
BRANCH   9  10
ATOM     10  C   UNL     1      -5.244  11.684  18.004  0.00  0.00    +0.000 A 
ATOM     11  N   UNL     1      -5.701  10.494  18.424  0.00  0.00    +0.000 NA
ATOM     12  C   UNL     1      -6.824  10.521  19.165  0.00  0.00    +0.000 A 
ATOM     13  C   UNL     1      -7.491  11.679  19.494  0.00  0.00    +0.000 A 
ATOM     14  C   UNL     1      -6.927  12.841  19.028  0.00  0.00    +0.000 A 
ATOM     15  N   UNL     1      -5.800  12.876  18.296  0.00  0.00    +0.000 NA
ENDBRANCH   9  10
ENDBRANCH   6   9
ENDBRANCH   2   3
BRANCH   2  16
ATOM     16  C   UNL     1       1.736   9.226  18.465  0.00  0.00    +0.000 C 
ATOM     17  C   UNL     1       2.127   7.981  18.760  0.00  0.00    +0.000 C 
BRANCH  17  18
ATOM     18  N   UNL     1       2.958   7.208  17.991  0.00  0.00    +0.000 N 
ATOM     19  H   UNL     1       3.710   7.692  17.513  0.00  0.00    +0.000 HD
BRANCH  18  20
ATOM     20  C   UNL     1       3.003   5.808  17.914  0.00  0.00    +0.000 A 
ATOM     21  C   UNL     1       4.033   5.206  17.178  0.00  0.00    +0.000 A 
ATOM     22  C   UNL     1       4.165   3.817  17.124  0.00  0.00    +0.000 A 
ATOM     23  C   UNL     1       3.259   3.007  17.799  0.00  0.00    +0.000 A 
ATOM     24  C   UNL     1       2.215   3.577  18.541  0.00  0.00    +0.000 A 
ATOM     25  C   UNL     1       2.111   4.979  18.604  0.00  0.00    +0.000 A 
BRANCH  24  26
ATOM     26  C   UNL     1       1.207   2.718  19.259  0.00  0.00    +0.000 C 
ATOM     27  F   UNL     1       0.179   2.306  18.465  0.00  0.00    +0.000 F 
ATOM     28  F   UNL     1       1.757   1.581  19.774  0.00  0.00    +0.000 F 
ATOM     29  F   UNL     1       0.627   3.362  20.310  0.00  0.00    +0.000 F 
ENDBRANCH  24  26
ENDBRANCH  18  20
ENDBRANCH  17  18
ENDBRANCH   2  16
TORSDOF 7
ENDMDL
MODEL 4
REMARK VINA RESULT:      -8.1      4.016      5.739
REMARK  Name = 
REMARK  7 active torsions:
REMARK  status: ('A' for Active; 'I' for Inactive)
REMARK    1  A    between atoms: C_2  and  C_3
REMARK    2  A    between atoms: C_2  and  C_16
REMARK    3  A    between atoms: C_4  and  N_5
REMARK    4  A    between atoms: N_5  and  C_6
REMARK    5  A    between atoms: C_10  and  C_11
REMARK    6  A    between atoms: C_19  and  O_20
REMARK    7  A    between atoms: O_20  and  C_21
REMARK                            x       y       z     vdW  Elec       q    Type
REMARK                         _______ _______ _______ _____ _____    ______ ____
ROOT
ATOM      1  O   UNL     1       2.792   4.957  20.586  0.00  0.00    +0.000 OA
ATOM      2  C   UNL     1       2.965   5.556  19.532  0.00  0.00    +0.000 C 
ENDROOT
BRANCH   2   3
ATOM      3  C   UNL     1       2.366   6.895  19.310  0.00  0.00    +0.000 A 
ATOM      4  C   UNL     1       2.455   7.485  18.044  0.00  0.00    +0.000 A 
ATOM      5  C   UNL     1       1.913   8.757  17.830  0.00  0.00    +0.000 A 
ATOM      6  C   UNL     1       1.290   9.443  18.877  0.00  0.00    +0.000 A 
ATOM      7  C   UNL     1       1.245   8.868  20.150  0.00  0.00    +0.000 A 
ATOM      8  C   UNL     1       1.766   7.593  20.365  0.00  0.00    +0.000 A 
BRANCH   6   9
ATOM      9  O   UNL     1       0.837  10.710  18.590  0.00  0.00    +0.000 OA
BRANCH   9  10
ATOM     10  C   UNL     1      -0.532  10.920  18.501  0.00  0.00    +0.000 A 
ATOM     11  N   UNL     1      -1.002  11.935  19.243  0.00  0.00    +0.000 NA
ATOM     12  C   UNL     1      -2.328  12.153  19.172  0.00  0.00    +0.000 A 
ATOM     13  C   UNL     1      -3.182  11.402  18.396  0.00  0.00    +0.000 A 
ATOM     14  C   UNL     1      -2.592  10.402  17.663  0.00  0.00    +0.000 A 
ATOM     15  N   UNL     1      -1.273  10.147  17.683  0.00  0.00    +0.000 NA
ENDBRANCH   9  10
ENDBRANCH   6   9
ENDBRANCH   2   3
BRANCH   2  16
ATOM     16  C   UNL     1       3.804   5.016  18.431  0.00  0.00    +0.000 C 
ATOM     17  C   UNL     1       4.091   3.711  18.372  0.00  0.00    +0.000 C 
BRANCH  17  18
ATOM     18  N   UNL     1       4.890   3.117  17.429  0.00  0.00    +0.000 N 
ATOM     19  H   UNL     1       4.895   2.102  17.416  0.00  0.00    +0.000 HD
BRANCH  18  20
ATOM     20  C   UNL     1       5.573   3.732  16.369  0.00  0.00    +0.000 A 
ATOM     21  C   UNL     1       6.536   4.707  16.665  0.00  0.00    +0.000 A 
ATOM     22  C   UNL     1       7.293   5.303  15.654  0.00  0.00    +0.000 A 
ATOM     23  C   UNL     1       7.091   4.938  14.328  0.00  0.00    +0.000 A 
ATOM     24  C   UNL     1       6.133   3.968  13.998  0.00  0.00    +0.000 A 
ATOM     25  C   UNL     1       5.395   3.362  15.032  0.00  0.00    +0.000 A 
BRANCH  24  26
ATOM     26  C   UNL     1       5.879   3.577  12.566  0.00  0.00    +0.000 C 
ATOM     27  F   UNL     1       6.027   2.243  12.332  0.00  0.00    +0.000 F 
ATOM     28  F   UNL     1       4.618   3.890  12.151  0.00  0.00    +0.000 F 
ATOM     29  F   UNL     1       6.724   4.200  11.698  0.00  0.00    +0.000 F 
ENDBRANCH  24  26
ENDBRANCH  18  20
ENDBRANCH  17  18
ENDBRANCH   2  16
TORSDOF 7
ENDMDL
MODEL 5
REMARK VINA RESULT:      -8.0      7.905     10.401
REMARK  Name = 
REMARK  7 active torsions:
REMARK  status: ('A' for Active; 'I' for Inactive)
REMARK    1  A    between atoms: C_2  and  C_3
REMARK    2  A    between atoms: C_2  and  C_16
REMARK    3  A    between atoms: C_4  and  N_5
REMARK    4  A    between atoms: N_5  and  C_6
REMARK    5  A    between atoms: C_10  and  C_11
REMARK    6  A    between atoms: C_19  and  O_20
REMARK    7  A    between atoms: O_20  and  C_21
REMARK                            x       y       z     vdW  Elec       q    Type
REMARK                         _______ _______ _______ _____ _____    ______ ____
ROOT
ATOM      1  O   UNL     1       7.666   6.273  16.318  0.00  0.00    +0.000 OA
ATOM      2  C   UNL     1       7.297   6.810  17.355  0.00  0.00    +0.000 C 
ENDROOT
BRANCH   2   3
ATOM      3  C   UNL     1       5.918   6.613  17.866  0.00  0.00    +0.000 A 
ATOM      4  C   UNL     1       5.690   5.676  18.880  0.00  0.00    +0.000 A 
ATOM      5  C   UNL     1       4.391   5.467  19.354  0.00  0.00    +0.000 A 
ATOM      6  C   UNL     1       3.320   6.185  18.814  0.00  0.00    +0.000 A 
ATOM      7  C   UNL     1       3.547   7.086  17.771  0.00  0.00    +0.000 A 
ATOM      8  C   UNL     1       4.843   7.313  17.308  0.00  0.00    +0.000 A 
BRANCH   6   9
ATOM      9  O   UNL     1       2.071   5.874  19.301  0.00  0.00    +0.000 OA
BRANCH   9  10
ATOM     10  C   UNL     1       1.732   4.536  19.451  0.00  0.00    +0.000 A 
ATOM     11  N   UNL     1       1.642   4.110  20.721  0.00  0.00    +0.000 NA
ATOM     12  C   UNL     1       1.317   2.815  20.886  0.00  0.00    +0.000 A 
ATOM     13  C   UNL     1       1.082   1.950  19.842  0.00  0.00    +0.000 A 
ATOM     14  C   UNL     1       1.183   2.495  18.586  0.00  0.00    +0.000 A 
ATOM     15  N   UNL     1       1.490   3.783  18.360  0.00  0.00    +0.000 NA
ENDBRANCH   9  10
ENDBRANCH   6   9
ENDBRANCH   2   3
BRANCH   2  16
ATOM     16  C   UNL     1       8.197   7.651  18.185  0.00  0.00    +0.000 C 
ATOM     17  C   UNL     1       8.203   8.981  18.050  0.00  0.00    +0.000 C 
BRANCH  17  18
ATOM     18  N   UNL     1       9.023   9.844  18.731  0.00  0.00    +0.000 N 
ATOM     19  H   UNL     1       9.486   9.472  19.553  0.00  0.00    +0.000 HD
BRANCH  18  20
ATOM     20  C   UNL     1       9.434  11.128  18.341  0.00  0.00    +0.000 A 
ATOM     21  C   UNL     1      10.731  11.295  17.835  0.00  0.00    +0.000 A 
ATOM     22  C   UNL     1      11.169  12.536  17.370  0.00  0.00    +0.000 A 
ATOM     23  C   UNL     1      10.317  13.634  17.413  0.00  0.00    +0.000 A 
ATOM     24  C   UNL     1       9.015  13.502  17.917  0.00  0.00    +0.000 A 
ATOM     25  C   UNL     1       8.583  12.238  18.360  0.00  0.00    +0.000 A 
BRANCH  24  26
ATOM     26  C   UNL     1       8.085  14.683  17.998  0.00  0.00    +0.000 C 
ATOM     27  F   UNL     1       6.949  14.534  17.259  0.00  0.00    +0.000 F 
ATOM     28  F   UNL     1       7.669  14.939  19.271  0.00  0.00    +0.000 F 
ATOM     29  F   UNL     1       8.665  15.834  17.555  0.00  0.00    +0.000 F 
ENDBRANCH  24  26
ENDBRANCH  18  20
ENDBRANCH  17  18
ENDBRANCH   2  16
TORSDOF 7
ENDMDL
MODEL 6
REMARK VINA RESULT:      -8.0      0.787      1.171
REMARK  Name = 
REMARK  7 active torsions:
REMARK  status: ('A' for Active; 'I' for Inactive)
REMARK    1  A    between atoms: C_2  and  C_3
REMARK    2  A    between atoms: C_2  and  C_16
REMARK    3  A    between atoms: C_4  and  N_5
REMARK    4  A    between atoms: N_5  and  C_6
REMARK    5  A    between atoms: C_10  and  C_11
REMARK    6  A    between atoms: C_19  and  O_20
REMARK    7  A    between atoms: O_20  and  C_21
REMARK                            x       y       z     vdW  Elec       q    Type
REMARK                         _______ _______ _______ _____ _____    ______ ____
ROOT
ATOM      1  O   UNL     1       1.259  10.882  19.621  0.00  0.00    +0.000 OA
ATOM      2  C   UNL     1       0.693  10.274  18.722  0.00  0.00    +0.000 C 
ENDROOT
BRANCH   2   3
ATOM      3  C   UNL     1      -0.726  10.554  18.388  0.00  0.00    +0.000 A 
ATOM      4  C   UNL     1      -1.342   9.837  17.356  0.00  0.00    +0.000 A 
ATOM      5  C   UNL     1      -2.672  10.108  17.018  0.00  0.00    +0.000 A 
ATOM      6  C   UNL     1      -3.385  11.097  17.703  0.00  0.00    +0.000 A 
ATOM      7  C   UNL     1      -2.751  11.840  18.702  0.00  0.00    +0.000 A 
ATOM      8  C   UNL     1      -1.431  11.561  19.056  0.00  0.00    +0.000 A 
BRANCH   6   9
ATOM      9  O   UNL     1      -4.668  11.335  17.267  0.00  0.00    +0.000 OA
BRANCH   9  10
ATOM     10  C   UNL     1      -5.678  11.455  18.211  0.00  0.00    +0.000 A 
ATOM     11  N   UNL     1      -6.129  12.705  18.407  0.00  0.00    +0.000 NA
ATOM     12  C   UNL     1      -7.106  12.842  19.321  0.00  0.00    +0.000 A 
ATOM     13  C   UNL     1      -7.638  11.789  20.031  0.00  0.00    +0.000 A 
ATOM     14  C   UNL     1      -7.117  10.553  19.738  0.00  0.00    +0.000 A 
ATOM     15  N   UNL     1      -6.150  10.353  18.826  0.00  0.00    +0.000 NA
ENDBRANCH   9  10
ENDBRANCH   6   9
ENDBRANCH   2   3
BRANCH   2  16
ATOM     16  C   UNL     1       1.381   9.257  17.886  0.00  0.00    +0.000 C 
ATOM     17  C   UNL     1       2.196   8.355  18.444  0.00  0.00    +0.000 C 
BRANCH  17  18
ATOM     18  N   UNL     1       2.913   7.405  17.763  0.00  0.00    +0.000 N 
ATOM     19  H   UNL     1       3.503   7.741  17.009  0.00  0.00    +0.000 HD
BRANCH  18  20
ATOM     20  C   UNL     1       3.064   6.048  18.082  0.00  0.00    +0.000 A 
ATOM     21  C   UNL     1       3.982   5.281  17.351  0.00  0.00    +0.000 A 
ATOM     22  C   UNL     1       4.221   3.943  17.671  0.00  0.00    +0.000 A 
ATOM     23  C   UNL     1       3.535   3.348  18.724  0.00  0.00    +0.000 A 
ATOM     24  C   UNL     1       2.608   4.086  19.473  0.00  0.00    +0.000 A 
ATOM     25  C   UNL     1       2.396   5.440  19.151  0.00  0.00    +0.000 A 
BRANCH  24  26
ATOM     26  C   UNL     1       1.835   3.454  20.601  0.00  0.00    +0.000 C 
ATOM     27  F   UNL     1       0.526   3.831  20.643  0.00  0.00    +0.000 F 
ATOM     28  F   UNL     1       1.828   2.092  20.535  0.00  0.00    +0.000 F 
ATOM     29  F   UNL     1       2.348   3.766  21.824  0.00  0.00    +0.000 F 
ENDBRANCH  24  26
ENDBRANCH  18  20
ENDBRANCH  17  18
ENDBRANCH   2  16
TORSDOF 7
ENDMDL
MODEL 7
REMARK VINA RESULT:      -8.0      4.574      9.992
REMARK  Name = 
REMARK  7 active torsions:
REMARK  status: ('A' for Active; 'I' for Inactive)
REMARK    1  A    between atoms: C_2  and  C_3
REMARK    2  A    between atoms: C_2  and  C_16
REMARK    3  A    between atoms: C_4  and  N_5
REMARK    4  A    between atoms: N_5  and  C_6
REMARK    5  A    between atoms: C_10  and  C_11
REMARK    6  A    between atoms: C_19  and  O_20
REMARK    7  A    between atoms: O_20  and  C_21
REMARK                            x       y       z     vdW  Elec       q    Type
REMARK                         _______ _______ _______ _____ _____    ______ ____
ROOT
ATOM      1  O   UNL     1       1.168   8.481  21.909  0.00  0.00    +0.000 OA
ATOM      2  C   UNL     1       1.331   8.435  20.696  0.00  0.00    +0.000 C 
ENDROOT
BRANCH   2   3
ATOM      3  C   UNL     1       1.965   7.256  20.057  0.00  0.00    +0.000 A 
ATOM      4  C   UNL     1       2.513   7.382  18.776  0.00  0.00    +0.000 A 
ATOM      5  C   UNL     1       3.094   6.271  18.155  0.00  0.00    +0.000 A 
ATOM      6  C   UNL     1       3.121   5.035  18.806  0.00  0.00    +0.000 A 
ATOM      7  C   UNL     1       2.532   4.903  20.066  0.00  0.00    +0.000 A 
ATOM      8  C   UNL     1       1.968   6.012  20.698  0.00  0.00    +0.000 A 
BRANCH   6   9
ATOM      9  O   UNL     1       3.660   3.985  18.098  0.00  0.00    +0.000 OA
BRANCH   9  10
ATOM     10  C   UNL     1       4.832   4.198  17.385  0.00  0.00    +0.000 A 
ATOM     11  N   UNL     1       5.914   4.463  18.133  0.00  0.00    +0.000 NA
ATOM     12  C   UNL     1       7.059   4.675  17.459  0.00  0.00    +0.000 A 
ATOM     13  C   UNL     1       7.154   4.631  16.087  0.00  0.00    +0.000 A 
ATOM     14  C   UNL     1       5.990   4.333  15.421  0.00  0.00    +0.000 A 
ATOM     15  N   UNL     1       4.822   4.098  16.041  0.00  0.00    +0.000 NA
ENDBRANCH   9  10
ENDBRANCH   6   9
ENDBRANCH   2   3
BRANCH   2  16
ATOM     16  C   UNL     1       0.879   9.518  19.785  0.00  0.00    +0.000 C 
ATOM     17  C   UNL     1      -0.316  10.096  19.954  0.00  0.00    +0.000 C 
BRANCH  17  18
ATOM     18  N   UNL     1      -0.848  11.068  19.147  0.00  0.00    +0.000 N 
ATOM     19  H   UNL     1      -0.347  11.950  19.114  0.00  0.00    +0.000 HD
BRANCH  18  20
ATOM     20  C   UNL     1      -1.903  10.944  18.231  0.00  0.00    +0.000 A 
ATOM     21  C   UNL     1      -1.737  10.103  17.122  0.00  0.00    +0.000 A 
ATOM     22  C   UNL     1      -2.778   9.890  16.217  0.00  0.00    +0.000 A 
ATOM     23  C   UNL     1      -4.001  10.525  16.402  0.00  0.00    +0.000 A 
ATOM     24  C   UNL     1      -4.198  11.376  17.499  0.00  0.00    +0.000 A 
ATOM     25  C   UNL     1      -3.145  11.561  18.414  0.00  0.00    +0.000 A 
BRANCH  24  26
ATOM     26  C   UNL     1      -5.505  12.095  17.704  0.00  0.00    +0.000 C 
ATOM     27  F   UNL     1      -5.590  12.741  18.901  0.00  0.00    +0.000 F 
ATOM     28  F   UNL     1      -5.739  13.044  16.753  0.00  0.00    +0.000 F 
ATOM     29  F   UNL     1      -6.575  11.252  17.662  0.00  0.00    +0.000 F 
ENDBRANCH  24  26
ENDBRANCH  18  20
ENDBRANCH  17  18
ENDBRANCH   2  16
TORSDOF 7
ENDMDL
MODEL 8
REMARK VINA RESULT:      -8.0      8.746     11.369
REMARK  Name = 
REMARK  7 active torsions:
REMARK  status: ('A' for Active; 'I' for Inactive)
REMARK    1  A    between atoms: C_2  and  C_3
REMARK    2  A    between atoms: C_2  and  C_16
REMARK    3  A    between atoms: C_4  and  N_5
REMARK    4  A    between atoms: N_5  and  C_6
REMARK    5  A    between atoms: C_10  and  C_11
REMARK    6  A    between atoms: C_19  and  O_20
REMARK    7  A    between atoms: O_20  and  C_21
REMARK                            x       y       z     vdW  Elec       q    Type
REMARK                         _______ _______ _______ _____ _____    ______ ____
ROOT
ATOM      1  O   UNL     1       8.682   6.908  19.077  0.00  0.00    +0.000 OA
ATOM      2  C   UNL     1       7.841   7.309  18.283  0.00  0.00    +0.000 C 
ENDROOT
BRANCH   2   3
ATOM      3  C   UNL     1       6.683   6.460  17.908  0.00  0.00    +0.000 A 
ATOM      4  C   UNL     1       6.431   5.286  18.626  0.00  0.00    +0.000 A 
ATOM      5  C   UNL     1       5.355   4.468  18.267  0.00  0.00    +0.000 A 
ATOM      6  C   UNL     1       4.535   4.816  17.190  0.00  0.00    +0.000 A 
ATOM      7  C   UNL     1       4.817   5.965  16.448  0.00  0.00    +0.000 A 
ATOM      8  C   UNL     1       5.878   6.795  16.813  0.00  0.00    +0.000 A 
BRANCH   6   9
ATOM      9  O   UNL     1       3.536   3.924  16.872  0.00  0.00    +0.000 OA
BRANCH   9  10
ATOM     10  C   UNL     1       2.644   3.545  17.866  0.00  0.00    +0.000 A 
ATOM     11  N   UNL     1       2.506   2.221  18.033  0.00  0.00    +0.000 NA
ATOM     12  C   UNL     1       1.643   1.834  18.990  0.00  0.00    +0.000 A 
ATOM     13  C   UNL     1       0.928   2.713  19.771  0.00  0.00    +0.000 A 
ATOM     14  C   UNL     1       1.159   4.045  19.528  0.00  0.00    +0.000 A 
ATOM     15  N   UNL     1       2.019   4.490  18.596  0.00  0.00    +0.000 NA
ENDBRANCH   9  10
ENDBRANCH   6   9
ENDBRANCH   2   3
BRANCH   2  16
ATOM     16  C   UNL     1       7.893   8.663  17.676  0.00  0.00    +0.000 C 
ATOM     17  C   UNL     1       8.549   9.658  18.284  0.00  0.00    +0.000 C 
BRANCH  17  18
ATOM     18  N   UNL     1       8.621  10.951  17.836  0.00  0.00    +0.000 N 
ATOM     19  H   UNL     1       7.773  11.338  17.436  0.00  0.00    +0.000 HD
BRANCH  18  20
ATOM     20  C   UNL     1       9.671  11.865  18.012  0.00  0.00    +0.000 A 
ATOM     21  C   UNL     1      10.907  11.392  18.473  0.00  0.00    +0.000 A 
ATOM     22  C   UNL     1      12.004  12.245  18.601  0.00  0.00    +0.000 A 
ATOM     23  C   UNL     1      11.878  13.592  18.279  0.00  0.00    +0.000 A 
ATOM     24  C   UNL     1      10.654  14.098  17.818  0.00  0.00    +0.000 A 
ATOM     25  C   UNL     1       9.565  13.219  17.673  0.00  0.00    +0.000 A 
BRANCH  24  26
ATOM     26  C   UNL     1      10.488  15.558  17.488  0.00  0.00    +0.000 C 
ATOM     27  F   UNL     1      11.155  15.942  16.363  0.00  0.00    +0.000 F 
ATOM     28  F   UNL     1       9.186  15.907  17.285  0.00  0.00    +0.000 F 
ATOM     29  F   UNL     1      10.943  16.372  18.482  0.00  0.00    +0.000 F 
ENDBRANCH  24  26
ENDBRANCH  18  20
ENDBRANCH  17  18
ENDBRANCH   2  16
TORSDOF 7
ENDMDL
MODEL 9
REMARK VINA RESULT:      -8.0      4.700     10.563
REMARK  Name = 
REMARK  7 active torsions:
REMARK  status: ('A' for Active; 'I' for Inactive)
REMARK    1  A    between atoms: C_2  and  C_3
REMARK    2  A    between atoms: C_2  and  C_16
REMARK    3  A    between atoms: C_4  and  N_5
REMARK    4  A    between atoms: N_5  and  C_6
REMARK    5  A    between atoms: C_10  and  C_11
REMARK    6  A    between atoms: C_19  and  O_20
REMARK    7  A    between atoms: O_20  and  C_21
REMARK                            x       y       z     vdW  Elec       q    Type
REMARK                         _______ _______ _______ _____ _____    ______ ____
ROOT
ATOM      1  O   UNL     1       2.513   7.068  19.824  0.00  0.00    +0.000 OA
ATOM      2  C   UNL     1       2.631   7.216  18.615  0.00  0.00    +0.000 C 
ENDROOT
BRANCH   2   3
ATOM      3  C   UNL     1       3.580   6.384  17.834  0.00  0.00    +0.000 A 
ATOM      4  C   UNL     1       3.582   4.996  18.012  0.00  0.00    +0.000 A 
ATOM      5  C   UNL     1       4.486   4.204  17.297  0.00  0.00    +0.000 A 
ATOM      6  C   UNL     1       5.392   4.795  16.412  0.00  0.00    +0.000 A 
ATOM      7  C   UNL     1       5.416   6.185  16.271  0.00  0.00    +0.000 A 
ATOM      8  C   UNL     1       4.504   6.978  16.967  0.00  0.00    +0.000 A 
BRANCH   6   9
ATOM      9  O   UNL     1       6.282   3.946  15.795  0.00  0.00    +0.000 OA
BRANCH   9  10
ATOM     10  C   UNL     1       6.637   4.200  14.477  0.00  0.00    +0.000 A 
ATOM     11  N   UNL     1       7.589   5.132  14.312  0.00  0.00    +0.000 NA
ATOM     12  C   UNL     1       7.944   5.394  13.041  0.00  0.00    +0.000 A 
ATOM     13  C   UNL     1       7.387   4.765  11.950  0.00  0.00    +0.000 A 
ATOM     14  C   UNL     1       6.436   3.816  12.234  0.00  0.00    +0.000 A 
ATOM     15  N   UNL     1       6.052   3.503  13.483  0.00  0.00    +0.000 NA
ENDBRANCH   9  10
ENDBRANCH   6   9
ENDBRANCH   2   3
BRANCH   2  16
ATOM     16  C   UNL     1       1.821   8.195  17.845  0.00  0.00    +0.000 C 
ATOM     17  C   UNL     1       1.413   9.336  18.411  0.00  0.00    +0.000 C 
BRANCH  17  18
ATOM     18  N   UNL     1       0.626  10.283  17.808  0.00  0.00    +0.000 N 
ATOM     19  H   UNL     1       0.889  10.555  16.866  0.00  0.00    +0.000 HD
BRANCH  18  20
ATOM     20  C   UNL     1      -0.595  10.804  18.262  0.00  0.00    +0.000 A 
ATOM     21  C   UNL     1      -0.613  11.530  19.461  0.00  0.00    +0.000 A 
ATOM     22  C   UNL     1      -1.787  12.127  19.924  0.00  0.00    +0.000 A 
ATOM     23  C   UNL     1      -2.966  11.998  19.199  0.00  0.00    +0.000 A 
ATOM     24  C   UNL     1      -2.982  11.274  17.998  0.00  0.00    +0.000 A 
ATOM     25  C   UNL     1      -1.785  10.698  17.534  0.00  0.00    +0.000 A 
BRANCH  24  26
ATOM     26  C   UNL     1      -4.254  11.099  17.209  0.00  0.00    +0.000 C 
ATOM     27  F   UNL     1      -4.847  12.276  16.864  0.00  0.00    +0.000 F 
ATOM     28  F   UNL     1      -4.059  10.424  16.041  0.00  0.00    +0.000 F 
ATOM     29  F   UNL     1      -5.199  10.396  17.895  0.00  0.00    +0.000 F 
ENDBRANCH  24  26
ENDBRANCH  18  20
ENDBRANCH  17  18
ENDBRANCH   2  16
TORSDOF 7
ENDMDL
