MODEL 1
REMARK VINA RESULT:      -7.4      0.000      0.000
REMARK  Name = 
REMARK  6 active torsions:
REMARK  status: ('A' for Active; 'I' for Inactive)
REMARK    1  A    between atoms: C_1  and  O_2
REMARK    2  A    between atoms: O_2  and  C_3
REMARK    3  A    between atoms: C_8  and  N_9
REMARK    4  A    between atoms: N_15  and  C_16
REMARK    5  A    between atoms: C_21  and  O_22
REMARK    6  A    between atoms: O_22  and  C_23
REMARK                            x       y       z     vdW  Elec       q    Type
REMARK                         _______ _______ _______ _____ _____    ______ ____
ROOT
ATOM      1  N   UNL     1       2.934   6.315  19.348  0.00  0.00    +0.000 NA
ATOM      2  C   UNL     1       2.897   5.074  19.714  0.00  0.00    +0.000 C 
ATOM      3  S   UNL     1       1.725   4.276  20.742  0.00  0.00    +0.000 S 
ATOM      4  C   UNL     1       2.780   2.838  20.992  0.00  0.00    +0.000 C 
ATOM      5  C   UNL     1       3.908   2.968  20.004  0.00  0.00    +0.000 C 
ATOM      6  O   UNL     1       4.813   2.140  19.944  0.00  0.00    +0.000 OA
ATOM      7  N   UNL     1       3.812   4.141  19.280  0.00  0.00    +0.000 N 
ENDROOT
BRANCH   1  13
ATOM      8  C   UNL     1       1.807   8.504  19.089  0.00  0.00    +0.000 A 
ATOM      9  C   UNL     1       0.966   9.491  19.627  0.00  0.00    +0.000 A 
ATOM     10  C   UNL     1       0.353   9.325  20.866  0.00  0.00    +0.000 A 
ATOM     11  C   UNL     1       0.627   8.192  21.612  0.00  0.00    +0.000 A 
ATOM     12  C   UNL     1       1.500   7.226  21.106  0.00  0.00    +0.000 A 
ATOM     13  C   UNL     1       2.056   7.311  19.814  0.00  0.00    +0.000 A 
BRANCH   8  15
ATOM     14  C   UNL     1       2.423  10.296  17.637  0.00  0.00    +0.000 C 
ATOM     15  O   UNL     1       2.382   8.907  17.909  0.00  0.00    +0.000 OA
ENDBRANCH   8  15
ENDBRANCH   1  13
BRANCH   7  16
ATOM     16  C   UNL     1       4.726   4.422  18.244  0.00  0.00    +0.000 A 
ATOM     17  C   UNL     1       4.307   4.239  16.917  0.00  0.00    +0.000 A 
ATOM     18  C   UNL     1       5.171   4.518  15.858  0.00  0.00    +0.000 A 
ATOM     19  C   UNL     1       6.459   4.978  16.117  0.00  0.00    +0.000 A 
ATOM     20  C   UNL     1       6.876   5.177  17.433  0.00  0.00    +0.000 A 
ATOM     21  C   UNL     1       6.022   4.901  18.509  0.00  0.00    +0.000 A 
BRANCH  21  22
ATOM     22  O   UNL     1       6.569   5.218  19.725  0.00  0.00    +0.000 OA
ATOM     23  C   UNL     1       7.902   5.702  19.751  0.00  0.00    +0.000 C 
ENDBRANCH  21  22
ENDBRANCH   7  16
TORSDOF 4
ENDMDL
MODEL 2
REMARK VINA RESULT:      -7.3      1.695      2.426
REMARK  Name = 
REMARK  6 active torsions:
REMARK  status: ('A' for Active; 'I' for Inactive)
REMARK    1  A    between atoms: C_1  and  O_2
REMARK    2  A    between atoms: O_2  and  C_3
REMARK    3  A    between atoms: C_8  and  N_9
REMARK    4  A    between atoms: N_15  and  C_16
REMARK    5  A    between atoms: C_21  and  O_22
REMARK    6  A    between atoms: O_22  and  C_23
REMARK                            x       y       z     vdW  Elec       q    Type
REMARK                         _______ _______ _______ _____ _____    ______ ____
ROOT
ATOM      1  N   UNL     1       3.079   6.968  19.166  0.00  0.00    +0.000 NA
ATOM      2  C   UNL     1       2.930   5.877  18.485  0.00  0.00    +0.000 C 
ATOM      3  S   UNL     1       1.447   5.151  17.902  0.00  0.00    +0.000 S 
ATOM      4  C   UNL     1       2.241   3.572  17.562  0.00  0.00    +0.000 C 
ATOM      5  C   UNL     1       3.722   3.810  17.685  0.00  0.00    +0.000 C 
ATOM      6  O   UNL     1       4.538   2.906  17.528  0.00  0.00    +0.000 OA
ATOM      7  N   UNL     1       3.993   5.112  18.063  0.00  0.00    +0.000 N 
ENDROOT
BRANCH   1  13
ATOM      8  C   UNL     1       1.566   8.923  19.017  0.00  0.00    +0.000 A 
ATOM      9  C   UNL     1       0.544   9.694  19.590  0.00  0.00    +0.000 A 
ATOM     10  C   UNL     1      -0.054   9.328  20.794  0.00  0.00    +0.000 A 
ATOM     11  C   UNL     1       0.413   8.214  21.470  0.00  0.00    +0.000 A 
ATOM     12  C   UNL     1       1.462   7.467  20.930  0.00  0.00    +0.000 A 
ATOM     13  C   UNL     1       2.020   7.747  19.667  0.00  0.00    +0.000 A 
BRANCH   8  15
ATOM     14  C   UNL     1       2.241  10.917  17.892  0.00  0.00    +0.000 C 
ATOM     15  O   UNL     1       2.081   9.511  17.888  0.00  0.00    +0.000 OA
ENDBRANCH   8  15
ENDBRANCH   1  13
BRANCH   7  16
ATOM     16  C   UNL     1       5.324   5.569  18.159  0.00  0.00    +0.000 A 
ATOM     17  C   UNL     1       6.024   5.336  19.353  0.00  0.00    +0.000 A 
ATOM     18  C   UNL     1       7.347   5.756  19.490  0.00  0.00    +0.000 A 
ATOM     19  C   UNL     1       7.978   6.413  18.438  0.00  0.00    +0.000 A 
ATOM     20  C   UNL     1       7.292   6.634  17.243  0.00  0.00    +0.000 A 
ATOM     21  C   UNL     1       5.963   6.220  17.088  0.00  0.00    +0.000 A 
BRANCH  21  22
ATOM     22  O   UNL     1       5.469   6.454  15.832  0.00  0.00    +0.000 OA
ATOM     23  C   UNL     1       5.599   5.426  14.862  0.00  0.00    +0.000 C 
ENDBRANCH  21  22
ENDBRANCH   7  16
TORSDOF 4
ENDMDL
MODEL 3
REMARK VINA RESULT:      -7.2      1.797      2.485
REMARK  Name = 
REMARK  6 active torsions:
REMARK  status: ('A' for Active; 'I' for Inactive)
REMARK    1  A    between atoms: C_1  and  O_2
REMARK    2  A    between atoms: O_2  and  C_3
REMARK    3  A    between atoms: C_8  and  N_9
REMARK    4  A    between atoms: N_15  and  C_16
REMARK    5  A    between atoms: C_21  and  O_22
REMARK    6  A    between atoms: O_22  and  C_23
REMARK                            x       y       z     vdW  Elec       q    Type
REMARK                         _______ _______ _______ _____ _____    ______ ____
ROOT
ATOM      1  N   UNL     1       3.388   6.228  17.879  0.00  0.00    +0.000 NA
ATOM      2  C   UNL     1       2.964   5.012  17.751  0.00  0.00    +0.000 C 
ATOM      3  S   UNL     1       1.358   4.381  18.054  0.00  0.00    +0.000 S 
ATOM      4  C   UNL     1       1.926   2.673  18.059  0.00  0.00    +0.000 C 
ATOM      5  C   UNL     1       3.339   2.697  17.542  0.00  0.00    +0.000 C 
ATOM      6  O   UNL     1       4.012   1.674  17.447  0.00  0.00    +0.000 OA
ATOM      7  N   UNL     1       3.760   3.989  17.289  0.00  0.00    +0.000 N 
ENDROOT
BRANCH   1  13
ATOM      8  C   UNL     1       2.256   7.357  19.770  0.00  0.00    +0.000 A 
ATOM      9  C   UNL     1       1.446   8.407  20.228  0.00  0.00    +0.000 A 
ATOM     10  C   UNL     1       0.996   9.406  19.367  0.00  0.00    +0.000 A 
ATOM     11  C   UNL     1       1.302   9.326  18.019  0.00  0.00    +0.000 A 
ATOM     12  C   UNL     1       2.068   8.259  17.546  0.00  0.00    +0.000 A 
ATOM     13  C   UNL     1       2.626   7.289  18.403  0.00  0.00    +0.000 A 
BRANCH   8  15
ATOM     14  C   UNL     1       1.501   5.472  21.025  0.00  0.00    +0.000 C 
ATOM     15  O   UNL     1       2.505   6.434  20.755  0.00  0.00    +0.000 OA
ENDBRANCH   8  15
ENDBRANCH   1  13
BRANCH   7  16
ATOM     16  C   UNL     1       5.029   4.232  16.723  0.00  0.00    +0.000 A 
ATOM     17  C   UNL     1       5.131   4.313  15.326  0.00  0.00    +0.000 A 
ATOM     18  C   UNL     1       6.362   4.567  14.721  0.00  0.00    +0.000 A 
ATOM     19  C   UNL     1       7.499   4.738  15.506  0.00  0.00    +0.000 A 
ATOM     20  C   UNL     1       7.400   4.674  16.896  0.00  0.00    +0.000 A 
ATOM     21  C   UNL     1       6.173   4.419  17.521  0.00  0.00    +0.000 A 
BRANCH  21  22
ATOM     22  O   UNL     1       6.246   4.459  18.888  0.00  0.00    +0.000 OA
ATOM     23  C   UNL     1       6.996   5.505  19.486  0.00  0.00    +0.000 C 
ENDBRANCH  21  22
ENDBRANCH   7  16
TORSDOF 4
ENDMDL
MODEL 4
REMARK VINA RESULT:      -7.0      1.182      1.230
REMARK  Name = 
REMARK  6 active torsions:
REMARK  status: ('A' for Active; 'I' for Inactive)
REMARK    1  A    between atoms: C_1  and  O_2
REMARK    2  A    between atoms: O_2  and  C_3
REMARK    3  A    between atoms: C_8  and  N_9
REMARK    4  A    between atoms: N_15  and  C_16
REMARK    5  A    between atoms: C_21  and  O_22
REMARK    6  A    between atoms: O_22  and  C_23
REMARK                            x       y       z     vdW  Elec       q    Type
REMARK                         _______ _______ _______ _____ _____    ______ ____
ROOT
ATOM      1  N   UNL     1       3.106   5.951  18.640  0.00  0.00    +0.000 NA
ATOM      2  C   UNL     1       2.793   4.706  18.480  0.00  0.00    +0.000 C 
ATOM      3  S   UNL     1       1.328   3.880  18.965  0.00  0.00    +0.000 S 
ATOM      4  C   UNL     1       2.060   2.250  18.748  0.00  0.00    +0.000 C 
ATOM      5  C   UNL     1       3.366   2.467  18.031  0.00  0.00    +0.000 C 
ATOM      6  O   UNL     1       4.116   1.535  17.756  0.00  0.00    +0.000 OA
ATOM      7  N   UNL     1       3.608   3.812  17.824  0.00  0.00    +0.000 N 
ENDROOT
BRANCH   1  13
ATOM      8  C   UNL     1       2.026   8.170  18.844  0.00  0.00    +0.000 A 
ATOM      9  C   UNL     1       1.297   9.082  19.623  0.00  0.00    +0.000 A 
ATOM     10  C   UNL     1       0.849   8.751  20.899  0.00  0.00    +0.000 A 
ATOM     11  C   UNL     1       1.184   7.520  21.437  0.00  0.00    +0.000 A 
ATOM     12  C   UNL     1       1.949   6.624  20.687  0.00  0.00    +0.000 A 
ATOM     13  C   UNL     1       2.331   6.883  19.355  0.00  0.00    +0.000 A 
BRANCH   8  15
ATOM     14  C   UNL     1       2.387  10.137  17.541  0.00  0.00    +0.000 C 
ATOM     15  O   UNL     1       2.451   8.728  17.664  0.00  0.00    +0.000 OA
ENDBRANCH   8  15
ENDBRANCH   1  13
BRANCH   7  16
ATOM     16  C   UNL     1       4.742   4.233  17.098  0.00  0.00    +0.000 A 
ATOM     17  C   UNL     1       4.621   4.396  15.709  0.00  0.00    +0.000 A 
ATOM     18  C   UNL     1       5.711   4.825  14.950  0.00  0.00    +0.000 A 
ATOM     19  C   UNL     1       6.927   5.089  15.572  0.00  0.00    +0.000 A 
ATOM     20  C   UNL     1       7.049   4.943  16.954  0.00  0.00    +0.000 A 
ATOM     21  C   UNL     1       5.966   4.513  17.732  0.00  0.00    +0.000 A 
BRANCH  21  22
ATOM     22  O   UNL     1       6.241   4.491  19.074  0.00  0.00    +0.000 OA
ATOM     23  C   UNL     1       7.082   5.507  19.598  0.00  0.00    +0.000 C 
ENDBRANCH  21  22
ENDBRANCH   7  16
TORSDOF 4
ENDMDL
MODEL 5
REMARK VINA RESULT:      -7.0      1.070      1.959
REMARK  Name = 
REMARK  6 active torsions:
REMARK  status: ('A' for Active; 'I' for Inactive)
REMARK    1  A    between atoms: C_1  and  O_2
REMARK    2  A    between atoms: O_2  and  C_3
REMARK    3  A    between atoms: C_8  and  N_9
REMARK    4  A    between atoms: N_15  and  C_16
REMARK    5  A    between atoms: C_21  and  O_22
REMARK    6  A    between atoms: O_22  and  C_23
REMARK                            x       y       z     vdW  Elec       q    Type
REMARK                         _______ _______ _______ _____ _____    ______ ____
ROOT
ATOM      1  N   UNL     1       3.083   6.641  19.512  0.00  0.00    +0.000 NA
ATOM      2  C   UNL     1       2.982   5.351  19.530  0.00  0.00    +0.000 C 
ATOM      3  S   UNL     1       1.570   4.373  19.869  0.00  0.00    +0.000 S 
ATOM      4  C   UNL     1       2.543   2.877  20.106  0.00  0.00    +0.000 C 
ATOM      5  C   UNL     1       3.933   3.199  19.628  0.00  0.00    +0.000 C 
ATOM      6  O   UNL     1       4.843   2.376  19.681  0.00  0.00    +0.000 OA
ATOM      7  N   UNL     1       4.033   4.517  19.222  0.00  0.00    +0.000 N 
ENDROOT
BRANCH   1  13
ATOM      8  C   UNL     1       1.717   8.664  19.098  0.00  0.00    +0.000 A 
ATOM      9  C   UNL     1       0.719   9.547  19.537  0.00  0.00    +0.000 A 
ATOM     10  C   UNL     1       0.031   9.331  20.729  0.00  0.00    +0.000 A 
ATOM     11  C   UNL     1       0.382   8.257  21.528  0.00  0.00    +0.000 A 
ATOM     12  C   UNL     1       1.407   7.399  21.122  0.00  0.00    +0.000 A 
ATOM     13  C   UNL     1       2.053   7.527  19.876  0.00  0.00    +0.000 A 
BRANCH   8  15
ATOM     14  C   UNL     1       2.330  10.507  17.711  0.00  0.00    +0.000 C 
ATOM     15  O   UNL     1       2.333   9.113  17.956  0.00  0.00    +0.000 OA
ENDBRANCH   8  15
ENDBRANCH   1  13
BRANCH   7  16
ATOM     16  C   UNL     1       5.232   5.006  18.663  0.00  0.00    +0.000 A 
ATOM     17  C   UNL     1       6.245   5.440  19.532  0.00  0.00    +0.000 A 
ATOM     18  C   UNL     1       7.454   5.918  19.026  0.00  0.00    +0.000 A 
ATOM     19  C   UNL     1       7.658   5.969  17.651  0.00  0.00    +0.000 A 
ATOM     20  C   UNL     1       6.661   5.524  16.782  0.00  0.00    +0.000 A 
ATOM     21  C   UNL     1       5.441   5.042  17.272  0.00  0.00    +0.000 A 
BRANCH  21  22
ATOM     22  O   UNL     1       4.607   4.585  16.286  0.00  0.00    +0.000 OA
ATOM     23  C   UNL     1       5.143   4.423  14.982  0.00  0.00    +0.000 C 
ENDBRANCH  21  22
ENDBRANCH   7  16
TORSDOF 4
ENDMDL
MODEL 6
REMARK VINA RESULT:      -7.0      6.906      9.007
REMARK  Name = 
REMARK  6 active torsions:
REMARK  status: ('A' for Active; 'I' for Inactive)
REMARK    1  A    between atoms: C_1  and  O_2
REMARK    2  A    between atoms: O_2  and  C_3
REMARK    3  A    between atoms: C_8  and  N_9
REMARK    4  A    between atoms: N_15  and  C_16
REMARK    5  A    between atoms: C_21  and  O_22
REMARK    6  A    between atoms: O_22  and  C_23
REMARK                            x       y       z     vdW  Elec       q    Type
REMARK                         _______ _______ _______ _____ _____    ______ ____
ROOT
ATOM      1  N   UNL     1      -1.468  11.040  18.938  0.00  0.00    +0.000 NA
ATOM      2  C   UNL     1      -0.658  12.025  19.161  0.00  0.00    +0.000 C 
ATOM      3  S   UNL     1      -0.452  13.498  18.237  0.00  0.00    +0.000 S 
ATOM      4  C   UNL     1       1.111  13.894  19.036  0.00  0.00    +0.000 C 
ATOM      5  C   UNL     1       1.240  12.951  20.201  0.00  0.00    +0.000 C 
ATOM      6  O   UNL     1       2.223  12.961  20.937  0.00  0.00    +0.000 OA
ATOM      7  N   UNL     1       0.177  12.068  20.254  0.00  0.00    +0.000 N 
ENDROOT
BRANCH   1  13
ATOM      8  C   UNL     1      -3.598  11.484  17.755  0.00  0.00    +0.000 A 
ATOM      9  C   UNL     1      -4.402  11.293  16.621  0.00  0.00    +0.000 A 
ATOM     10  C   UNL     1      -3.945  10.572  15.520  0.00  0.00    +0.000 A 
ATOM     11  C   UNL     1      -2.697   9.977  15.571  0.00  0.00    +0.000 A 
ATOM     12  C   UNL     1      -1.909  10.121  16.715  0.00  0.00    +0.000 A 
ATOM     13  C   UNL     1      -2.295  10.929  17.804  0.00  0.00    +0.000 A 
BRANCH   8  15
ATOM     14  C   UNL     1      -5.642  11.829  18.939  0.00  0.00    +0.000 C 
ATOM     15  O   UNL     1      -4.272  12.136  18.758  0.00  0.00    +0.000 OA
ENDBRANCH   8  15
ENDBRANCH   1  13
BRANCH   7  16
ATOM     16  C   UNL     1       0.061  11.148  21.317  0.00  0.00    +0.000 A 
ATOM     17  C   UNL     1       0.922  10.039  21.335  0.00  0.00    +0.000 A 
ATOM     18  C   UNL     1       0.855   9.110  22.374  0.00  0.00    +0.000 A 
ATOM     19  C   UNL     1      -0.073   9.279  23.397  0.00  0.00    +0.000 A 
ATOM     20  C   UNL     1      -0.921  10.388  23.391  0.00  0.00    +0.000 A 
ATOM     21  C   UNL     1      -0.868  11.330  22.357  0.00  0.00    +0.000 A 
BRANCH  21  22
ATOM     22  O   UNL     1      -1.721  12.386  22.546  0.00  0.00    +0.000 OA
ATOM     23  C   UNL     1      -1.216  13.542  23.197  0.00  0.00    +0.000 C 
ENDBRANCH  21  22
ENDBRANCH   7  16
TORSDOF 4
ENDMDL
MODEL 7
REMARK VINA RESULT:      -6.8      2.836      4.783
REMARK  Name = 
REMARK  6 active torsions:
REMARK  status: ('A' for Active; 'I' for Inactive)
REMARK    1  A    between atoms: C_1  and  O_2
REMARK    2  A    between atoms: O_2  and  C_3
REMARK    3  A    between atoms: C_8  and  N_9
REMARK    4  A    between atoms: N_15  and  C_16
REMARK    5  A    between atoms: C_21  and  O_22
REMARK    6  A    between atoms: O_22  and  C_23
REMARK                            x       y       z     vdW  Elec       q    Type
REMARK                         _______ _______ _______ _____ _____    ______ ____
ROOT
ATOM      1  N   UNL     1       4.799   5.298  18.930  0.00  0.00    +0.000 NA
ATOM      2  C   UNL     1       5.080   4.971  17.710  0.00  0.00    +0.000 C 
ATOM      3  S   UNL     1       4.182   3.929  16.626  0.00  0.00    +0.000 S 
ATOM      4  C   UNL     1       5.565   3.764  15.485  0.00  0.00    +0.000 C 
ATOM      5  C   UNL     1       6.586   4.785  15.910  0.00  0.00    +0.000 C 
ATOM      6  O   UNL     1       7.662   4.904  15.331  0.00  0.00    +0.000 OA
ATOM      7  N   UNL     1       6.176   5.467  17.040  0.00  0.00    +0.000 N 
ENDROOT
BRANCH   1  13
ATOM      8  C   UNL     1       3.724   3.443  20.170  0.00  0.00    +0.000 A 
ATOM      9  C   UNL     1       2.602   2.948  20.852  0.00  0.00    +0.000 A 
ATOM     10  C   UNL     1       1.474   3.738  21.064  0.00  0.00    +0.000 A 
ATOM     11  C   UNL     1       1.435   5.017  20.536  0.00  0.00    +0.000 A 
ATOM     12  C   UNL     1       2.528   5.502  19.816  0.00  0.00    +0.000 A 
ATOM     13  C   UNL     1       3.724   4.770  19.670  0.00  0.00    +0.000 A 
BRANCH   8  15
ATOM     14  C   UNL     1       4.319   1.326  19.240  0.00  0.00    +0.000 C 
ATOM     15  O   UNL     1       4.680   2.475  19.985  0.00  0.00    +0.000 OA
ENDBRANCH   8  15
ENDBRANCH   1  13
BRANCH   7  16
ATOM     16  C   UNL     1       6.951   6.524  17.561  0.00  0.00    +0.000 A 
ATOM     17  C   UNL     1       6.756   7.812  17.039  0.00  0.00    +0.000 A 
ATOM     18  C   UNL     1       7.488   8.893  17.532  0.00  0.00    +0.000 A 
ATOM     19  C   UNL     1       8.420   8.694  18.546  0.00  0.00    +0.000 A 
ATOM     20  C   UNL     1       8.607   7.418  19.079  0.00  0.00    +0.000 A 
ATOM     21  C   UNL     1       7.881   6.322  18.596  0.00  0.00    +0.000 A 
BRANCH  21  22
ATOM     22  O   UNL     1       8.140   5.162  19.278  0.00  0.00    +0.000 OA
ATOM     23  C   UNL     1       8.371   5.247  20.675  0.00  0.00    +0.000 C 
ENDBRANCH  21  22
ENDBRANCH   7  16
TORSDOF 4
ENDMDL
MODEL 8
REMARK VINA RESULT:      -6.8      2.262      4.171
REMARK  Name = 
REMARK  6 active torsions:
REMARK  status: ('A' for Active; 'I' for Inactive)
REMARK    1  A    between atoms: C_1  and  O_2
REMARK    2  A    between atoms: O_2  and  C_3
REMARK    3  A    between atoms: C_8  and  N_9
REMARK    4  A    between atoms: N_15  and  C_16
REMARK    5  A    between atoms: C_21  and  O_22
REMARK    6  A    between atoms: O_22  and  C_23
REMARK                            x       y       z     vdW  Elec       q    Type
REMARK                         _______ _______ _______ _____ _____    ______ ____
ROOT
ATOM      1  N   UNL     1       4.756   5.272  18.850  0.00  0.00    +0.000 NA
ATOM      2  C   UNL     1       5.086   4.926  17.647  0.00  0.00    +0.000 C 
ATOM      3  S   UNL     1       4.230   3.869  16.544  0.00  0.00    +0.000 S 
ATOM      4  C   UNL     1       5.657   3.684  15.462  0.00  0.00    +0.000 C 
ATOM      5  C   UNL     1       6.662   4.710  15.912  0.00  0.00    +0.000 C 
ATOM      6  O   UNL     1       7.761   4.819  15.375  0.00  0.00    +0.000 OA
ATOM      7  N   UNL     1       6.208   5.410  17.015  0.00  0.00    +0.000 N 
ENDROOT
BRANCH   1  13
ATOM      8  C   UNL     1       2.486   5.523  19.808  0.00  0.00    +0.000 A 
ATOM      9  C   UNL     1       1.437   4.979  20.565  0.00  0.00    +0.000 A 
ATOM     10  C   UNL     1       1.504   3.684  21.074  0.00  0.00    +0.000 A 
ATOM     11  C   UNL     1       2.656   2.940  20.883  0.00  0.00    +0.000 A 
ATOM     12  C   UNL     1       3.724   3.491  20.171  0.00  0.00    +0.000 A 
ATOM     13  C   UNL     1       3.651   4.756  19.554  0.00  0.00    +0.000 A 
BRANCH   8  15
ATOM     14  C   UNL     1       1.726   7.679  20.495  0.00  0.00    +0.000 C 
ATOM     15  O   UNL     1       2.259   6.838  19.488  0.00  0.00    +0.000 OA
ENDBRANCH   8  15
ENDBRANCH   1  13
BRANCH   7  16
ATOM     16  C   UNL     1       6.963   6.474  17.550  0.00  0.00    +0.000 A 
ATOM     17  C   UNL     1       6.758   7.763  17.032  0.00  0.00    +0.000 A 
ATOM     18  C   UNL     1       7.471   8.850  17.539  0.00  0.00    +0.000 A 
ATOM     19  C   UNL     1       8.393   8.657  18.563  0.00  0.00    +0.000 A 
ATOM     20  C   UNL     1       8.590   7.381  19.092  0.00  0.00    +0.000 A 
ATOM     21  C   UNL     1       7.884   6.278  18.595  0.00  0.00    +0.000 A 
BRANCH  21  22
ATOM     22  O   UNL     1       8.149   5.118  19.274  0.00  0.00    +0.000 OA
ATOM     23  C   UNL     1       8.410   5.205  20.666  0.00  0.00    +0.000 C 
ENDBRANCH  21  22
ENDBRANCH   7  16
TORSDOF 4
ENDMDL
MODEL 9
REMARK VINA RESULT:      -6.7      2.152      6.164
REMARK  Name = 
REMARK  6 active torsions:
REMARK  status: ('A' for Active; 'I' for Inactive)
REMARK    1  A    between atoms: C_1  and  O_2
REMARK    2  A    between atoms: O_2  and  C_3
REMARK    3  A    between atoms: C_8  and  N_9
REMARK    4  A    between atoms: N_15  and  C_16
REMARK    5  A    between atoms: C_21  and  O_22
REMARK    6  A    between atoms: O_22  and  C_23
REMARK                            x       y       z     vdW  Elec       q    Type
REMARK                         _______ _______ _______ _____ _____    ______ ____
ROOT
ATOM      1  N   UNL     1       4.242   4.888  17.968  0.00  0.00    +0.000 NA
ATOM      2  C   UNL     1       3.473   5.899  18.219  0.00  0.00    +0.000 C 
ATOM      3  S   UNL     1       3.372   7.427  17.370  0.00  0.00    +0.000 S 
ATOM      4  C   UNL     1       2.457   8.217  18.704  0.00  0.00    +0.000 C 
ATOM      5  C   UNL     1       2.050   7.116  19.646  0.00  0.00    +0.000 C 
ATOM      6  O   UNL     1       1.423   7.344  20.676  0.00  0.00    +0.000 OA
ATOM      7  N   UNL     1       2.539   5.892  19.230  0.00  0.00    +0.000 N 
ENDROOT
BRANCH   1  13
ATOM      8  C   UNL     1       6.487   5.546  17.155  0.00  0.00    +0.000 A 
ATOM      9  C   UNL     1       7.433   5.549  16.119  0.00  0.00    +0.000 A 
ATOM     10  C   UNL     1       7.192   4.896  14.913  0.00  0.00    +0.000 A 
ATOM     11  C   UNL     1       5.968   4.283  14.708  0.00  0.00    +0.000 A 
ATOM     12  C   UNL     1       5.002   4.315  15.716  0.00  0.00    +0.000 A 
ATOM     13  C   UNL     1       5.249   4.876  16.985  0.00  0.00    +0.000 A 
BRANCH   8  15
ATOM     14  C   UNL     1       7.757   5.752  19.166  0.00  0.00    +0.000 C 
ATOM     15  O   UNL     1       6.881   6.327  18.213  0.00  0.00    +0.000 OA
ENDBRANCH   8  15
ENDBRANCH   1  13
BRANCH   7  16
ATOM     16  C   UNL     1       2.207   4.712  19.927  0.00  0.00    +0.000 A 
ATOM     17  C   UNL     1       2.489   4.647  21.300  0.00  0.00    +0.000 A 
ATOM     18  C   UNL     1       2.165   3.507  22.036  0.00  0.00    +0.000 A 
ATOM     19  C   UNL     1       1.561   2.424  21.405  0.00  0.00    +0.000 A 
ATOM     20  C   UNL     1       1.265   2.488  20.043  0.00  0.00    +0.000 A 
ATOM     21  C   UNL     1       1.583   3.624  19.289  0.00  0.00    +0.000 A 
BRANCH  21  22
ATOM     22  O   UNL     1       1.161   3.543  17.988  0.00  0.00    +0.000 OA
ATOM     23  C   UNL     1       1.935   2.772  17.082  0.00  0.00    +0.000 C 
ENDBRANCH  21  22
ENDBRANCH   7  16
TORSDOF 4
ENDMDL
