MODEL 1
REMARK VINA RESULT:      -7.6      0.000      0.000
REMARK  Name = 
REMARK  7 active torsions:
REMARK  status: ('A' for Active; 'I' for Inactive)
REMARK    1  A    between atoms: C_1  and  C_2
REMARK    2  A    between atoms: C_3  and  C_4
REMARK    3  A    between atoms: N_6  and  C_7
REMARK    4  A    between atoms: C_7  and  C_8
REMARK    5  A    between atoms: C_8  and  C_9
REMARK    6  A    between atoms: C_9  and  C_10
REMARK    7  A    between atoms: C_19  and  N_20
REMARK                            x       y       z     vdW  Elec       q    Type
REMARK                         _______ _______ _______ _____ _____    ______ ____
ROOT
ATOM      1  C   UNL     1       7.587   5.843  18.311  0.00  0.00    +0.000 C 
ATOM      2  O   UNL     1       8.225   5.320  19.222  0.00  0.00    +0.000 OA
ATOM      3  N   UNL     1       7.711   7.172  17.973  0.00  0.00    +0.000 N 
ATOM      4  H   UNL     1       6.952   7.580  17.440  0.00  0.00    +0.000 HD
ENDROOT
BRANCH   1   7
ATOM      5  C   UNL     1       4.754   5.103  19.379  0.00  0.00    +0.000 C 
ATOM      6  C   UNL     1       5.291   4.683  18.035  0.00  0.00    +0.000 A 
ATOM      7  C   UNL     1       6.575   5.033  17.562  0.00  0.00    +0.000 A 
ATOM      8  C   UNL     1       6.970   4.656  16.257  0.00  0.00    +0.000 A 
ATOM      9  C   UNL     1       6.128   3.929  15.416  0.00  0.00    +0.000 A 
ATOM     10  C   UNL     1       4.873   3.550  15.871  0.00  0.00    +0.000 A 
ATOM     11  C   UNL     1       4.478   3.916  17.165  0.00  0.00    +0.000 A 
BRANCH  11  12
ATOM     12  N   UNL     1       3.158   3.468  17.588  0.00  0.00    +0.000 N 
ATOM     13  O   UNL     1       3.082   2.345  18.103  0.00  0.00    +0.000 OA
ATOM     14  O   UNL     1       2.210   4.238  17.388  0.00  0.00    +0.000 OA
ENDBRANCH  11  12
ENDBRANCH   1   7
BRANCH   3  15
ATOM     15  C   UNL     1       8.524   8.096  18.735  0.00  0.00    +0.000 C 
BRANCH  15  16
ATOM     16  C   UNL     1       8.553   9.552  18.240  0.00  0.00    +0.000 C 
BRANCH  16  17
ATOM     17  C   UNL     1       9.197  10.402  19.343  0.00  0.00    +0.000 C 
BRANCH  17  18
ATOM     18  C   UNL     1      10.362  11.306  19.020  0.00  0.00    +0.000 A 
ATOM     19  C   UNL     1      10.464  11.785  17.701  0.00  0.00    +0.000 A 
ATOM     20  C   UNL     1      11.440  12.714  17.337  0.00  0.00    +0.000 A 
ATOM     21  C   UNL     1      12.330  13.190  18.295  0.00  0.00    +0.000 A 
ATOM     22  C   UNL     1      12.240  12.733  19.608  0.00  0.00    +0.000 A 
ATOM     23  C   UNL     1      11.260  11.799  19.975  0.00  0.00    +0.000 A 
ENDBRANCH  17  18
ENDBRANCH  16  17
ENDBRANCH  15  16
ENDBRANCH   3  15
TORSDOF 6
ENDMDL
MODEL 2
REMARK VINA RESULT:      -7.6      4.575      6.804
REMARK  Name = 
REMARK  7 active torsions:
REMARK  status: ('A' for Active; 'I' for Inactive)
REMARK    1  A    between atoms: C_1  and  C_2
REMARK    2  A    between atoms: C_3  and  C_4
REMARK    3  A    between atoms: N_6  and  C_7
REMARK    4  A    between atoms: C_7  and  C_8
REMARK    5  A    between atoms: C_8  and  C_9
REMARK    6  A    between atoms: C_9  and  C_10
REMARK    7  A    between atoms: C_19  and  N_20
REMARK                            x       y       z     vdW  Elec       q    Type
REMARK                         _______ _______ _______ _____ _____    ______ ____
ROOT
ATOM      1  C   UNL     1       4.141   6.413  17.935  0.00  0.00    +0.000 C 
ATOM      2  O   UNL     1       3.780   7.214  17.075  0.00  0.00    +0.000 OA
ATOM      3  N   UNL     1       5.465   6.153  18.211  0.00  0.00    +0.000 N 
ATOM      4  H   UNL     1       5.668   5.286  18.695  0.00  0.00    +0.000 HD
ENDROOT
BRANCH   1   7
ATOM      5  C   UNL     1       3.338   3.470  17.297  0.00  0.00    +0.000 C 
ATOM      6  C   UNL     1       2.733   4.294  18.404  0.00  0.00    +0.000 A 
ATOM      7  C   UNL     1       3.113   5.626  18.685  0.00  0.00    +0.000 A 
ATOM      8  C   UNL     1       2.544   6.300  19.790  0.00  0.00    +0.000 A 
ATOM      9  C   UNL     1       1.596   5.692  20.613  0.00  0.00    +0.000 A 
ATOM     10  C   UNL     1       1.187   4.395  20.338  0.00  0.00    +0.000 A 
ATOM     11  C   UNL     1       1.744   3.723  19.242  0.00  0.00    +0.000 A 
BRANCH  11  12
ATOM     12  N   UNL     1       1.255   2.373  18.996  0.00  0.00    +0.000 N 
ATOM     13  O   UNL     1       0.222   2.261  18.322  0.00  0.00    +0.000 OA
ATOM     14  O   UNL     1       1.901   1.440  19.491  0.00  0.00    +0.000 OA
ENDBRANCH  11  12
ENDBRANCH   1   7
BRANCH   3  15
ATOM     15  C   UNL     1       6.548   6.719  17.435  0.00  0.00    +0.000 C 
BRANCH  15  16
ATOM     16  C   UNL     1       7.448   5.722  16.686  0.00  0.00    +0.000 C 
BRANCH  16  17
ATOM     17  C   UNL     1       6.533   4.706  15.990  0.00  0.00    +0.000 C 
BRANCH  17  18
ATOM     18  C   UNL     1       6.593   4.536  14.491  0.00  0.00    +0.000 A 
ATOM     19  C   UNL     1       7.559   5.283  13.792  0.00  0.00    +0.000 A 
ATOM     20  C   UNL     1       7.765   5.107  12.423  0.00  0.00    +0.000 A 
ATOM     21  C   UNL     1       7.011   4.168  11.727  0.00  0.00    +0.000 A 
ATOM     22  C   UNL     1       6.054   3.413  12.403  0.00  0.00    +0.000 A 
ATOM     23  C   UNL     1       5.846   3.589  13.780  0.00  0.00    +0.000 A 
ENDBRANCH  17  18
ENDBRANCH  16  17
ENDBRANCH  15  16
ENDBRANCH   3  15
TORSDOF 6
ENDMDL
MODEL 3
REMARK VINA RESULT:      -7.5      2.145      2.742
REMARK  Name = 
REMARK  7 active torsions:
REMARK  status: ('A' for Active; 'I' for Inactive)
REMARK    1  A    between atoms: C_1  and  C_2
REMARK    2  A    between atoms: C_3  and  C_4
REMARK    3  A    between atoms: N_6  and  C_7
REMARK    4  A    between atoms: C_7  and  C_8
REMARK    5  A    between atoms: C_8  and  C_9
REMARK    6  A    between atoms: C_9  and  C_10
REMARK    7  A    between atoms: C_19  and  N_20
REMARK                            x       y       z     vdW  Elec       q    Type
REMARK                         _______ _______ _______ _____ _____    ______ ____
ROOT
ATOM      1  C   UNL     1       4.956   6.229  17.603  0.00  0.00    +0.000 C 
ATOM      2  O   UNL     1       4.381   7.048  16.889  0.00  0.00    +0.000 OA
ATOM      3  N   UNL     1       6.296   6.310  17.911  0.00  0.00    +0.000 N 
ATOM      4  H   UNL     1       6.742   5.460  18.233  0.00  0.00    +0.000 HD
ENDROOT
BRANCH   1   7
ATOM      5  C   UNL     1       2.833   6.326  19.883  0.00  0.00    +0.000 C 
ATOM      6  C   UNL     1       3.242   5.071  19.157  0.00  0.00    +0.000 A 
ATOM      7  C   UNL     1       4.201   5.044  18.120  0.00  0.00    +0.000 A 
ATOM      8  C   UNL     1       4.471   3.832  17.443  0.00  0.00    +0.000 A 
ATOM      9  C   UNL     1       3.824   2.643  17.779  0.00  0.00    +0.000 A 
ATOM     10  C   UNL     1       2.899   2.640  18.814  0.00  0.00    +0.000 A 
ATOM     11  C   UNL     1       2.631   3.837  19.491  0.00  0.00    +0.000 A 
BRANCH  11  12
ATOM     12  N   UNL     1       1.667   3.760  20.581  0.00  0.00    +0.000 N 
ATOM     13  O   UNL     1       2.118   3.605  21.723  0.00  0.00    +0.000 OA
ATOM     14  O   UNL     1       0.469   3.841  20.281  0.00  0.00    +0.000 OA
ENDBRANCH  11  12
ENDBRANCH   1   7
BRANCH   3  15
ATOM     15  C   UNL     1       7.168   7.309  17.329  0.00  0.00    +0.000 C 
BRANCH  15  16
ATOM     16  C   UNL     1       8.187   7.964  18.277  0.00  0.00    +0.000 C 
BRANCH  16  17
ATOM     17  C   UNL     1       8.263   9.453  17.916  0.00  0.00    +0.000 C 
BRANCH  17  18
ATOM     18  C   UNL     1       9.232  10.359  18.637  0.00  0.00    +0.000 A 
ATOM     19  C   UNL     1      10.063  11.176  17.850  0.00  0.00    +0.000 A 
ATOM     20  C   UNL     1      10.907  12.126  18.426  0.00  0.00    +0.000 A 
ATOM     21  C   UNL     1      10.928  12.282  19.808  0.00  0.00    +0.000 A 
ATOM     22  C   UNL     1      10.107  11.487  20.605  0.00  0.00    +0.000 A 
ATOM     23  C   UNL     1       9.257  10.532  20.027  0.00  0.00    +0.000 A 
ENDBRANCH  17  18
ENDBRANCH  16  17
ENDBRANCH  15  16
ENDBRANCH   3  15
TORSDOF 6
ENDMDL
MODEL 4
REMARK VINA RESULT:      -7.5      4.661      7.592
REMARK  Name = 
REMARK  7 active torsions:
REMARK  status: ('A' for Active; 'I' for Inactive)
REMARK    1  A    between atoms: C_1  and  C_2
REMARK    2  A    between atoms: C_3  and  C_4
REMARK    3  A    between atoms: N_6  and  C_7
REMARK    4  A    between atoms: C_7  and  C_8
REMARK    5  A    between atoms: C_8  and  C_9
REMARK    6  A    between atoms: C_9  and  C_10
REMARK    7  A    between atoms: C_19  and  N_20
REMARK                            x       y       z     vdW  Elec       q    Type
REMARK                         _______ _______ _______ _____ _____    ______ ____
ROOT
ATOM      1  C   UNL     1       4.097   3.155  17.510  0.00  0.00    +0.000 C 
ATOM      2  O   UNL     1       3.094   2.988  16.820  0.00  0.00    +0.000 OA
ATOM      3  N   UNL     1       4.238   2.624  18.773  0.00  0.00    +0.000 N 
ATOM      4  H   UNL     1       4.933   3.052  19.372  0.00  0.00    +0.000 HD
ENDROOT
BRANCH   1   7
ATOM      5  C   UNL     1       5.441   5.454  19.131  0.00  0.00    +0.000 C 
ATOM      6  C   UNL     1       5.816   5.077  17.722  0.00  0.00    +0.000 A 
ATOM      7  C   UNL     1       5.202   4.028  17.002  0.00  0.00    +0.000 A 
ATOM      8  C   UNL     1       5.668   3.696  15.709  0.00  0.00    +0.000 A 
ATOM      9  C   UNL     1       6.717   4.390  15.105  0.00  0.00    +0.000 A 
ATOM     10  C   UNL     1       7.316   5.443  15.782  0.00  0.00    +0.000 A 
ATOM     11  C   UNL     1       6.856   5.779  17.062  0.00  0.00    +0.000 A 
BRANCH  11  12
ATOM     12  N   UNL     1       7.511   6.908  17.708  0.00  0.00    +0.000 N 
ATOM     13  O   UNL     1       8.183   6.668  18.720  0.00  0.00    +0.000 OA
ATOM     14  O   UNL     1       7.337   8.025  17.204  0.00  0.00    +0.000 OA
ENDBRANCH  11  12
ENDBRANCH   1   7
BRANCH   3  15
ATOM     15  C   UNL     1       3.170   1.912  19.441  0.00  0.00    +0.000 C 
BRANCH  15  16
ATOM     16  C   UNL     1       2.409   2.685  20.532  0.00  0.00    +0.000 C 
BRANCH  16  17
ATOM     17  C   UNL     1       1.330   3.525  19.836  0.00  0.00    +0.000 C 
BRANCH  17  18
ATOM     18  C   UNL     1       1.587   4.980  19.524  0.00  0.00    +0.000 A 
ATOM     19  C   UNL     1       1.711   5.863  20.612  0.00  0.00    +0.000 A 
ATOM     20  C   UNL     1       2.062   7.201  20.427  0.00  0.00    +0.000 A 
ATOM     21  C   UNL     1       2.306   7.679  19.144  0.00  0.00    +0.000 A 
ATOM     22  C   UNL     1       2.195   6.818  18.054  0.00  0.00    +0.000 A 
ATOM     23  C   UNL     1       1.843   5.472  18.238  0.00  0.00    +0.000 A 
ENDBRANCH  17  18
ENDBRANCH  16  17
ENDBRANCH  15  16
ENDBRANCH   3  15
TORSDOF 6
ENDMDL
MODEL 5
REMARK VINA RESULT:      -7.5      0.440      1.067
REMARK  Name = 
REMARK  7 active torsions:
REMARK  status: ('A' for Active; 'I' for Inactive)
REMARK    1  A    between atoms: C_1  and  C_2
REMARK    2  A    between atoms: C_3  and  C_4
REMARK    3  A    between atoms: N_6  and  C_7
REMARK    4  A    between atoms: C_7  and  C_8
REMARK    5  A    between atoms: C_8  and  C_9
REMARK    6  A    between atoms: C_9  and  C_10
REMARK    7  A    between atoms: C_19  and  N_20
REMARK                            x       y       z     vdW  Elec       q    Type
REMARK                         _______ _______ _______ _____ _____    ______ ____
ROOT
ATOM      1  C   UNL     1       7.405   5.783  18.466  0.00  0.00    +0.000 C 
ATOM      2  O   UNL     1       7.733   5.402  19.587  0.00  0.00    +0.000 OA
ATOM      3  N   UNL     1       7.770   7.007  17.952  0.00  0.00    +0.000 N 
ATOM      4  H   UNL     1       7.219   7.360  17.178  0.00  0.00    +0.000 HD
ENDROOT
BRANCH   1   7
ATOM      5  C   UNL     1       4.607   4.727  19.347  0.00  0.00    +0.000 C 
ATOM      6  C   UNL     1       5.246   4.430  18.015  0.00  0.00    +0.000 A 
ATOM      7  C   UNL     1       6.512   4.922  17.627  0.00  0.00    +0.000 A 
ATOM      8  C   UNL     1       7.003   4.653  16.329  0.00  0.00    +0.000 A 
ATOM      9  C   UNL     1       6.276   3.895  15.410  0.00  0.00    +0.000 A 
ATOM     10  C   UNL     1       5.043   3.378  15.780  0.00  0.00    +0.000 A 
ATOM     11  C   UNL     1       4.553   3.637  17.067  0.00  0.00    +0.000 A 
BRANCH  11  12
ATOM     12  N   UNL     1       3.264   3.046  17.398  0.00  0.00    +0.000 N 
ATOM     13  O   UNL     1       3.276   1.932  17.939  0.00  0.00    +0.000 OA
ATOM     14  O   UNL     1       2.253   3.695  17.101  0.00  0.00    +0.000 OA
ENDBRANCH  11  12
ENDBRANCH   1   7
BRANCH   3  15
ATOM     15  C   UNL     1       8.482   7.997  18.732  0.00  0.00    +0.000 C 
BRANCH  15  16
ATOM     16  C   UNL     1       8.480   9.434  18.182  0.00  0.00    +0.000 C 
BRANCH  16  17
ATOM     17  C   UNL     1       9.200  10.322  19.206  0.00  0.00    +0.000 C 
BRANCH  17  18
ATOM     18  C   UNL     1      10.124  11.420  18.739  0.00  0.00    +0.000 A 
ATOM     19  C   UNL     1      11.365  11.543  19.390  0.00  0.00    +0.000 A 
ATOM     20  C   UNL     1      12.330  12.452  18.953  0.00  0.00    +0.000 A 
ATOM     21  C   UNL     1      12.072  13.252  17.844  0.00  0.00    +0.000 A 
ATOM     22  C   UNL     1      10.851  13.140  17.182  0.00  0.00    +0.000 A 
ATOM     23  C   UNL     1       9.880  12.226  17.620  0.00  0.00    +0.000 A 
ENDBRANCH  17  18
ENDBRANCH  16  17
ENDBRANCH  15  16
ENDBRANCH   3  15
TORSDOF 6
ENDMDL
MODEL 6
REMARK VINA RESULT:      -7.5      7.152     10.681
REMARK  Name = 
REMARK  7 active torsions:
REMARK  status: ('A' for Active; 'I' for Inactive)
REMARK    1  A    between atoms: C_1  and  C_2
REMARK    2  A    between atoms: C_3  and  C_4
REMARK    3  A    between atoms: N_6  and  C_7
REMARK    4  A    between atoms: C_7  and  C_8
REMARK    5  A    between atoms: C_8  and  C_9
REMARK    6  A    between atoms: C_9  and  C_10
REMARK    7  A    between atoms: C_19  and  N_20
REMARK                            x       y       z     vdW  Elec       q    Type
REMARK                         _______ _______ _______ _____ _____    ______ ____
ROOT
ATOM      1  C   UNL     1       0.396   9.864  19.148  0.00  0.00    +0.000 C 
ATOM      2  O   UNL     1      -0.382  10.018  18.208  0.00  0.00    +0.000 OA
ATOM      3  N   UNL     1       1.670   9.364  18.994  0.00  0.00    +0.000 N 
ATOM      4  H   UNL     1       2.115   8.989  19.823  0.00  0.00    +0.000 HD
ENDROOT
BRANCH   1   7
ATOM      5  C   UNL     1      -0.585  12.654  20.133  0.00  0.00    +0.000 C 
ATOM      6  C   UNL     1      -0.503  11.427  21.004  0.00  0.00    +0.000 A 
ATOM      7  C   UNL     1      -0.062  10.167  20.540  0.00  0.00    +0.000 A 
ATOM      8  C   UNL     1      -0.086   9.051  21.408  0.00  0.00    +0.000 A 
ATOM      9  C   UNL     1      -0.522   9.157  22.730  0.00  0.00    +0.000 A 
ATOM     10  C   UNL     1      -0.931  10.391  23.214  0.00  0.00    +0.000 A 
ATOM     11  C   UNL     1      -0.906  11.502  22.360  0.00  0.00    +0.000 A 
BRANCH  11  12
ATOM     12  N   UNL     1      -1.327  12.770  22.938  0.00  0.00    +0.000 N 
ATOM     13  O   UNL     1      -0.439  13.512  23.379  0.00  0.00    +0.000 OA
ATOM     14  O   UNL     1      -2.542  13.006  22.957  0.00  0.00    +0.000 OA
ENDBRANCH  11  12
ENDBRANCH   1   7
BRANCH   3  15
ATOM     15  C   UNL     1       2.165   8.871  17.726  0.00  0.00    +0.000 C 
BRANCH  15  16
ATOM     16  C   UNL     1       2.908   7.525  17.757  0.00  0.00    +0.000 C 
BRANCH  16  17
ATOM     17  C   UNL     1       2.641   6.880  19.123  0.00  0.00    +0.000 C 
BRANCH  17  18
ATOM     18  C   UNL     1       2.141   5.458  19.205  0.00  0.00    +0.000 A 
ATOM     19  C   UNL     1       1.716   4.992  20.462  0.00  0.00    +0.000 A 
ATOM     20  C   UNL     1       1.132   3.733  20.613  0.00  0.00    +0.000 A 
ATOM     21  C   UNL     1       0.955   2.918  19.500  0.00  0.00    +0.000 A 
ATOM     22  C   UNL     1       1.363   3.365  18.244  0.00  0.00    +0.000 A 
ATOM     23  C   UNL     1       1.950   4.630  18.092  0.00  0.00    +0.000 A 
ENDBRANCH  17  18
ENDBRANCH  16  17
ENDBRANCH  15  16
ENDBRANCH   3  15
TORSDOF 6
ENDMDL
MODEL 7
REMARK VINA RESULT:      -7.5      4.879      7.291
REMARK  Name = 
REMARK  7 active torsions:
REMARK  status: ('A' for Active; 'I' for Inactive)
REMARK    1  A    between atoms: C_1  and  C_2
REMARK    2  A    between atoms: C_3  and  C_4
REMARK    3  A    between atoms: N_6  and  C_7
REMARK    4  A    between atoms: C_7  and  C_8
REMARK    5  A    between atoms: C_8  and  C_9
REMARK    6  A    between atoms: C_9  and  C_10
REMARK    7  A    between atoms: C_19  and  N_20
REMARK                            x       y       z     vdW  Elec       q    Type
REMARK                         _______ _______ _______ _____ _____    ______ ____
ROOT
ATOM      1  C   UNL     1       3.318   3.580  17.728  0.00  0.00    +0.000 C 
ATOM      2  O   UNL     1       2.344   3.418  16.996  0.00  0.00    +0.000 OA
ATOM      3  N   UNL     1       3.289   3.331  19.082  0.00  0.00    +0.000 N 
ATOM      4  H   UNL     1       4.010   3.772  19.642  0.00  0.00    +0.000 HD
ENDROOT
BRANCH   1   7
ATOM      5  C   UNL     1       5.230   5.547  19.208  0.00  0.00    +0.000 C 
ATOM      6  C   UNL     1       5.458   5.031  17.811  0.00  0.00    +0.000 A 
ATOM      7  C   UNL     1       4.585   4.134  17.156  0.00  0.00    +0.000 A 
ATOM      8  C   UNL     1       4.916   3.644  15.871  0.00  0.00    +0.000 A 
ATOM      9  C   UNL     1       6.082   4.035  15.213  0.00  0.00    +0.000 A 
ATOM     10  C   UNL     1       6.939   4.937  15.826  0.00  0.00    +0.000 A 
ATOM     11  C   UNL     1       6.616   5.430  17.098  0.00  0.00    +0.000 A 
BRANCH  11  12
ATOM     12  N   UNL     1       7.546   6.391  17.674  0.00  0.00    +0.000 N 
ATOM     13  O   UNL     1       7.674   7.474  17.088  0.00  0.00    +0.000 OA
ATOM     14  O   UNL     1       8.150   6.047  18.698  0.00  0.00    +0.000 OA
ENDBRANCH  11  12
ENDBRANCH   1   7
BRANCH   3  15
ATOM     15  C   UNL     1       2.076   2.962  19.780  0.00  0.00    +0.000 C 
BRANCH  15  16
ATOM     16  C   UNL     1       1.113   4.108  20.134  0.00  0.00    +0.000 C 
BRANCH  16  17
ATOM     17  C   UNL     1       1.948   5.243  20.741  0.00  0.00    +0.000 C 
BRANCH  17  18
ATOM     18  C   UNL     1       1.857   6.638  20.172  0.00  0.00    +0.000 A 
ATOM     19  C   UNL     1       2.207   6.811  18.821  0.00  0.00    +0.000 A 
ATOM     20  C   UNL     1       2.045   8.039  18.178  0.00  0.00    +0.000 A 
ATOM     21  C   UNL     1       1.519   9.120  18.878  0.00  0.00    +0.000 A 
ATOM     22  C   UNL     1       1.159   8.967  20.215  0.00  0.00    +0.000 A 
ATOM     23  C   UNL     1       1.321   7.732  20.863  0.00  0.00    +0.000 A 
ENDBRANCH  17  18
ENDBRANCH  16  17
ENDBRANCH  15  16
ENDBRANCH   3  15
TORSDOF 6
ENDMDL
MODEL 8
REMARK VINA RESULT:      -7.5      4.692      7.480
REMARK  Name = 
REMARK  7 active torsions:
REMARK  status: ('A' for Active; 'I' for Inactive)
REMARK    1  A    between atoms: C_1  and  C_2
REMARK    2  A    between atoms: C_3  and  C_4
REMARK    3  A    between atoms: N_6  and  C_7
REMARK    4  A    between atoms: C_7  and  C_8
REMARK    5  A    between atoms: C_8  and  C_9
REMARK    6  A    between atoms: C_9  and  C_10
REMARK    7  A    between atoms: C_19  and  N_20
REMARK                            x       y       z     vdW  Elec       q    Type
REMARK                         _______ _______ _______ _____ _____    ______ ____
ROOT
ATOM      1  C   UNL     1       4.018   3.161  17.609  0.00  0.00    +0.000 C 
ATOM      2  O   UNL     1       3.024   2.953  16.916  0.00  0.00    +0.000 OA
ATOM      3  N   UNL     1       4.143   2.700  18.901  0.00  0.00    +0.000 N 
ATOM      4  H   UNL     1       4.828   3.163  19.486  0.00  0.00    +0.000 HD
ENDROOT
BRANCH   1   7
ATOM      5  C   UNL     1       5.444   5.443  19.183  0.00  0.00    +0.000 C 
ATOM      6  C   UNL     1       5.779   5.051  17.768  0.00  0.00    +0.000 A 
ATOM      7  C   UNL     1       5.127   4.009  17.070  0.00  0.00    +0.000 A 
ATOM      8  C   UNL     1       5.556   3.661  15.768  0.00  0.00    +0.000 A 
ATOM      9  C   UNL     1       6.603   4.330  15.135  0.00  0.00    +0.000 A 
ATOM     10  C   UNL     1       7.238   5.375  15.791  0.00  0.00    +0.000 A 
ATOM     11  C   UNL     1       6.815   5.728  17.079  0.00  0.00    +0.000 A 
BRANCH  11  12
ATOM     12  N   UNL     1       7.508   6.848  17.702  0.00  0.00    +0.000 N 
ATOM     13  O   UNL     1       8.207   6.599  18.693  0.00  0.00    +0.000 OA
ATOM     14  O   UNL     1       7.335   7.967  17.201  0.00  0.00    +0.000 OA
ENDBRANCH  11  12
ENDBRANCH   1   7
BRANCH   3  15
ATOM     15  C   UNL     1       3.068   2.021  19.592  0.00  0.00    +0.000 C 
BRANCH  15  16
ATOM     16  C   UNL     1       2.394   2.796  20.738  0.00  0.00    +0.000 C 
BRANCH  16  17
ATOM     17  C   UNL     1       1.360   3.741  20.112  0.00  0.00    +0.000 C 
BRANCH  17  18
ATOM     18  C   UNL     1       1.727   5.174  19.812  0.00  0.00    +0.000 A 
ATOM     19  C   UNL     1       1.979   5.511  18.469  0.00  0.00    +0.000 A 
ATOM     20  C   UNL     1       2.213   6.831  18.082  0.00  0.00    +0.000 A 
ATOM     21  C   UNL     1       2.190   7.844  19.035  0.00  0.00    +0.000 A 
ATOM     22  C   UNL     1       1.936   7.531  20.369  0.00  0.00    +0.000 A 
ATOM     23  C   UNL     1       1.700   6.204  20.760  0.00  0.00    +0.000 A 
ENDBRANCH  17  18
ENDBRANCH  16  17
ENDBRANCH  15  16
ENDBRANCH   3  15
TORSDOF 6
ENDMDL
MODEL 9
REMARK VINA RESULT:      -7.4      5.040      7.316
REMARK  Name = 
REMARK  7 active torsions:
REMARK  status: ('A' for Active; 'I' for Inactive)
REMARK    1  A    between atoms: C_1  and  C_2
REMARK    2  A    between atoms: C_3  and  C_4
REMARK    3  A    between atoms: N_6  and  C_7
REMARK    4  A    between atoms: C_7  and  C_8
REMARK    5  A    between atoms: C_8  and  C_9
REMARK    6  A    between atoms: C_9  and  C_10
REMARK    7  A    between atoms: C_19  and  N_20
REMARK                            x       y       z     vdW  Elec       q    Type
REMARK                         _______ _______ _______ _____ _____    ______ ____
ROOT
ATOM      1  C   UNL     1       3.159   3.504  17.759  0.00  0.00    +0.000 C 
ATOM      2  O   UNL     1       2.239   3.497  16.943  0.00  0.00    +0.000 OA
ATOM      3  N   UNL     1       2.990   3.169  19.084  0.00  0.00    +0.000 N 
ATOM      4  H   UNL     1       3.701   3.491  19.730  0.00  0.00    +0.000 HD
ENDROOT
BRANCH   1   7
ATOM      5  C   UNL     1       5.221   4.941  19.603  0.00  0.00    +0.000 C 
ATOM      6  C   UNL     1       5.462   4.614  18.152  0.00  0.00    +0.000 A 
ATOM      7  C   UNL     1       4.520   3.956  17.330  0.00  0.00    +0.000 A 
ATOM      8  C   UNL     1       4.859   3.624  15.998  0.00  0.00    +0.000 A 
ATOM      9  C   UNL     1       6.104   3.943  15.456  0.00  0.00    +0.000 A 
ATOM     10  C   UNL     1       7.034   4.615  16.235  0.00  0.00    +0.000 A 
ATOM     11  C   UNL     1       6.702   4.951  17.555  0.00  0.00    +0.000 A 
BRANCH  11  12
ATOM     12  N   UNL     1       7.715   5.676  18.311  0.00  0.00    +0.000 N 
ATOM     13  O   UNL     1       8.381   5.027  19.128  0.00  0.00    +0.000 OA
ATOM     14  O   UNL     1       7.823   6.889  18.089  0.00  0.00    +0.000 OA
ENDBRANCH  11  12
ENDBRANCH   1   7
BRANCH   3  15
ATOM     15  C   UNL     1       1.690   2.886  19.655  0.00  0.00    +0.000 C 
BRANCH  15  16
ATOM     16  C   UNL     1       1.004   4.042  20.403  0.00  0.00    +0.000 C 
BRANCH  16  17
ATOM     17  C   UNL     1       2.051   5.143  20.613  0.00  0.00    +0.000 C 
BRANCH  17  18
ATOM     18  C   UNL     1       1.864   6.498  19.974  0.00  0.00    +0.000 A 
ATOM     19  C   UNL     1       1.321   7.521  20.773  0.00  0.00    +0.000 A 
ATOM     20  C   UNL     1       1.217   8.832  20.305  0.00  0.00    +0.000 A 
ATOM     21  C   UNL     1       1.666   9.146  19.026  0.00  0.00    +0.000 A 
ATOM     22  C   UNL     1       2.213   8.148  18.223  0.00  0.00    +0.000 A 
ATOM     23  C   UNL     1       2.318   6.829  18.691  0.00  0.00    +0.000 A 
ENDBRANCH  17  18
ENDBRANCH  16  17
ENDBRANCH  15  16
ENDBRANCH   3  15
TORSDOF 6
ENDMDL
