MODEL 1
REMARK VINA RESULT:      -8.7      0.000      0.000
REMARK  Name = 
REMARK  2 active torsions:
REMARK  status: ('A' for Active; 'I' for Inactive)
REMARK    1  A    between atoms: C_2  and  C_22
REMARK    2  A    between atoms: C_10  and  C_11
REMARK                            x       y       z     vdW  Elec       q    Type
REMARK                         _______ _______ _______ _____ _____    ______ ____
ROOT
ATOM      1  O   UNL     1       0.533   9.916  23.056  0.00  0.00    +0.000 OA
ATOM      2  C   UNL     1      -0.284  10.445  22.316  0.00  0.00    +0.000 C 
ATOM      3  N   UNL     1      -0.267  10.417  20.946  0.00  0.00    +0.000 N 
ATOM      4  C   UNL     1       0.633   9.680  20.179  0.00  0.00    +0.000 A 
ATOM      5  C   UNL     1       1.087   8.422  20.557  0.00  0.00    +0.000 A 
ATOM      6  C   UNL     1       1.926   7.698  19.676  0.00  0.00    +0.000 A 
ATOM      7  C   UNL     1       2.401   6.388  19.856  0.00  0.00    +0.000 A 
ATOM      8 CL   UNL     1       1.938   5.409  21.198  0.00  0.00    +0.000 Cl
ATOM      9  N   UNL     1       3.208   5.721  18.992  0.00  0.00    +0.000 NA
ATOM     10  C   UNL     1       3.601   6.356  17.863  0.00  0.00    +0.000 A 
ATOM     11  C   UNL     1       3.149   7.640  17.575  0.00  0.00    +0.000 A 
ATOM     12  C   UNL     1       2.319   8.314  18.483  0.00  0.00    +0.000 A 
ATOM     13  C   UNL     1       1.832   9.593  18.222  0.00  0.00    +0.000 A 
ATOM     14  N   UNL     1       0.961  10.257  19.011  0.00  0.00    +0.000 NA
ATOM     15  H   UNL     1      -0.726  11.162  20.442  0.00  0.00    +0.000 HD
ENDROOT
BRANCH  10  16
ATOM     16  C   UNL     1       4.438   5.551  16.932  0.00  0.00    +0.000 A 
ATOM     17  C   UNL     1       5.429   6.219  16.176  0.00  0.00    +0.000 A 
ATOM     18  C   UNL     1       6.278   5.536  15.295  0.00  0.00    +0.000 A 
ATOM     19  C   UNL     1       6.174   4.159  15.163  0.00  0.00    +0.000 A 
ATOM     20  C   UNL     1       5.202   3.470  15.884  0.00  0.00    +0.000 A 
ATOM     21  C   UNL     1       4.334   4.159  16.752  0.00  0.00    +0.000 A 
ATOM     22 CL   UNL     1       3.119   3.183  17.513  0.00  0.00    +0.000 Cl
ENDBRANCH  10  16
BRANCH   2  23
ATOM     23  C   UNL     1      -1.405  11.255  22.870  0.00  0.00    +0.000 C 
ATOM     24  C   UNL     1      -1.223  12.742  23.077  0.00  0.00    +0.000 C 
ATOM     25  C   UNL     1      -2.156  12.245  22.012  0.00  0.00    +0.000 C 
ENDBRANCH   2  23
TORSDOF 2
ENDMDL
MODEL 2
REMARK VINA RESULT:      -8.6      1.226      1.528
REMARK  Name = 
REMARK  2 active torsions:
REMARK  status: ('A' for Active; 'I' for Inactive)
REMARK    1  A    between atoms: C_2  and  C_22
REMARK    2  A    between atoms: C_10  and  C_11
REMARK                            x       y       z     vdW  Elec       q    Type
REMARK                         _______ _______ _______ _____ _____    ______ ____
ROOT
ATOM      1  O   UNL     1       0.554   9.867  22.810  0.00  0.00    +0.000 OA
ATOM      2  C   UNL     1      -0.253  10.352  22.029  0.00  0.00    +0.000 C 
ATOM      3  N   UNL     1      -0.179  10.305  20.663  0.00  0.00    +0.000 N 
ATOM      4  C   UNL     1       0.780   9.594  19.944  0.00  0.00    +0.000 A 
ATOM      5  C   UNL     1       1.268   8.361  20.360  0.00  0.00    +0.000 A 
ATOM      6  C   UNL     1       2.170   7.659  19.525  0.00  0.00    +0.000 A 
ATOM      7  C   UNL     1       2.688   6.371  19.744  0.00  0.00    +0.000 A 
ATOM      8 CL   UNL     1       2.210   5.395  21.083  0.00  0.00    +0.000 Cl
ATOM      9  N   UNL     1       3.556   5.726  18.925  0.00  0.00    +0.000 NA
ATOM     10  C   UNL     1       3.969   6.359  17.802  0.00  0.00    +0.000 A 
ATOM     11  C   UNL     1       3.478   7.620  17.476  0.00  0.00    +0.000 A 
ATOM     12  C   UNL     1       2.586   8.273  18.339  0.00  0.00    +0.000 A 
ATOM     13  C   UNL     1       2.060   9.527  18.038  0.00  0.00    +0.000 A 
ATOM     14  N   UNL     1       1.132  10.167  18.780  0.00  0.00    +0.000 NA
ATOM     15  H   UNL     1      -0.646  11.024  20.128  0.00  0.00    +0.000 HD
ENDROOT
BRANCH  10  16
ATOM     16  C   UNL     1       4.874   5.575  16.919  0.00  0.00    +0.000 A 
ATOM     17  C   UNL     1       4.368   4.398  16.319  0.00  0.00    +0.000 A 
ATOM     18  C   UNL     1       5.143   3.614  15.453  0.00  0.00    +0.000 A 
ATOM     19  C   UNL     1       6.439   3.998  15.145  0.00  0.00    +0.000 A 
ATOM     20  C   UNL     1       6.973   5.146  15.725  0.00  0.00    +0.000 A 
ATOM     21  C   UNL     1       6.203   5.922  16.612  0.00  0.00    +0.000 A 
ATOM     22 CL   UNL     1       7.030   7.270  17.325  0.00  0.00    +0.000 Cl
ENDBRANCH  10  16
BRANCH   2  23
ATOM     23  C   UNL     1      -1.427  11.125  22.526  0.00  0.00    +0.000 C 
ATOM     24  C   UNL     1      -1.239  12.547  23.003  0.00  0.00    +0.000 C 
ATOM     25  C   UNL     1      -1.996  12.279  21.736  0.00  0.00    +0.000 C 
ENDBRANCH   2  23
TORSDOF 2
ENDMDL
MODEL 3
REMARK VINA RESULT:      -7.8      2.391      3.899
REMARK  Name = 
REMARK  2 active torsions:
REMARK  status: ('A' for Active; 'I' for Inactive)
REMARK    1  A    between atoms: C_2  and  C_22
REMARK    2  A    between atoms: C_10  and  C_11
REMARK                            x       y       z     vdW  Elec       q    Type
REMARK                         _______ _______ _______ _____ _____    ______ ____
ROOT
ATOM      1  O   UNL     1      -3.202  12.718  21.898  0.00  0.00    +0.000 OA
ATOM      2  C   UNL     1      -2.615  12.937  22.949  0.00  0.00    +0.000 C 
ATOM      3  N   UNL     1      -1.533  12.245  23.425  0.00  0.00    +0.000 N 
ATOM      4  C   UNL     1      -0.860  11.245  22.726  0.00  0.00    +0.000 A 
ATOM      5  C   UNL     1      -0.662  11.294  21.351  0.00  0.00    +0.000 A 
ATOM      6  C   UNL     1       0.114  10.286  20.729  0.00  0.00    +0.000 A 
ATOM      7  C   UNL     1       0.488  10.229  19.376  0.00  0.00    +0.000 A 
ATOM      8 CL   UNL     1       0.101  11.480  18.254  0.00  0.00    +0.000 Cl
ATOM      9  N   UNL     1       1.232   9.246  18.809  0.00  0.00    +0.000 NA
ATOM     10  C   UNL     1       1.653   8.228  19.595  0.00  0.00    +0.000 A 
ATOM     11  C   UNL     1       1.371   8.217  20.957  0.00  0.00    +0.000 A 
ATOM     12  C   UNL     1       0.596   9.240  21.523  0.00  0.00    +0.000 A 
ATOM     13  C   UNL     1       0.307   9.273  22.886  0.00  0.00    +0.000 A 
ATOM     14  N   UNL     1      -0.355  10.273  23.505  0.00  0.00    +0.000 NA
ATOM     15  H   UNL     1      -1.365  12.236  24.421  0.00  0.00    +0.000 HD
ENDROOT
BRANCH  10  16
ATOM     16  C   UNL     1       2.512   7.213  18.925  0.00  0.00    +0.000 A 
ATOM     17  C   UNL     1       3.318   7.630  17.840  0.00  0.00    +0.000 A 
ATOM     18  C   UNL     1       4.175   6.747  17.169  0.00  0.00    +0.000 A 
ATOM     19  C   UNL     1       4.266   5.426  17.580  0.00  0.00    +0.000 A 
ATOM     20  C   UNL     1       3.480   4.978  18.639  0.00  0.00    +0.000 A 
ATOM     21  C   UNL     1       2.602   5.859  19.299  0.00  0.00    +0.000 A 
ATOM     22 CL   UNL     1       1.623   5.139  20.536  0.00  0.00    +0.000 Cl
ENDBRANCH  10  16
BRANCH   2  23
ATOM     23  C   UNL     1      -3.083  14.003  23.879  0.00  0.00    +0.000 C 
ATOM     24  C   UNL     1      -2.926  15.456  23.492  0.00  0.00    +0.000 C 
ATOM     25  C   UNL     1      -4.294  14.845  23.558  0.00  0.00    +0.000 C 
ENDBRANCH   2  23
TORSDOF 2
ENDMDL
MODEL 4
REMARK VINA RESULT:      -7.7      2.747      8.398
REMARK  Name = 
REMARK  2 active torsions:
REMARK  status: ('A' for Active; 'I' for Inactive)
REMARK    1  A    between atoms: C_2  and  C_22
REMARK    2  A    between atoms: C_10  and  C_11
REMARK                            x       y       z     vdW  Elec       q    Type
REMARK                         _______ _______ _______ _____ _____    ______ ____
ROOT
ATOM      1  O   UNL     1       3.876   3.619  16.688  0.00  0.00    +0.000 OA
ATOM      2  C   UNL     1       4.820   4.317  16.343  0.00  0.00    +0.000 C 
ATOM      3  N   UNL     1       4.927   5.671  16.523  0.00  0.00    +0.000 N 
ATOM      4  C   UNL     1       4.018   6.452  17.233  0.00  0.00    +0.000 A 
ATOM      5  C   UNL     1       3.375   6.000  18.379  0.00  0.00    +0.000 A 
ATOM      6  C   UNL     1       2.538   6.888  19.096  0.00  0.00    +0.000 A 
ATOM      7  C   UNL     1       1.887   6.630  20.314  0.00  0.00    +0.000 A 
ATOM      8 CL   UNL     1       2.095   5.155  21.182  0.00  0.00    +0.000 Cl
ATOM      9  N   UNL     1       1.086   7.504  20.975  0.00  0.00    +0.000 NA
ATOM     10  C   UNL     1       0.884   8.726  20.431  0.00  0.00    +0.000 A 
ATOM     11  C   UNL     1       1.520   9.092  19.248  0.00  0.00    +0.000 A 
ATOM     12  C   UNL     1       2.340   8.173  18.577  0.00  0.00    +0.000 A 
ATOM     13  C   UNL     1       3.006   8.507  17.400  0.00  0.00    +0.000 A 
ATOM     14  N   UNL     1       3.876   7.701  16.756  0.00  0.00    +0.000 NA
ATOM     15  H   UNL     1       5.522   6.196  15.898  0.00  0.00    +0.000 HD
ENDROOT
BRANCH  10  16
ATOM     16  C   UNL     1       0.044   9.656  21.233  0.00  0.00    +0.000 A 
ATOM     17  C   UNL     1      -0.078   9.418  22.622  0.00  0.00    +0.000 A 
ATOM     18  C   UNL     1      -0.828  10.257  23.457  0.00  0.00    +0.000 A 
ATOM     19  C   UNL     1      -1.459  11.373  22.929  0.00  0.00    +0.000 A 
ATOM     20  C   UNL     1      -1.369  11.633  21.564  0.00  0.00    +0.000 A 
ATOM     21  C   UNL     1      -0.635  10.777  20.721  0.00  0.00    +0.000 A 
ATOM     22 CL   UNL     1      -0.688  11.177  19.034  0.00  0.00    +0.000 Cl
ENDBRANCH  10  16
BRANCH   2  23
ATOM     23  C   UNL     1       5.977   3.730  15.610  0.00  0.00    +0.000 C 
ATOM     24  C   UNL     1       6.057   3.864  14.106  0.00  0.00    +0.000 C 
ATOM     25  C   UNL     1       7.028   4.607  14.974  0.00  0.00    +0.000 C 
ENDBRANCH   2  23
TORSDOF 2
ENDMDL
MODEL 5
REMARK VINA RESULT:      -7.5      3.288      4.099
REMARK  Name = 
REMARK  2 active torsions:
REMARK  status: ('A' for Active; 'I' for Inactive)
REMARK    1  A    between atoms: C_2  and  C_22
REMARK    2  A    between atoms: C_10  and  C_11
REMARK                            x       y       z     vdW  Elec       q    Type
REMARK                         _______ _______ _______ _____ _____    ______ ____
ROOT
ATOM      1  O   UNL     1       1.570  13.462  20.506  0.00  0.00    +0.000 OA
ATOM      2  C   UNL     1       1.147  13.600  19.366  0.00  0.00    +0.000 C 
ATOM      3  N   UNL     1       1.089  12.624  18.407  0.00  0.00    +0.000 N 
ATOM      4  C   UNL     1       1.402  11.283  18.618  0.00  0.00    +0.000 A 
ATOM      5  C   UNL     1       1.106  10.621  19.803  0.00  0.00    +0.000 A 
ATOM      6  C   UNL     1       1.371   9.234  19.904  0.00  0.00    +0.000 A 
ATOM      7  C   UNL     1       1.055   8.395  20.985  0.00  0.00    +0.000 A 
ATOM      8 CL   UNL     1       0.186   8.951  22.368  0.00  0.00    +0.000 Cl
ATOM      9  N   UNL     1       1.326   7.067  21.052  0.00  0.00    +0.000 NA
ATOM     10  C   UNL     1       1.955   6.488  20.004  0.00  0.00    +0.000 A 
ATOM     11  C   UNL     1       2.271   7.227  18.868  0.00  0.00    +0.000 A 
ATOM     12  C   UNL     1       1.987   8.599  18.820  0.00  0.00    +0.000 A 
ATOM     13  C   UNL     1       2.273   9.369  17.694  0.00  0.00    +0.000 A 
ATOM     14  N   UNL     1       1.945  10.670  17.552  0.00  0.00    +0.000 NA
ATOM     15  H   UNL     1       1.094  12.901  17.435  0.00  0.00    +0.000 HD
ENDROOT
BRANCH  10  16
ATOM     16  C   UNL     1       2.172   5.020  20.116  0.00  0.00    +0.000 A 
ATOM     17  C   UNL     1       1.079   4.210  20.506  0.00  0.00    +0.000 A 
ATOM     18  C   UNL     1       1.187   2.817  20.612  0.00  0.00    +0.000 A 
ATOM     19  C   UNL     1       2.387   2.191  20.308  0.00  0.00    +0.000 A 
ATOM     20  C   UNL     1       3.486   2.958  19.929  0.00  0.00    +0.000 A 
ATOM     21  C   UNL     1       3.385   4.359  19.844  0.00  0.00    +0.000 A 
ATOM     22 CL   UNL     1       4.857   5.186  19.449  0.00  0.00    +0.000 Cl
ENDBRANCH  10  16
BRANCH   2  23
ATOM     23  C   UNL     1       0.681  14.928  18.879  0.00  0.00    +0.000 C 
ATOM     24  C   UNL     1      -0.618  15.503  19.399  0.00  0.00    +0.000 C 
ATOM     25  C   UNL     1       0.685  16.139  19.782  0.00  0.00    +0.000 C 
ENDBRANCH   2  23
TORSDOF 2
ENDMDL
MODEL 6
REMARK VINA RESULT:      -7.5      3.485      7.838
REMARK  Name = 
REMARK  2 active torsions:
REMARK  status: ('A' for Active; 'I' for Inactive)
REMARK    1  A    between atoms: C_2  and  C_22
REMARK    2  A    between atoms: C_10  and  C_11
REMARK                            x       y       z     vdW  Elec       q    Type
REMARK                         _______ _______ _______ _____ _____    ______ ____
ROOT
ATOM      1  O   UNL     1       0.933   4.207  20.428  0.00  0.00    +0.000 OA
ATOM      2  C   UNL     1       2.055   4.021  19.977  0.00  0.00    +0.000 C 
ATOM      3  N   UNL     1       2.816   4.942  19.308  0.00  0.00    +0.000 N 
ATOM      4  C   UNL     1       2.471   6.281  19.133  0.00  0.00    +0.000 A 
ATOM      5  C   UNL     1       1.811   7.019  20.108  0.00  0.00    +0.000 A 
ATOM      6  C   UNL     1       1.580   8.399  19.890  0.00  0.00    +0.000 A 
ATOM      7  C   UNL     1       1.013   9.309  20.798  0.00  0.00    +0.000 A 
ATOM      8 CL   UNL     1       0.576   8.864  22.406  0.00  0.00    +0.000 Cl
ATOM      9  N   UNL     1       0.802  10.628  20.557  0.00  0.00    +0.000 NA
ATOM     10  C   UNL     1       1.156  11.123  19.349  0.00  0.00    +0.000 A 
ATOM     11  C   UNL     1       1.765  10.310  18.398  0.00  0.00    +0.000 A 
ATOM     12  C   UNL     1       1.970   8.948  18.664  0.00  0.00    +0.000 A 
ATOM     13  C   UNL     1       2.592   8.106  17.744  0.00  0.00    +0.000 A 
ATOM     14  N   UNL     1       2.897   6.812  17.974  0.00  0.00    +0.000 NA
ATOM     15  H   UNL     1       3.522   4.612  18.666  0.00  0.00    +0.000 HD
ENDROOT
BRANCH  10  16
ATOM     16  C   UNL     1       0.952  12.586  19.169  0.00  0.00    +0.000 A 
ATOM     17  C   UNL     1       2.086  13.431  19.210  0.00  0.00    +0.000 A 
ATOM     18  C   UNL     1       1.988  14.816  19.025  0.00  0.00    +0.000 A 
ATOM     19  C   UNL     1       0.753  15.394  18.771  0.00  0.00    +0.000 A 
ATOM     20  C   UNL     1      -0.387  14.594  18.733  0.00  0.00    +0.000 A 
ATOM     21  C   UNL     1      -0.292  13.205  18.941  0.00  0.00    +0.000 A 
ATOM     22 CL   UNL     1      -1.803  12.354  18.955  0.00  0.00    +0.000 Cl
ENDBRANCH  10  16
BRANCH   2  23
ATOM     23  C   UNL     1       2.707   2.685  20.078  0.00  0.00    +0.000 C 
ATOM     24  C   UNL     1       2.825   1.814  18.848  0.00  0.00    +0.000 C 
ATOM     25  C   UNL     1       4.055   2.422  19.451  0.00  0.00    +0.000 C 
ENDBRANCH   2  23
TORSDOF 2
ENDMDL
MODEL 7
REMARK VINA RESULT:      -7.4      2.423      3.482
REMARK  Name = 
REMARK  2 active torsions:
REMARK  status: ('A' for Active; 'I' for Inactive)
REMARK    1  A    between atoms: C_2  and  C_22
REMARK    2  A    between atoms: C_10  and  C_11
REMARK                            x       y       z     vdW  Elec       q    Type
REMARK                         _______ _______ _______ _____ _____    ______ ____
ROOT
ATOM      1  O   UNL     1      -1.816  12.646  20.161  0.00  0.00    +0.000 OA
ATOM      2  C   UNL     1      -1.378  13.006  21.246  0.00  0.00    +0.000 C 
ATOM      3  N   UNL     1      -0.572  12.268  22.073  0.00  0.00    +0.000 N 
ATOM      4  C   UNL     1      -0.032  11.025  21.752  0.00  0.00    +0.000 A 
ATOM      5  C   UNL     1       0.398  10.701  20.471  0.00  0.00    +0.000 A 
ATOM      6  C   UNL     1       1.023   9.450  20.248  0.00  0.00    +0.000 A 
ATOM      7  C   UNL     1       1.594   8.999  19.046  0.00  0.00    +0.000 A 
ATOM      8 CL   UNL     1       1.689   9.987  17.636  0.00  0.00    +0.000 Cl
ATOM      9  N   UNL     1       2.184   7.791  18.864  0.00  0.00    +0.000 NA
ATOM     10  C   UNL     1       2.231   6.936  19.912  0.00  0.00    +0.000 A 
ATOM     11  C   UNL     1       1.730   7.308  21.156  0.00  0.00    +0.000 A 
ATOM     12  C   UNL     1       1.120   8.560  21.323  0.00  0.00    +0.000 A 
ATOM     13  C   UNL     1       0.623   8.975  22.556  0.00  0.00    +0.000 A 
ATOM     14  N   UNL     1       0.106  10.197  22.802  0.00  0.00    +0.000 NA
ATOM     15  H   UNL     1      -0.578  12.473  23.062  0.00  0.00    +0.000 HD
ENDROOT
BRANCH  10  16
ATOM     16  C   UNL     1       2.941   5.652  19.663  0.00  0.00    +0.000 A 
ATOM     17  C   UNL     1       4.257   5.704  19.145  0.00  0.00    +0.000 A 
ATOM     18  C   UNL     1       5.007   4.546  18.904  0.00  0.00    +0.000 A 
ATOM     19  C   UNL     1       4.470   3.301  19.197  0.00  0.00    +0.000 A 
ATOM     20  C   UNL     1       3.174   3.211  19.698  0.00  0.00    +0.000 A 
ATOM     21  C   UNL     1       2.411   4.373  19.919  0.00  0.00    +0.000 A 
ATOM     22 CL   UNL     1       0.786   4.101  20.459  0.00  0.00    +0.000 Cl
ENDBRANCH  10  16
BRANCH   2  23
ATOM     23  C   UNL     1      -1.745  14.332  21.817  0.00  0.00    +0.000 C 
ATOM     24  C   UNL     1      -2.919  14.441  22.763  0.00  0.00    +0.000 C 
ATOM     25  C   UNL     1      -1.525  14.644  23.277  0.00  0.00    +0.000 C 
ENDBRANCH   2  23
TORSDOF 2
ENDMDL
MODEL 8
REMARK VINA RESULT:      -7.4      1.201      1.492
REMARK  Name = 
REMARK  2 active torsions:
REMARK  status: ('A' for Active; 'I' for Inactive)
REMARK    1  A    between atoms: C_2  and  C_22
REMARK    2  A    between atoms: C_10  and  C_11
REMARK                            x       y       z     vdW  Elec       q    Type
REMARK                         _______ _______ _______ _____ _____    ______ ____
ROOT
ATOM      1  O   UNL     1      -0.157  11.703  22.646  0.00  0.00    +0.000 OA
ATOM      2  C   UNL     1      -0.894  12.158  21.782  0.00  0.00    +0.000 C 
ATOM      3  N   UNL     1      -0.795  11.925  20.435  0.00  0.00    +0.000 N 
ATOM      4  C   UNL     1       0.102  11.036  19.847  0.00  0.00    +0.000 A 
ATOM      5  C   UNL     1       0.455   9.828  20.435  0.00  0.00    +0.000 A 
ATOM      6  C   UNL     1       1.300   8.937  19.729  0.00  0.00    +0.000 A 
ATOM      7  C   UNL     1       1.681   7.646  20.129  0.00  0.00    +0.000 A 
ATOM      8 CL   UNL     1       1.078   6.904  21.565  0.00  0.00    +0.000 Cl
ATOM      9  N   UNL     1       2.497   6.817  19.430  0.00  0.00    +0.000 NA
ATOM     10  C   UNL     1       2.996   7.255  18.250  0.00  0.00    +0.000 A 
ATOM     11  C   UNL     1       2.642   8.503  17.748  0.00  0.00    +0.000 A 
ATOM     12  C   UNL     1       1.801   9.347  18.489  0.00  0.00    +0.000 A 
ATOM     13  C   UNL     1       1.411  10.597  18.011  0.00  0.00    +0.000 A 
ATOM     14  N   UNL     1       0.536  11.415  18.633  0.00  0.00    +0.000 NA
ATOM     15  H   UNL     1      -1.176  12.609  19.797  0.00  0.00    +0.000 HD
ENDROOT
BRANCH  10  16
ATOM     16  C   UNL     1       3.837   6.278  17.507  0.00  0.00    +0.000 A 
ATOM     17  C   UNL     1       5.061   6.728  16.961  0.00  0.00    +0.000 A 
ATOM     18  C   UNL     1       5.926   5.870  16.268  0.00  0.00    +0.000 A 
ATOM     19  C   UNL     1       5.600   4.530  16.121  0.00  0.00    +0.000 A 
ATOM     20  C   UNL     1       4.397   4.055  16.637  0.00  0.00    +0.000 A 
ATOM     21  C   UNL     1       3.518   4.921  17.314  0.00  0.00    +0.000 A 
ATOM     22 CL   UNL     1       2.020   4.207  17.821  0.00  0.00    +0.000 Cl
ENDBRANCH  10  16
BRANCH   2  23
ATOM     23  C   UNL     1      -1.994  13.099  22.134  0.00  0.00    +0.000 C 
ATOM     24  C   UNL     1      -3.350  12.554  22.525  0.00  0.00    +0.000 C 
ATOM     25  C   UNL     1      -2.491  13.228  23.554  0.00  0.00    +0.000 C 
ENDBRANCH   2  23
TORSDOF 2
ENDMDL
MODEL 9
REMARK VINA RESULT:      -7.4      3.369      4.141
REMARK  Name = 
REMARK  2 active torsions:
REMARK  status: ('A' for Active; 'I' for Inactive)
REMARK    1  A    between atoms: C_2  and  C_22
REMARK    2  A    between atoms: C_10  and  C_11
REMARK                            x       y       z     vdW  Elec       q    Type
REMARK                         _______ _______ _______ _____ _____    ______ ____
ROOT
ATOM      1  O   UNL     1       1.633  13.336  20.554  0.00  0.00    +0.000 OA
ATOM      2  C   UNL     1       1.285  13.492  19.391  0.00  0.00    +0.000 C 
ATOM      3  N   UNL     1       1.244  12.520  18.427  0.00  0.00    +0.000 N 
ATOM      4  C   UNL     1       1.489  11.167  18.651  0.00  0.00    +0.000 A 
ATOM      5  C   UNL     1       1.096  10.517  19.815  0.00  0.00    +0.000 A 
ATOM      6  C   UNL     1       1.298   9.120  19.927  0.00  0.00    +0.000 A 
ATOM      7  C   UNL     1       0.884   8.293  20.985  0.00  0.00    +0.000 A 
ATOM      8 CL   UNL     1      -0.041   8.883  22.315  0.00  0.00    +0.000 Cl
ATOM      9  N   UNL     1       1.096   6.955  21.063  0.00  0.00    +0.000 NA
ATOM     10  C   UNL     1       1.762   6.352  20.051  0.00  0.00    +0.000 A 
ATOM     11  C   UNL     1       2.175   7.078  18.939  0.00  0.00    +0.000 A 
ATOM     12  C   UNL     1       1.950   8.461  18.879  0.00  0.00    +0.000 A 
ATOM     13  C   UNL     1       2.334   9.220  17.774  0.00  0.00    +0.000 A 
ATOM     14  N   UNL     1       2.068  10.533  17.617  0.00  0.00    +0.000 NA
ATOM     15  H   UNL     1       1.317  12.797  17.458  0.00  0.00    +0.000 HD
ENDROOT
BRANCH  10  16
ATOM     16  C   UNL     1       1.911   4.876  20.171  0.00  0.00    +0.000 A 
ATOM     17  C   UNL     1       2.265   4.339  21.431  0.00  0.00    +0.000 A 
ATOM     18  C   UNL     1       2.402   2.960  21.640  0.00  0.00    +0.000 A 
ATOM     19  C   UNL     1       2.166   2.077  20.597  0.00  0.00    +0.000 A 
ATOM     20  C   UNL     1       1.825   2.570  19.340  0.00  0.00    +0.000 A 
ATOM     21  C   UNL     1       1.710   3.956  19.124  0.00  0.00    +0.000 A 
ATOM     22 CL   UNL     1       1.369   4.426  17.490  0.00  0.00    +0.000 Cl
ENDBRANCH  10  16
BRANCH   2  23
ATOM     23  C   UNL     1       0.902  14.839  18.882  0.00  0.00    +0.000 C 
ATOM     24  C   UNL     1      -0.435  15.432  19.264  0.00  0.00    +0.000 C 
ATOM     25  C   UNL     1       0.829  16.032  19.803  0.00  0.00    +0.000 C 
ENDBRANCH   2  23
TORSDOF 2
ENDMDL
