MODEL 1
REMARK VINA RESULT:      -7.9      0.000      0.000
REMARK  Name = 
REMARK  8 active torsions:
REMARK  status: ('A' for Active; 'I' for Inactive)
REMARK    1  A    between atoms: C_1  and  N_2
REMARK    2  A    between atoms: N_2  and  C_3
REMARK    3  A    between atoms: C_6  and  C_7
REMARK    4  A    between atoms: N_9  and  C_10
REMARK    5  A    between atoms: C_13  and  N_14
REMARK    6  A    between atoms: C_18  and  N_19
REMARK    7  A    between atoms: C_23  and  C_24
REMARK    8  A    between atoms: C_29  and  N_30
REMARK                            x       y       z     vdW  Elec       q    Type
REMARK                         _______ _______ _______ _____ _____    ______ ____
ROOT
ATOM      1  C   UNL     1      -0.035  12.852  19.485  0.00  0.00    +0.000 A 
ATOM      2  C   UNL     1       0.893  11.944  19.009  0.00  0.00    +0.000 A 
ATOM      3  N   UNL     1       0.532  10.706  19.450  0.00  0.00    +0.000 N 
ATOM      4  N   UNL     1      -0.651  10.742  20.102  0.00  0.00    +0.000 NA
ATOM      5  C   UNL     1      -1.014  12.034  20.137  0.00  0.00    +0.000 A 
ENDROOT
BRANCH   1  11
ATOM      6  C   UNL     1       3.782  15.304  17.678  0.00  0.00    +0.000 C 
ATOM      7  N   UNL     1       3.411  15.606  19.063  0.00  0.00    +0.000 N 
ATOM      8  C   UNL     1       4.516  15.541  20.016  0.00  0.00    +0.000 C 
ATOM      9  C   UNL     1       2.116  15.306  19.455  0.00  0.00    +0.000 C 
ATOM     10  N   UNL     1       1.278  14.707  18.679  0.00  0.00    +0.000 NA
ATOM     11  C   UNL     1      -0.020  14.345  19.263  0.00  0.00    +0.000 C 
ATOM     12  N   UNL     1      -0.456  15.033  20.489  0.00  0.00    +0.000 NA
ATOM     13  C   UNL     1       0.478  15.641  21.122  0.00  0.00    +0.000 C 
ATOM     14  N   UNL     1       0.222  16.272  22.297  0.00  0.00    +0.000 N 
ATOM     15  N   UNL     1       1.749  15.711  20.695  0.00  0.00    +0.000 N 
ATOM     16  H   UNL     1      -0.780  16.257  22.475  0.00  0.00    +0.000 HD
ATOM     17  H   UNL     1       0.568  17.222  22.345  0.00  0.00    +0.000 HD
ATOM     18  H   UNL     1       2.394  16.256  21.233  0.00  0.00    +0.000 HD
ENDBRANCH   1  11
BRANCH   3  19
ATOM     19  C   UNL     1       1.203   9.468  19.258  0.00  0.00    +0.000 A 
ATOM     20  C   UNL     1       1.654   9.155  17.960  0.00  0.00    +0.000 A 
ATOM     21  C   UNL     1       2.354   7.967  17.711  0.00  0.00    +0.000 A 
ATOM     22  C   UNL     1       2.592   7.066  18.756  0.00  0.00    +0.000 A 
ATOM     23  C   UNL     1       2.140   7.344  20.050  0.00  0.00    +0.000 A 
ATOM     24  C   UNL     1       1.452   8.547  20.286  0.00  0.00    +0.000 A 
BRANCH  22  25
ATOM     25  N   UNL     1       3.302   5.808  18.493  0.00  0.00    +0.000 N 
ATOM     26  O   UNL     1       4.323   5.573  19.151  0.00  0.00    +0.000 OA
ATOM     27  O   UNL     1       2.833   5.058  17.626  0.00  0.00    +0.000 OA
ENDBRANCH  22  25
BRANCH  24  28
ATOM     28  N   UNL     1       0.885   8.694  21.613  0.00  0.00    +0.000 N 
ATOM     29  O   UNL     1      -0.198   8.141  21.827  0.00  0.00    +0.000 OA
ATOM     30  O   UNL     1       1.558   9.329  22.435  0.00  0.00    +0.000 OA
ENDBRANCH  24  28
ENDBRANCH   3  19
BRANCH   5  31
ATOM     31  C   UNL     1      -2.286  12.425  20.762  0.00  0.00    +0.000 A 
ATOM     32  C   UNL     1      -3.420  12.645  19.962  0.00  0.00    +0.000 A 
ATOM     33  C   UNL     1      -4.666  12.959  20.517  0.00  0.00    +0.000 A 
ATOM     34  C   UNL     1      -4.804  13.106  21.892  0.00  0.00    +0.000 A 
ATOM     35  C   UNL     1      -3.692  12.946  22.713  0.00  0.00    +0.000 A 
ATOM     36  C   UNL     1      -2.450  12.606  22.144  0.00  0.00    +0.000 A 
BRANCH  36  37
ATOM     37  N   UNL     1      -1.345  12.443  23.074  0.00  0.00    +0.000 N 
ATOM     38  O   UNL     1      -1.044  11.290  23.414  0.00  0.00    +0.000 OA
ATOM     39  O   UNL     1      -0.864  13.482  23.556  0.00  0.00    +0.000 OA
ENDBRANCH  36  37
ENDBRANCH   5  31
TORSDOF 6
ENDMDL
MODEL 2
REMARK VINA RESULT:      -7.9      1.923      2.630
REMARK  Name = 
REMARK  8 active torsions:
REMARK  status: ('A' for Active; 'I' for Inactive)
REMARK    1  A    between atoms: C_1  and  N_2
REMARK    2  A    between atoms: N_2  and  C_3
REMARK    3  A    between atoms: C_6  and  C_7
REMARK    4  A    between atoms: N_9  and  C_10
REMARK    5  A    between atoms: C_13  and  N_14
REMARK    6  A    between atoms: C_18  and  N_19
REMARK    7  A    between atoms: C_23  and  C_24
REMARK    8  A    between atoms: C_29  and  N_30
REMARK                            x       y       z     vdW  Elec       q    Type
REMARK                         _______ _______ _______ _____ _____    ______ ____
ROOT
ATOM      1  C   UNL     1      -0.354  12.545  19.230  0.00  0.00    +0.000 A 
ATOM      2  C   UNL     1       0.763  11.733  19.159  0.00  0.00    +0.000 A 
ATOM      3  N   UNL     1       0.336  10.438  19.121  0.00  0.00    +0.000 N 
ATOM      4  N   UNL     1      -1.011  10.365  19.053  0.00  0.00    +0.000 NA
ATOM      5  C   UNL     1      -1.452  11.632  19.120  0.00  0.00    +0.000 A 
ENDROOT
BRANCH   1  11
ATOM      6  C   UNL     1       3.310  15.375  17.678  0.00  0.00    +0.000 C 
ATOM      7  N   UNL     1       3.046  15.385  19.120  0.00  0.00    +0.000 N 
ATOM      8  C   UNL     1       4.220  15.149  19.955  0.00  0.00    +0.000 C 
ATOM      9  C   UNL     1       1.785  14.991  19.537  0.00  0.00    +0.000 C 
ATOM     10  N   UNL     1       0.891  14.546  18.721  0.00  0.00    +0.000 NA
ATOM     11  C   UNL     1      -0.358  14.052  19.314  0.00  0.00    +0.000 C 
ATOM     12  N   UNL     1      -0.701  14.472  20.684  0.00  0.00    +0.000 NA
ATOM     13  C   UNL     1       0.278  14.954  21.355  0.00  0.00    +0.000 C 
ATOM     14  N   UNL     1       0.112  15.331  22.649  0.00  0.00    +0.000 N 
ATOM     15  N   UNL     1       1.513  15.131  20.858  0.00  0.00    +0.000 N 
ATOM     16  H   UNL     1      -0.874  15.264  22.894  0.00  0.00    +0.000 HD
ATOM     17  H   UNL     1       0.458  16.258  22.862  0.00  0.00    +0.000 HD
ATOM     18  H   UNL     1       2.196  15.567  21.445  0.00  0.00    +0.000 HD
ENDBRANCH   1  11
BRANCH   3  19
ATOM     19  C   UNL     1       1.117   9.251  19.094  0.00  0.00    +0.000 A 
ATOM     20  C   UNL     1       1.650   8.836  17.858  0.00  0.00    +0.000 A 
ATOM     21  C   UNL     1       2.458   7.695  17.770  0.00  0.00    +0.000 A 
ATOM     22  C   UNL     1       2.724   6.940  18.919  0.00  0.00    +0.000 A 
ATOM     23  C   UNL     1       2.193   7.319  20.156  0.00  0.00    +0.000 A 
ATOM     24  C   UNL     1       1.397   8.474  20.230  0.00  0.00    +0.000 A 
BRANCH  22  25
ATOM     25  N   UNL     1       3.548   5.728  18.826  0.00  0.00    +0.000 N 
ATOM     26  O   UNL     1       4.324   5.485  19.759  0.00  0.00    +0.000 OA
ATOM     27  O   UNL     1       3.414   5.023  17.817  0.00  0.00    +0.000 OA
ENDBRANCH  22  25
BRANCH  24  28
ATOM     28  N   UNL     1       0.762   8.717  21.510  0.00  0.00    +0.000 N 
ATOM     29  O   UNL     1       1.379   9.415  22.321  0.00  0.00    +0.000 OA
ATOM     30  O   UNL     1      -0.368   8.237  21.668  0.00  0.00    +0.000 OA
ENDBRANCH  24  28
ENDBRANCH   3  19
BRANCH   5  31
ATOM     31  C   UNL     1      -2.893  11.914  19.045  0.00  0.00    +0.000 A 
ATOM     32  C   UNL     1      -3.528  12.595  20.098  0.00  0.00    +0.000 A 
ATOM     33  C   UNL     1      -4.884  12.940  20.044  0.00  0.00    +0.000 A 
ATOM     34  C   UNL     1      -5.658  12.572  18.949  0.00  0.00    +0.000 A 
ATOM     35  C   UNL     1      -5.076  11.851  17.910  0.00  0.00    +0.000 A 
ATOM     36  C   UNL     1      -3.705  11.533  17.966  0.00  0.00    +0.000 A 
BRANCH  36  37
ATOM     37  N   UNL     1      -3.176  10.793  16.833  0.00  0.00    +0.000 N 
ATOM     38  O   UNL     1      -2.751  11.444  15.867  0.00  0.00    +0.000 OA
ATOM     39  O   UNL     1      -3.302   9.558  16.865  0.00  0.00    +0.000 OA
ENDBRANCH  36  37
ENDBRANCH   5  31
TORSDOF 6
ENDMDL
MODEL 3
REMARK VINA RESULT:      -7.7      3.126      6.728
REMARK  Name = 
REMARK  8 active torsions:
REMARK  status: ('A' for Active; 'I' for Inactive)
REMARK    1  A    between atoms: C_1  and  N_2
REMARK    2  A    between atoms: N_2  and  C_3
REMARK    3  A    between atoms: C_6  and  C_7
REMARK    4  A    between atoms: N_9  and  C_10
REMARK    5  A    between atoms: C_13  and  N_14
REMARK    6  A    between atoms: C_18  and  N_19
REMARK    7  A    between atoms: C_23  and  C_24
REMARK    8  A    between atoms: C_29  and  N_30
REMARK                            x       y       z     vdW  Elec       q    Type
REMARK                         _______ _______ _______ _____ _____    ______ ____
ROOT
ATOM      1  C   UNL     1       0.502  12.042  19.602  0.00  0.00    +0.000 A 
ATOM      2  C   UNL     1      -0.710  12.708  19.627  0.00  0.00    +0.000 A 
ATOM      3  N   UNL     1      -1.679  11.825  19.255  0.00  0.00    +0.000 N 
ATOM      4  N   UNL     1      -1.178  10.581  19.093  0.00  0.00    +0.000 NA
ATOM      5  C   UNL     1       0.145  10.688  19.296  0.00  0.00    +0.000 A 
ENDROOT
BRANCH   1  11
ATOM      6  C   UNL     1       1.189  15.799  22.644  0.00  0.00    +0.000 C 
ATOM      7  N   UNL     1       1.519  16.033  21.235  0.00  0.00    +0.000 N 
ATOM      8  C   UNL     1       0.914  17.231  20.660  0.00  0.00    +0.000 C 
ATOM      9  C   UNL     1       1.780  14.922  20.450  0.00  0.00    +0.000 C 
ATOM     10  N   UNL     1       1.661  13.716  20.892  0.00  0.00    +0.000 NA
ATOM     11  C   UNL     1       1.853  12.634  19.919  0.00  0.00    +0.000 C 
ATOM     12  N   UNL     1       2.571  12.932  18.668  0.00  0.00    +0.000 NA
ATOM     13  C   UNL     1       2.666  14.180  18.391  0.00  0.00    +0.000 C 
ATOM     14  N   UNL     1       3.258  14.591  17.240  0.00  0.00    +0.000 N 
ATOM     15  N   UNL     1       2.212  15.161  19.187  0.00  0.00    +0.000 N 
ATOM     16  H   UNL     1       3.664  13.786  16.766  0.00  0.00    +0.000 HD
ATOM     17  H   UNL     1       3.960  15.310  17.364  0.00  0.00    +0.000 HD
ATOM     18  H   UNL     1       2.383  16.107  18.909  0.00  0.00    +0.000 HD
ENDBRANCH   1  11
BRANCH   3  19
ATOM     19  C   UNL     1      -3.071  12.061  19.087  0.00  0.00    +0.000 A 
ATOM     20  C   UNL     1      -3.754  12.752  20.108  0.00  0.00    +0.000 A 
ATOM     21  C   UNL     1      -5.118  13.047  19.987  0.00  0.00    +0.000 A 
ATOM     22  C   UNL     1      -5.822  12.633  18.849  0.00  0.00    +0.000 A 
ATOM     23  C   UNL     1      -5.173  11.930  17.829  0.00  0.00    +0.000 A 
ATOM     24  C   UNL     1      -3.802  11.654  17.960  0.00  0.00    +0.000 A 
BRANCH  22  25
ATOM     25  N   UNL     1      -7.259  12.917  18.732  0.00  0.00    +0.000 N 
ATOM     26  O   UNL     1      -7.917  13.000  19.778  0.00  0.00    +0.000 OA
ATOM     27  O   UNL     1      -7.722  13.056  17.593  0.00  0.00    +0.000 OA
ENDBRANCH  22  25
BRANCH  24  28
ATOM     28  N   UNL     1      -3.236  10.794  16.938  0.00  0.00    +0.000 N 
ATOM     29  O   UNL     1      -3.437   9.581  17.049  0.00  0.00    +0.000 OA
ATOM     30  O   UNL     1      -2.632  11.355  16.015  0.00  0.00    +0.000 OA
ENDBRANCH  24  28
ENDBRANCH   3  19
BRANCH   5  31
ATOM     31  C   UNL     1       1.000   9.495  19.220  0.00  0.00    +0.000 A 
ATOM     32  C   UNL     1       1.609   9.148  18.002  0.00  0.00    +0.000 A 
ATOM     33  C   UNL     1       2.480   8.056  17.896  0.00  0.00    +0.000 A 
ATOM     34  C   UNL     1       2.732   7.251  19.000  0.00  0.00    +0.000 A 
ATOM     35  C   UNL     1       2.107   7.533  20.211  0.00  0.00    +0.000 A 
ATOM     36  C   UNL     1       1.253   8.649  20.310  0.00  0.00    +0.000 A 
BRANCH  36  37
ATOM     37  N   UNL     1       0.654   8.880  21.614  0.00  0.00    +0.000 N 
ATOM     38  O   UNL     1       1.333   9.478  22.461  0.00  0.00    +0.000 OA
ATOM     39  O   UNL     1      -0.449   8.350  21.822  0.00  0.00    +0.000 OA
ENDBRANCH  36  37
ENDBRANCH   5  31
TORSDOF 6
ENDMDL
MODEL 4
REMARK VINA RESULT:      -7.6      2.161      2.819
REMARK  Name = 
REMARK  8 active torsions:
REMARK  status: ('A' for Active; 'I' for Inactive)
REMARK    1  A    between atoms: C_1  and  N_2
REMARK    2  A    between atoms: N_2  and  C_3
REMARK    3  A    between atoms: C_6  and  C_7
REMARK    4  A    between atoms: N_9  and  C_10
REMARK    5  A    between atoms: C_13  and  N_14
REMARK    6  A    between atoms: C_18  and  N_19
REMARK    7  A    between atoms: C_23  and  C_24
REMARK    8  A    between atoms: C_29  and  N_30
REMARK                            x       y       z     vdW  Elec       q    Type
REMARK                         _______ _______ _______ _____ _____    ______ ____
ROOT
ATOM      1  C   UNL     1      -0.971  12.607  19.627  0.00  0.00    +0.000 A 
ATOM      2  C   UNL     1       0.206  11.883  19.671  0.00  0.00    +0.000 A 
ATOM      3  N   UNL     1      -0.090  10.586  19.371  0.00  0.00    +0.000 N 
ATOM      4  N   UNL     1      -1.388  10.444  19.025  0.00  0.00    +0.000 NA
ATOM      5  C   UNL     1      -1.943  11.657  19.175  0.00  0.00    +0.000 A 
ENDROOT
BRANCH   1  11
ATOM      6  C   UNL     1       2.340  15.982  18.408  0.00  0.00    +0.000 C 
ATOM      7  N   UNL     1       2.121  15.774  19.842  0.00  0.00    +0.000 N 
ATOM      8  C   UNL     1       3.339  15.551  20.617  0.00  0.00    +0.000 C 
ATOM      9  C   UNL     1       0.920  15.199  20.224  0.00  0.00    +0.000 C 
ATOM     10  N   UNL     1       0.050  14.776  19.371  0.00  0.00    +0.000 NA
ATOM     11  C   UNL     1      -1.123  14.081  19.914  0.00  0.00    +0.000 C 
ATOM     12  N   UNL     1      -1.463  14.277  21.334  0.00  0.00    +0.000 NA
ATOM     13  C   UNL     1      -0.517  14.765  22.047  0.00  0.00    +0.000 C 
ATOM     14  N   UNL     1      -0.680  14.948  23.383  0.00  0.00    +0.000 N 
ATOM     15  N   UNL     1       0.677  15.134  21.557  0.00  0.00    +0.000 N 
ATOM     16  H   UNL     1      -1.646  14.746  23.634  0.00  0.00    +0.000 HD
ATOM     17  H   UNL     1      -0.422  15.869  23.713  0.00  0.00    +0.000 HD
ATOM     18  H   UNL     1       1.331  15.556  22.185  0.00  0.00    +0.000 HD
ENDBRANCH   1  11
BRANCH   3  19
ATOM     19  C   UNL     1       0.784   9.465  19.340  0.00  0.00    +0.000 A 
ATOM     20  C   UNL     1       1.394   9.136  18.113  0.00  0.00    +0.000 A 
ATOM     21  C   UNL     1       2.293   8.065  18.023  0.00  0.00    +0.000 A 
ATOM     22  C   UNL     1       2.574   7.294  19.158  0.00  0.00    +0.000 A 
ATOM     23  C   UNL     1       1.969   7.588  20.384  0.00  0.00    +0.000 A 
ATOM     24  C   UNL     1       1.080   8.674  20.460  0.00  0.00    +0.000 A 
BRANCH  22  25
ATOM     25  N   UNL     1       3.495   6.154  19.060  0.00  0.00    +0.000 N 
ATOM     26  O   UNL     1       4.313   6.151  18.131  0.00  0.00    +0.000 OA
ATOM     27  O   UNL     1       3.395   5.264  19.915  0.00  0.00    +0.000 OA
ENDBRANCH  22  25
BRANCH  24  28
ATOM     28  N   UNL     1       0.380   8.823  21.721  0.00  0.00    +0.000 N 
ATOM     29  O   UNL     1      -0.675   8.195  21.856  0.00  0.00    +0.000 OA
ATOM     30  O   UNL     1       0.922   9.536  22.575  0.00  0.00    +0.000 OA
ENDBRANCH  24  28
ENDBRANCH   3  19
BRANCH   5  31
ATOM     31  C   UNL     1      -3.363  11.862  18.852  0.00  0.00    +0.000 A 
ATOM     32  C   UNL     1      -4.205  12.506  19.775  0.00  0.00    +0.000 A 
ATOM     33  C   UNL     1      -5.547  12.777  19.486  0.00  0.00    +0.000 A 
ATOM     34  C   UNL     1      -6.101  12.369  18.278  0.00  0.00    +0.000 A 
ATOM     35  C   UNL     1      -5.312  11.682  17.360  0.00  0.00    +0.000 A 
ATOM     36  C   UNL     1      -3.956  11.438  17.653  0.00  0.00    +0.000 A 
BRANCH  36  37
ATOM     37  N   UNL     1      -3.202  10.729  16.633  0.00  0.00    +0.000 N 
ATOM     38  O   UNL     1      -3.219   9.490  16.662  0.00  0.00    +0.000 OA
ATOM     39  O   UNL     1      -2.494  11.420  15.882  0.00  0.00    +0.000 OA
ENDBRANCH  36  37
ENDBRANCH   5  31
TORSDOF 6
ENDMDL
MODEL 5
REMARK VINA RESULT:      -7.6      2.072      4.827
REMARK  Name = 
REMARK  8 active torsions:
REMARK  status: ('A' for Active; 'I' for Inactive)
REMARK    1  A    between atoms: C_1  and  N_2
REMARK    2  A    between atoms: N_2  and  C_3
REMARK    3  A    between atoms: C_6  and  C_7
REMARK    4  A    between atoms: N_9  and  C_10
REMARK    5  A    between atoms: C_13  and  N_14
REMARK    6  A    between atoms: C_18  and  N_19
REMARK    7  A    between atoms: C_23  and  C_24
REMARK    8  A    between atoms: C_29  and  N_30
REMARK                            x       y       z     vdW  Elec       q    Type
REMARK                         _______ _______ _______ _____ _____    ______ ____
ROOT
ATOM      1  C   UNL     1      -1.809  13.071  20.195  0.00  0.00    +0.000 A 
ATOM      2  C   UNL     1      -1.555  11.712  20.222  0.00  0.00    +0.000 A 
ATOM      3  N   UNL     1      -0.237  11.528  19.923  0.00  0.00    +0.000 N 
ATOM      4  N   UNL     1       0.412  12.707  19.809  0.00  0.00    +0.000 NA
ATOM      5  C   UNL     1      -0.522  13.658  19.968  0.00  0.00    +0.000 A 
ENDROOT
BRANCH   1  11
ATOM      6  C   UNL     1      -3.291  14.668  24.565  0.00  0.00    +0.000 C 
ATOM      7  N   UNL     1      -4.054  13.560  23.984  0.00  0.00    +0.000 N 
ATOM      8  C   UNL     1      -4.240  12.417  24.873  0.00  0.00    +0.000 C 
ATOM      9  C   UNL     1      -3.980  13.388  22.611  0.00  0.00    +0.000 C 
ATOM     10  N   UNL     1      -3.211  14.104  21.863  0.00  0.00    +0.000 NA
ATOM     11  C   UNL     1      -3.141  13.735  20.443  0.00  0.00    +0.000 C 
ATOM     12  N   UNL     1      -4.221  12.908  19.877  0.00  0.00    +0.000 NA
ATOM     13  C   UNL     1      -4.944  12.306  20.747  0.00  0.00    +0.000 C 
ATOM     14  N   UNL     1      -5.941  11.469  20.359  0.00  0.00    +0.000 N 
ATOM     15  N   UNL     1      -4.793  12.445  22.074  0.00  0.00    +0.000 N 
ATOM     16  H   UNL     1      -6.047  11.519  19.348  0.00  0.00    +0.000 HD
ATOM     17  H   UNL     1      -6.832  11.644  20.809  0.00  0.00    +0.000 HD
ATOM     18  H   UNL     1      -5.443  11.975  22.672  0.00  0.00    +0.000 HD
ENDBRANCH   1  11
BRANCH   3  19
ATOM     19  C   UNL     1       0.474  10.305  19.783  0.00  0.00    +0.000 A 
ATOM     20  C   UNL     1       0.983   9.976  18.511  0.00  0.00    +0.000 A 
ATOM     21  C   UNL     1       1.725   8.804  18.316  0.00  0.00    +0.000 A 
ATOM     22  C   UNL     1       1.946   7.932  19.389  0.00  0.00    +0.000 A 
ATOM     23  C   UNL     1       1.437   8.225  20.658  0.00  0.00    +0.000 A 
ATOM     24  C   UNL     1       0.708   9.413  20.841  0.00  0.00    +0.000 A 
BRANCH  22  25
ATOM     25  N   UNL     1       2.699   6.688  19.181  0.00  0.00    +0.000 N 
ATOM     26  O   UNL     1       2.555   5.782  20.011  0.00  0.00    +0.000 OA
ATOM     27  O   UNL     1       3.432   6.624  18.186  0.00  0.00    +0.000 OA
ENDBRANCH  22  25
BRANCH  24  28
ATOM     28  N   UNL     1       0.087   9.572  22.142  0.00  0.00    +0.000 N 
ATOM     29  O   UNL     1      -0.790   8.758  22.451  0.00  0.00    +0.000 OA
ATOM     30  O   UNL     1       0.517  10.489  22.852  0.00  0.00    +0.000 OA
ENDBRANCH  24  28
ENDBRANCH   3  19
BRANCH   5  31
ATOM     31  C   UNL     1      -0.141  15.078  19.927  0.00  0.00    +0.000 A 
ATOM     32  C   UNL     1      -0.413  15.842  18.780  0.00  0.00    +0.000 A 
ATOM     33  C   UNL     1      -0.124  17.210  18.718  0.00  0.00    +0.000 A 
ATOM     34  C   UNL     1       0.488  17.847  19.791  0.00  0.00    +0.000 A 
ATOM     35  C   UNL     1       0.819  17.112  20.925  0.00  0.00    +0.000 A 
ATOM     36  C   UNL     1       0.501  15.741  20.984  0.00  0.00    +0.000 A 
BRANCH  36  37
ATOM     37  N   UNL     1       0.867  15.053  22.210  0.00  0.00    +0.000 N 
ATOM     38  O   UNL     1       0.060  15.083  23.151  0.00  0.00    +0.000 OA
ATOM     39  O   UNL     1       2.018  14.591  22.267  0.00  0.00    +0.000 OA
ENDBRANCH  36  37
ENDBRANCH   5  31
TORSDOF 6
ENDMDL
MODEL 6
REMARK VINA RESULT:      -7.5      3.230      8.810
REMARK  Name = 
REMARK  8 active torsions:
REMARK  status: ('A' for Active; 'I' for Inactive)
REMARK    1  A    between atoms: C_1  and  N_2
REMARK    2  A    between atoms: N_2  and  C_3
REMARK    3  A    between atoms: C_6  and  C_7
REMARK    4  A    between atoms: N_9  and  C_10
REMARK    5  A    between atoms: C_13  and  N_14
REMARK    6  A    between atoms: C_18  and  N_19
REMARK    7  A    between atoms: C_23  and  C_24
REMARK    8  A    between atoms: C_29  and  N_30
REMARK                            x       y       z     vdW  Elec       q    Type
REMARK                         _______ _______ _______ _____ _____    ______ ____
ROOT
ATOM      1  C   UNL     1       3.385   6.160  18.434  0.00  0.00    +0.000 A 
ATOM      2  C   UNL     1       3.227   7.527  18.288  0.00  0.00    +0.000 A 
ATOM      3  N   UNL     1       2.151   7.905  19.035  0.00  0.00    +0.000 N 
ATOM      4  N   UNL     1       1.660   6.870  19.751  0.00  0.00    +0.000 NA
ATOM      5  C   UNL     1       2.392   5.800  19.402  0.00  0.00    +0.000 A 
ENDROOT
BRANCH   1  11
ATOM      6  C   UNL     1       8.063   6.017  19.825  0.00  0.00    +0.000 C 
ATOM      7  N   UNL     1       7.797   6.566  18.493  0.00  0.00    +0.000 N 
ATOM      8  C   UNL     1       8.412   7.865  18.237  0.00  0.00    +0.000 C 
ATOM      9  C   UNL     1       6.602   6.214  17.888  0.00  0.00    +0.000 C 
ATOM     10  N   UNL     1       5.704   5.504  18.483  0.00  0.00    +0.000 NA
ATOM     11  C   UNL     1       4.437   5.307  17.769  0.00  0.00    +0.000 C 
ATOM     12  N   UNL     1       4.408   5.528  16.313  0.00  0.00    +0.000 NA
ATOM     13  C   UNL     1       5.401   6.196  15.854  0.00  0.00    +0.000 C 
ATOM     14  N   UNL     1       5.471   6.516  14.536  0.00  0.00    +0.000 N 
ATOM     15  N   UNL     1       6.429   6.621  16.606  0.00  0.00    +0.000 N 
ATOM     16  H   UNL     1       4.711   6.057  14.039  0.00  0.00    +0.000 HD
ATOM     17  H   UNL     1       6.356   6.292  14.098  0.00  0.00    +0.000 HD
ATOM     18  H   UNL     1       7.185   7.088  16.145  0.00  0.00    +0.000 HD
ENDBRANCH   1  11
BRANCH   3  19
ATOM     19  C   UNL     1       1.575   9.198  19.161  0.00  0.00    +0.000 A 
ATOM     20  C   UNL     1       1.791  10.124  18.122  0.00  0.00    +0.000 A 
ATOM     21  C   UNL     1       1.220  11.403  18.169  0.00  0.00    +0.000 A 
ATOM     22  C   UNL     1       0.443  11.778  19.272  0.00  0.00    +0.000 A 
ATOM     23  C   UNL     1       0.227  10.885  20.326  0.00  0.00    +0.000 A 
ATOM     24  C   UNL     1       0.795   9.601  20.257  0.00  0.00    +0.000 A 
BRANCH  22  25
ATOM     25  N   UNL     1      -0.133  13.128  19.338  0.00  0.00    +0.000 N 
ATOM     26  O   UNL     1      -0.473  13.662  18.274  0.00  0.00    +0.000 OA
ATOM     27  O   UNL     1      -0.243  13.649  20.455  0.00  0.00    +0.000 OA
ENDBRANCH  22  25
BRANCH  24  28
ATOM     28  N   UNL     1       0.654   8.789  21.449  0.00  0.00    +0.000 N 
ATOM     29  O   UNL     1       1.589   8.807  22.256  0.00  0.00    +0.000 OA
ATOM     30  O   UNL     1      -0.413   8.176  21.578  0.00  0.00    +0.000 OA
ENDBRANCH  24  28
ENDBRANCH   3  19
BRANCH   5  31
ATOM     31  C   UNL     1       2.131   4.495  20.026  0.00  0.00    +0.000 A 
ATOM     32  C   UNL     1       2.259   4.347  21.418  0.00  0.00    +0.000 A 
ATOM     33  C   UNL     1       1.962   3.141  22.063  0.00  0.00    +0.000 A 
ATOM     34  C   UNL     1       1.571   2.029  21.326  0.00  0.00    +0.000 A 
ATOM     35  C   UNL     1       1.484   2.122  19.940  0.00  0.00    +0.000 A 
ATOM     36  C   UNL     1       1.760   3.349  19.306  0.00  0.00    +0.000 A 
BRANCH  36  37
ATOM     37  N   UNL     1       1.630   3.363  17.859  0.00  0.00    +0.000 N 
ATOM     38  O   UNL     1       0.754   4.089  17.366  0.00  0.00    +0.000 OA
ATOM     39  O   UNL     1       2.325   2.550  17.229  0.00  0.00    +0.000 OA
ENDBRANCH  36  37
ENDBRANCH   5  31
TORSDOF 6
ENDMDL
MODEL 7
REMARK VINA RESULT:      -7.4      1.403      1.865
REMARK  Name = 
REMARK  8 active torsions:
REMARK  status: ('A' for Active; 'I' for Inactive)
REMARK    1  A    between atoms: C_1  and  N_2
REMARK    2  A    between atoms: N_2  and  C_3
REMARK    3  A    between atoms: C_6  and  C_7
REMARK    4  A    between atoms: N_9  and  C_10
REMARK    5  A    between atoms: C_13  and  N_14
REMARK    6  A    between atoms: C_18  and  N_19
REMARK    7  A    between atoms: C_23  and  C_24
REMARK    8  A    between atoms: C_29  and  N_30
REMARK                            x       y       z     vdW  Elec       q    Type
REMARK                         _______ _______ _______ _____ _____    ______ ____
ROOT
ATOM      1  C   UNL     1      -0.527  13.205  20.893  0.00  0.00    +0.000 A 
ATOM      2  C   UNL     1       0.542  12.439  20.463  0.00  0.00    +0.000 A 
ATOM      3  N   UNL     1       0.060  11.217  20.098  0.00  0.00    +0.000 N 
ATOM      4  N   UNL     1      -1.289  11.180  20.162  0.00  0.00    +0.000 NA
ATOM      5  C   UNL     1      -1.667  12.374  20.644  0.00  0.00    +0.000 A 
ENDROOT
BRANCH   1  11
ATOM      6  C   UNL     1      -0.635  17.167  18.042  0.00  0.00    +0.000 C 
ATOM      7  N   UNL     1       0.607  16.933  18.784  0.00  0.00    +0.000 N 
ATOM      8  C   UNL     1       1.818  16.969  17.969  0.00  0.00    +0.000 C 
ATOM      9  C   UNL     1       0.533  16.131  19.911  0.00  0.00    +0.000 C 
ATOM     10  N   UNL     1      -0.553  15.533  20.267  0.00  0.00    +0.000 NA
ATOM     11  C   UNL     1      -0.459  14.620  21.412  0.00  0.00    +0.000 C 
ATOM     12  N   UNL     1       0.685  14.757  22.330  0.00  0.00    +0.000 NA
ATOM     13  C   UNL     1       1.667  15.434  21.861  0.00  0.00    +0.000 C 
ATOM     14  N   UNL     1       2.806  15.593  22.583  0.00  0.00    +0.000 N 
ATOM     15  N   UNL     1       1.659  16.031  20.659  0.00  0.00    +0.000 N 
ATOM     16  H   UNL     1       2.670  15.203  23.514  0.00  0.00    +0.000 HD
ATOM     17  H   UNL     1       3.126  16.551  22.654  0.00  0.00    +0.000 HD
ATOM     18  H   UNL     1       2.454  16.583  20.405  0.00  0.00    +0.000 HD
ENDBRANCH   1  11
BRANCH   3  19
ATOM     19  C   UNL     1       0.785  10.083  19.639  0.00  0.00    +0.000 A 
ATOM     20  C   UNL     1       1.166  10.045  18.283  0.00  0.00    +0.000 A 
ATOM     21  C   UNL     1       1.912   8.973  17.776  0.00  0.00    +0.000 A 
ATOM     22  C   UNL     1       2.267   7.912  18.619  0.00  0.00    +0.000 A 
ATOM     23  C   UNL     1       1.886   7.916  19.964  0.00  0.00    +0.000 A 
ATOM     24  C   UNL     1       1.150   9.005  20.460  0.00  0.00    +0.000 A 
BRANCH  22  25
ATOM     25  N   UNL     1       3.025   6.773  18.084  0.00  0.00    +0.000 N 
ATOM     26  O   UNL     1       2.525   5.646  18.192  0.00  0.00    +0.000 OA
ATOM     27  O   UNL     1       4.120   7.013  17.558  0.00  0.00    +0.000 OA
ENDBRANCH  22  25
BRANCH  24  28
ATOM     28  N   UNL     1       0.665   8.867  21.819  0.00  0.00    +0.000 N 
ATOM     29  O   UNL     1       1.377   9.322  22.720  0.00  0.00    +0.000 OA
ATOM     30  O   UNL     1      -0.446   8.340  21.960  0.00  0.00    +0.000 OA
ENDBRANCH  24  28
ENDBRANCH   3  19
BRANCH   5  31
ATOM     31  C   UNL     1      -3.095  12.679  20.816  0.00  0.00    +0.000 A 
ATOM     32  C   UNL     1      -3.904  12.902  19.688  0.00  0.00    +0.000 A 
ATOM     33  C   UNL     1      -5.280  13.136  19.801  0.00  0.00    +0.000 A 
ATOM     34  C   UNL     1      -5.881  13.196  21.053  0.00  0.00    +0.000 A 
ATOM     35  C   UNL     1      -5.103  13.032  22.195  0.00  0.00    +0.000 A 
ATOM     36  C   UNL     1      -3.725  12.773  22.067  0.00  0.00    +0.000 A 
BRANCH  36  37
ATOM     37  N   UNL     1      -2.991  12.598  23.308  0.00  0.00    +0.000 N 
ATOM     38  O   UNL     1      -2.865  11.445  23.745  0.00  0.00    +0.000 OA
ATOM     39  O   UNL     1      -2.650  13.632  23.905  0.00  0.00    +0.000 OA
ENDBRANCH  36  37
ENDBRANCH   5  31
TORSDOF 6
ENDMDL
MODEL 8
REMARK VINA RESULT:      -7.4      2.652      6.634
REMARK  Name = 
REMARK  8 active torsions:
REMARK  status: ('A' for Active; 'I' for Inactive)
REMARK    1  A    between atoms: C_1  and  N_2
REMARK    2  A    between atoms: N_2  and  C_3
REMARK    3  A    between atoms: C_6  and  C_7
REMARK    4  A    between atoms: N_9  and  C_10
REMARK    5  A    between atoms: C_13  and  N_14
REMARK    6  A    between atoms: C_18  and  N_19
REMARK    7  A    between atoms: C_23  and  C_24
REMARK    8  A    between atoms: C_29  and  N_30
REMARK                            x       y       z     vdW  Elec       q    Type
REMARK                         _______ _______ _______ _____ _____    ______ ____
ROOT
ATOM      1  C   UNL     1       0.536  12.153  19.871  0.00  0.00    +0.000 A 
ATOM      2  C   UNL     1      -0.657  12.837  20.028  0.00  0.00    +0.000 A 
ATOM      3  N   UNL     1      -1.669  11.996  19.672  0.00  0.00    +0.000 N 
ATOM      4  N   UNL     1      -1.207  10.758  19.393  0.00  0.00    +0.000 NA
ATOM      5  C   UNL     1       0.129  10.829  19.505  0.00  0.00    +0.000 A 
ENDROOT
BRANCH   1  11
ATOM      6  C   UNL     1       1.465  15.993  22.741  0.00  0.00    +0.000 C 
ATOM      7  N   UNL     1       1.761  16.159  21.315  0.00  0.00    +0.000 N 
ATOM      8  C   UNL     1       1.187  17.358  20.711  0.00  0.00    +0.000 C 
ATOM      9  C   UNL     1       1.954  15.009  20.568  0.00  0.00    +0.000 C 
ATOM     10  N   UNL     1       1.800  13.827  21.060  0.00  0.00    +0.000 NA
ATOM     11  C   UNL     1       1.919  12.701  20.126  0.00  0.00    +0.000 C 
ATOM     12  N   UNL     1       2.609  12.921  18.843  0.00  0.00    +0.000 NA
ATOM     13  C   UNL     1       2.747  14.152  18.515  0.00  0.00    +0.000 C 
ATOM     14  N   UNL     1       3.319  14.494  17.332  0.00  0.00    +0.000 N 
ATOM     15  N   UNL     1       2.356  15.181  19.284  0.00  0.00    +0.000 N 
ATOM     16  H   UNL     1       3.678  13.656  16.878  0.00  0.00    +0.000 HD
ATOM     17  H   UNL     1       4.052  15.188  17.407  0.00  0.00    +0.000 HD
ATOM     18  H   UNL     1       2.557  16.108  18.964  0.00  0.00    +0.000 HD
ENDBRANCH   1  11
BRANCH   3  19
ATOM     19  C   UNL     1      -3.064  12.265  19.622  0.00  0.00    +0.000 A 
ATOM     20  C   UNL     1      -3.757  11.956  18.435  0.00  0.00    +0.000 A 
ATOM     21  C   UNL     1      -5.139  12.163  18.334  0.00  0.00    +0.000 A 
ATOM     22  C   UNL     1      -5.842  12.706  19.416  0.00  0.00    +0.000 A 
ATOM     23  C   UNL     1      -5.176  13.039  20.600  0.00  0.00    +0.000 A 
ATOM     24  C   UNL     1      -3.793  12.812  20.690  0.00  0.00    +0.000 A 
BRANCH  22  25
ATOM     25  N   UNL     1      -7.286  12.951  19.304  0.00  0.00    +0.000 N 
ATOM     26  O   UNL     1      -7.914  13.178  20.346  0.00  0.00    +0.000 OA
ATOM     27  O   UNL     1      -7.785  12.914  18.172  0.00  0.00    +0.000 OA
ENDBRANCH  22  25
BRANCH  24  28
ATOM     28  N   UNL     1      -3.150  13.320  21.887  0.00  0.00    +0.000 N 
ATOM     29  O   UNL     1      -2.855  12.497  22.759  0.00  0.00    +0.000 OA
ATOM     30  O   UNL     1      -2.914  14.534  21.915  0.00  0.00    +0.000 OA
ENDBRANCH  24  28
ENDBRANCH   3  19
BRANCH   5  31
ATOM     31  C   UNL     1       0.951   9.630  19.290  0.00  0.00    +0.000 A 
ATOM     32  C   UNL     1       1.461   9.352  18.010  0.00  0.00    +0.000 A 
ATOM     33  C   UNL     1       2.298   8.256  17.770  0.00  0.00    +0.000 A 
ATOM     34  C   UNL     1       2.614   7.376  18.799  0.00  0.00    +0.000 A 
ATOM     35  C   UNL     1       2.085   7.589  20.069  0.00  0.00    +0.000 A 
ATOM     36  C   UNL     1       1.265   8.710  20.302  0.00  0.00    +0.000 A 
BRANCH  36  37
ATOM     37  N   UNL     1       0.769   8.866  21.659  0.00  0.00    +0.000 N 
ATOM     38  O   UNL     1       1.527   9.380  22.494  0.00  0.00    +0.000 OA
ATOM     39  O   UNL     1      -0.336   8.357  21.910  0.00  0.00    +0.000 OA
ENDBRANCH  36  37
ENDBRANCH   5  31
TORSDOF 6
ENDMDL
MODEL 9
REMARK VINA RESULT:      -7.4      0.657      1.158
REMARK  Name = 
REMARK  8 active torsions:
REMARK  status: ('A' for Active; 'I' for Inactive)
REMARK    1  A    between atoms: C_1  and  N_2
REMARK    2  A    between atoms: N_2  and  C_3
REMARK    3  A    between atoms: C_6  and  C_7
REMARK    4  A    between atoms: N_9  and  C_10
REMARK    5  A    between atoms: C_13  and  N_14
REMARK    6  A    between atoms: C_18  and  N_19
REMARK    7  A    between atoms: C_23  and  C_24
REMARK    8  A    between atoms: C_29  and  N_30
REMARK                            x       y       z     vdW  Elec       q    Type
REMARK                         _______ _______ _______ _____ _____    ______ ____
ROOT
ATOM      1  C   UNL     1      -0.054  12.863  19.504  0.00  0.00    +0.000 A 
ATOM      2  C   UNL     1       0.873  11.975  18.987  0.00  0.00    +0.000 A 
ATOM      3  N   UNL     1       0.535  10.725  19.411  0.00  0.00    +0.000 N 
ATOM      4  N   UNL     1      -0.632  10.733  20.092  0.00  0.00    +0.000 NA
ATOM      5  C   UNL     1      -1.008  12.020  20.162  0.00  0.00    +0.000 A 
ENDROOT
BRANCH   1  11
ATOM      6  C   UNL     1       3.955  15.647  19.623  0.00  0.00    +0.000 C 
ATOM      7  N   UNL     1       2.975  15.872  20.690  0.00  0.00    +0.000 N 
ATOM      8  C   UNL     1       3.530  15.853  22.040  0.00  0.00    +0.000 C 
ATOM      9  C   UNL     1       1.672  15.465  20.451  0.00  0.00    +0.000 C 
ATOM     10  N   UNL     1       1.327  14.835  19.380  0.00  0.00    +0.000 NA
ATOM     11  C   UNL     1      -0.061  14.359  19.312  0.00  0.00    +0.000 C 
ATOM     12  N   UNL     1      -1.059  14.970  20.207  0.00  0.00    +0.000 NA
ATOM     13  C   UNL     1      -0.564  15.620  21.194  0.00  0.00    +0.000 C 
ATOM     14  N   UNL     1      -1.373  16.188  22.125  0.00  0.00    +0.000 N 
ATOM     15  N   UNL     1       0.752  15.798  21.390  0.00  0.00    +0.000 N 
ATOM     16  H   UNL     1      -2.343  16.094  21.828  0.00  0.00    +0.000 HD
ATOM     17  H   UNL     1      -1.165  17.158  22.323  0.00  0.00    +0.000 HD
ATOM     18  H   UNL     1       1.038  16.367  22.161  0.00  0.00    +0.000 HD
ENDBRANCH   1  11
BRANCH   3  19
ATOM     19  C   UNL     1       1.216   9.499  19.177  0.00  0.00    +0.000 A 
ATOM     20  C   UNL     1       1.663   9.229  17.869  0.00  0.00    +0.000 A 
ATOM     21  C   UNL     1       2.371   8.055  17.579  0.00  0.00    +0.000 A 
ATOM     22  C   UNL     1       2.621   7.125  18.595  0.00  0.00    +0.000 A 
ATOM     23  C   UNL     1       2.173   7.359  19.899  0.00  0.00    +0.000 A 
ATOM     24  C   UNL     1       1.477   8.547  20.176  0.00  0.00    +0.000 A 
BRANCH  22  25
ATOM     25  N   UNL     1       3.339   5.880  18.289  0.00  0.00    +0.000 N 
ATOM     26  O   UNL     1       2.678   4.922  17.869  0.00  0.00    +0.000 OA
ATOM     27  O   UNL     1       4.564   5.868  18.472  0.00  0.00    +0.000 OA
ENDBRANCH  22  25
BRANCH  24  28
ATOM     28  N   UNL     1       0.916   8.649  21.509  0.00  0.00    +0.000 N 
ATOM     29  O   UNL     1       1.552   9.306  22.339  0.00  0.00    +0.000 OA
ATOM     30  O   UNL     1      -0.179   8.102  21.692  0.00  0.00    +0.000 OA
ENDBRANCH  24  28
ENDBRANCH   3  19
BRANCH   5  31
ATOM     31  C   UNL     1      -2.268  12.384  20.825  0.00  0.00    +0.000 A 
ATOM     32  C   UNL     1      -3.422  12.614  20.056  0.00  0.00    +0.000 A 
ATOM     33  C   UNL     1      -4.658  12.903  20.647  0.00  0.00    +0.000 A 
ATOM     34  C   UNL     1      -4.766  13.013  22.029  0.00  0.00    +0.000 A 
ATOM     35  C   UNL     1      -3.634  12.842  22.820  0.00  0.00    +0.000 A 
ATOM     36  C   UNL     1      -2.402  12.528  22.215  0.00  0.00    +0.000 A 
BRANCH  36  37
ATOM     37  N   UNL     1      -1.276  12.350  23.115  0.00  0.00    +0.000 N 
ATOM     38  O   UNL     1      -0.583  13.345  23.374  0.00  0.00    +0.000 OA
ATOM     39  O   UNL     1      -1.018  11.186  23.463  0.00  0.00    +0.000 OA
ENDBRANCH  36  37
ENDBRANCH   5  31
TORSDOF 6
ENDMDL
