MODEL 1
REMARK VINA RESULT:      -8.0      0.000      0.000
REMARK  Name = 
REMARK  2 active torsions:
REMARK  status: ('A' for Active; 'I' for Inactive)
REMARK    1  A    between atoms: C_1  and  O_2
REMARK    2  A    between atoms: O_2  and  C_3
REMARK                            x       y       z     vdW  Elec       q    Type
REMARK                         _______ _______ _______ _____ _____    ______ ____
ROOT
ATOM      1  C   UNL     1       6.037   4.579  15.082  0.00  0.00    +0.000 A 
ATOM      2  C   UNL     1       5.909   5.928  15.420  0.00  0.00    +0.000 A 
ATOM      3  C   UNL     1       5.118   6.308  16.512  0.00  0.00    +0.000 A 
ATOM      4  C   UNL     1       4.435   5.356  17.271  0.00  0.00    +0.000 A 
ATOM      5  C   UNL     1       4.659   4.001  16.970  0.00  0.00    +0.000 A 
ATOM      6  C   UNL     1       5.408   3.615  15.863  0.00  0.00    +0.000 A 
ATOM      7  C   UNL     1       4.090   2.963  17.869  0.00  0.00    +0.000 C 
ATOM      8  O   UNL     1       4.040   1.783  17.555  0.00  0.00    +0.000 OA
ATOM      9  C   UNL     1       3.609   3.495  19.211  0.00  0.00    +0.000 C 
ATOM     10  N   UNL     1       2.987   2.517  20.089  0.00  0.00    +0.000 N 
ATOM     11  C   UNL     1       2.435   3.010  21.235  0.00  0.00    +0.000 C 
ATOM     12  O   UNL     1       2.583   2.480  22.325  0.00  0.00    +0.000 OA
ATOM     13  N   UNL     1       1.740   4.178  21.097  0.00  0.00    +0.000 N 
ATOM     14  C   UNL     1       2.087   5.174  20.217  0.00  0.00    +0.000 C 
ATOM     15  O   UNL     1       1.832   6.351  20.471  0.00  0.00    +0.000 OA
ATOM     16  C   UNL     1       2.772   4.725  18.918  0.00  0.00    +0.000 C 
ATOM     17 BR   UNL     1       1.250   4.392  17.713  0.00  0.00    +0.000 Br
ATOM     18  N   UNL     1       3.646   5.767  18.359  0.00  0.00    +0.000 N 
ATOM     19  H   UNL     1       2.414   1.830  19.603  0.00  0.00    +0.000 HD
ATOM     20  H   UNL     1       1.343   4.518  21.963  0.00  0.00    +0.000 HD
ATOM     21  H   UNL     1       3.186   6.668  18.252  0.00  0.00    +0.000 HD
ENDROOT
BRANCH   1  23
ATOM     22  C   UNL     1       5.954   3.631  12.904  0.00  0.00    +0.000 C 
ATOM     23  O   UNL     1       6.733   4.085  14.015  0.00  0.00    +0.000 OA
ENDBRANCH   1  23
TORSDOF 1
ENDMDL
MODEL 2
REMARK VINA RESULT:      -7.9      2.407      5.916
REMARK  Name = 
REMARK  2 active torsions:
REMARK  status: ('A' for Active; 'I' for Inactive)
REMARK    1  A    between atoms: C_1  and  O_2
REMARK    2  A    between atoms: O_2  and  C_3
REMARK                            x       y       z     vdW  Elec       q    Type
REMARK                         _______ _______ _______ _____ _____    ______ ____
ROOT
ATOM      1  C   UNL     1       1.723   4.354  20.129  0.00  0.00    +0.000 A 
ATOM      2  C   UNL     1       1.893   5.732  20.273  0.00  0.00    +0.000 A 
ATOM      3  C   UNL     1       2.907   6.395  19.569  0.00  0.00    +0.000 A 
ATOM      4  C   UNL     1       3.771   5.695  18.725  0.00  0.00    +0.000 A 
ATOM      5  C   UNL     1       3.516   4.327  18.522  0.00  0.00    +0.000 A 
ATOM      6  C   UNL     1       2.540   3.652  19.248  0.00  0.00    +0.000 A 
ATOM      7  C   UNL     1       4.304   3.595  17.496  0.00  0.00    +0.000 C 
ATOM      8  O   UNL     1       4.309   2.375  17.423  0.00  0.00    +0.000 OA
ATOM      9  C   UNL     1       5.071   4.495  16.538  0.00  0.00    +0.000 C 
ATOM     10  N   UNL     1       5.904   3.811  15.563  0.00  0.00    +0.000 N 
ATOM     11  C   UNL     1       6.695   4.610  14.789  0.00  0.00    +0.000 C 
ATOM     12  O   UNL     1       6.818   4.456  13.584  0.00  0.00    +0.000 OA
ATOM     13  N   UNL     1       7.310   5.638  15.445  0.00  0.00    +0.000 N 
ATOM     14  C   UNL     1       6.743   6.325  16.491  0.00  0.00    +0.000 C 
ATOM     15  O   UNL     1       7.021   7.508  16.687  0.00  0.00    +0.000 OA
ATOM     16  C   UNL     1       5.786   5.528  17.388  0.00  0.00    +0.000 C 
ATOM     17 BR   UNL     1       6.994   4.757  18.740  0.00  0.00    +0.000 Br
ATOM     18  N   UNL     1       4.781   6.385  18.033  0.00  0.00    +0.000 N 
ATOM     19  H   UNL     1       6.365   2.978  15.923  0.00  0.00    +0.000 HD
ATOM     20  H   UNL     1       7.889   6.212  14.845  0.00  0.00    +0.000 HD
ATOM     21  H   UNL     1       5.181   7.182  18.522  0.00  0.00    +0.000 HD
ENDROOT
BRANCH   1  23
ATOM     22  C   UNL     1       1.341   2.595  21.680  0.00  0.00    +0.000 C 
ATOM     23  O   UNL     1       0.811   3.586  20.796  0.00  0.00    +0.000 OA
ENDBRANCH   1  23
TORSDOF 1
ENDMDL
MODEL 3
REMARK VINA RESULT:      -7.7      2.948      4.587
REMARK  Name = 
REMARK  2 active torsions:
REMARK  status: ('A' for Active; 'I' for Inactive)
REMARK    1  A    between atoms: C_1  and  O_2
REMARK    2  A    between atoms: O_2  and  C_3
REMARK                            x       y       z     vdW  Elec       q    Type
REMARK                         _______ _______ _______ _____ _____    ______ ____
ROOT
ATOM      1  C   UNL     1       2.108   8.795  18.381  0.00  0.00    +0.000 A 
ATOM      2  C   UNL     1       1.515   8.888  19.642  0.00  0.00    +0.000 A 
ATOM      3  C   UNL     1       1.483   7.774  20.489  0.00  0.00    +0.000 A 
ATOM      4  C   UNL     1       2.026   6.551  20.089  0.00  0.00    +0.000 A 
ATOM      5  C   UNL     1       2.702   6.512  18.857  0.00  0.00    +0.000 A 
ATOM      6  C   UNL     1       2.703   7.600  17.991  0.00  0.00    +0.000 A 
ATOM      7  C   UNL     1       3.443   5.278  18.485  0.00  0.00    +0.000 C 
ATOM      8  O   UNL     1       3.853   5.079  17.351  0.00  0.00    +0.000 OA
ATOM      9  C   UNL     1       3.667   4.312  19.639  0.00  0.00    +0.000 C 
ATOM     10  N   UNL     1       4.331   3.065  19.295  0.00  0.00    +0.000 N 
ATOM     11  C   UNL     1       4.416   2.140  20.295  0.00  0.00    +0.000 C 
ATOM     12  O   UNL     1       5.434   1.508  20.530  0.00  0.00    +0.000 OA
ATOM     13  N   UNL     1       3.294   1.998  21.061  0.00  0.00    +0.000 N 
ATOM     14  C   UNL     1       2.453   3.034  21.383  0.00  0.00    +0.000 C 
ATOM     15  O   UNL     1       1.825   3.025  22.441  0.00  0.00    +0.000 OA
ATOM     16  C   UNL     1       2.334   4.160  20.346  0.00  0.00    +0.000 C 
ATOM     17 BR   UNL     1       0.875   3.532  19.182  0.00  0.00    +0.000 Br
ATOM     18  N   UNL     1       1.977   5.448  20.960  0.00  0.00    +0.000 N 
ATOM     19  H   UNL     1       4.061   2.688  18.389  0.00  0.00    +0.000 HD
ATOM     20  H   UNL     1       3.388   1.304  21.792  0.00  0.00    +0.000 HD
ATOM     21  H   UNL     1       1.157   5.398  21.559  0.00  0.00    +0.000 HD
ENDROOT
BRANCH   1  23
ATOM     22  C   UNL     1       2.199  11.130  17.946  0.00  0.00    +0.000 C 
ATOM     23  O   UNL     1       2.158   9.790  17.446  0.00  0.00    +0.000 OA
ENDBRANCH   1  23
TORSDOF 1
ENDMDL
MODEL 4
REMARK VINA RESULT:      -7.5      2.787      6.275
REMARK  Name = 
REMARK  2 active torsions:
REMARK  status: ('A' for Active; 'I' for Inactive)
REMARK    1  A    between atoms: C_1  and  O_2
REMARK    2  A    between atoms: O_2  and  C_3
REMARK                            x       y       z     vdW  Elec       q    Type
REMARK                         _______ _______ _______ _____ _____    ______ ____
ROOT
ATOM      1  C   UNL     1       2.280   3.181  20.690  0.00  0.00    +0.000 A 
ATOM      2  C   UNL     1       3.296   2.227  20.785  0.00  0.00    +0.000 A 
ATOM      3  C   UNL     1       4.502   2.411  20.098  0.00  0.00    +0.000 A 
ATOM      4  C   UNL     1       4.709   3.537  19.299  0.00  0.00    +0.000 A 
ATOM      5  C   UNL     1       3.711   4.527  19.299  0.00  0.00    +0.000 A 
ATOM      6  C   UNL     1       2.493   4.335  19.943  0.00  0.00    +0.000 A 
ATOM      7  C   UNL     1       3.977   5.814  18.603  0.00  0.00    +0.000 C 
ATOM      8  O   UNL     1       3.092   6.620  18.360  0.00  0.00    +0.000 OA
ATOM      9  C   UNL     1       5.440   6.043  18.254  0.00  0.00    +0.000 C 
ATOM     10  N   UNL     1       5.727   7.262  17.514  0.00  0.00    +0.000 N 
ATOM     11  C   UNL     1       7.013   7.410  17.083  0.00  0.00    +0.000 C 
ATOM     12  O   UNL     1       7.630   8.459  17.181  0.00  0.00    +0.000 OA
ATOM     13  N   UNL     1       7.594   6.283  16.575  0.00  0.00    +0.000 N 
ATOM     14  C   UNL     1       7.346   5.017  17.045  0.00  0.00    +0.000 C 
ATOM     15  O   UNL     1       8.214   4.146  16.985  0.00  0.00    +0.000 OA
ATOM     16  C   UNL     1       5.942   4.765  17.611  0.00  0.00    +0.000 C 
ATOM     17 BR   UNL     1       4.921   4.214  16.018  0.00  0.00    +0.000 Br
ATOM     18  N   UNL     1       5.929   3.694  18.619  0.00  0.00    +0.000 N 
ATOM     19  H   UNL     1       5.017   7.505  16.826  0.00  0.00    +0.000 HD
ATOM     20  H   UNL     1       8.547   6.424  16.263  0.00  0.00    +0.000 HD
ATOM     21  H   UNL     1       6.369   2.834  18.301  0.00  0.00    +0.000 HD
ENDROOT
BRANCH   1  23
ATOM     22  C   UNL     1       0.949   2.287  22.444  0.00  0.00    +0.000 C 
ATOM     23  O   UNL     1       1.045   3.093  21.266  0.00  0.00    +0.000 OA
ENDBRANCH   1  23
TORSDOF 1
ENDMDL
MODEL 5
REMARK VINA RESULT:      -7.4      3.232      5.882
REMARK  Name = 
REMARK  2 active torsions:
REMARK  status: ('A' for Active; 'I' for Inactive)
REMARK    1  A    between atoms: C_1  and  O_2
REMARK    2  A    between atoms: O_2  and  C_3
REMARK                            x       y       z     vdW  Elec       q    Type
REMARK                         _______ _______ _______ _____ _____    ______ ____
ROOT
ATOM      1  C   UNL     1       1.054   9.497  19.157  0.00  0.00    +0.000 A 
ATOM      2  C   UNL     1       0.875   8.869  20.391  0.00  0.00    +0.000 A 
ATOM      3  C   UNL     1       1.527   7.662  20.669  0.00  0.00    +0.000 A 
ATOM      4  C   UNL     1       2.354   7.057  19.720  0.00  0.00    +0.000 A 
ATOM      5  C   UNL     1       2.595   7.759  18.526  0.00  0.00    +0.000 A 
ATOM      6  C   UNL     1       1.920   8.937  18.223  0.00  0.00    +0.000 A 
ATOM      7  C   UNL     1       3.607   7.229  17.574  0.00  0.00    +0.000 C 
ATOM      8  O   UNL     1       3.706   7.642  16.428  0.00  0.00    +0.000 OA
ATOM      9  C   UNL     1       4.517   6.160  18.162  0.00  0.00    +0.000 C 
ATOM     10  N   UNL     1       5.476   5.574  17.240  0.00  0.00    +0.000 N 
ATOM     11  C   UNL     1       6.204   4.525  17.723  0.00  0.00    +0.000 C 
ATOM     12  O   UNL     1       7.406   4.413  17.545  0.00  0.00    +0.000 OA
ATOM     13  N   UNL     1       5.504   3.621  18.472  0.00  0.00    +0.000 N 
ATOM     14  C   UNL     1       4.465   3.960  19.303  0.00  0.00    +0.000 C 
ATOM     15  O   UNL     1       4.234   3.300  20.316  0.00  0.00    +0.000 OA
ATOM     16  C   UNL     1       3.621   5.169  18.879  0.00  0.00    +0.000 C 
ATOM     17 BR   UNL     1       2.242   4.358  17.729  0.00  0.00    +0.000 Br
ATOM     18  N   UNL     1       2.994   5.843  20.025  0.00  0.00    +0.000 N 
ATOM     19  H   UNL     1       5.117   5.443  16.297  0.00  0.00    +0.000 HD
ATOM     20  H   UNL     1       6.070   2.855  18.815  0.00  0.00    +0.000 HD
ATOM     21  H   UNL     1       2.474   5.214  20.631  0.00  0.00    +0.000 HD
ENDROOT
BRANCH   1  23
ATOM     22  C   UNL     1      -0.968  10.734  18.997  0.00  0.00    +0.000 C 
ATOM     23  O   UNL     1       0.438  10.645  18.746  0.00  0.00    +0.000 OA
ENDBRANCH   1  23
TORSDOF 1
ENDMDL
MODEL 6
REMARK VINA RESULT:      -7.3      2.693      5.606
REMARK  Name = 
REMARK  2 active torsions:
REMARK  status: ('A' for Active; 'I' for Inactive)
REMARK    1  A    between atoms: C_1  and  O_2
REMARK    2  A    between atoms: O_2  and  C_3
REMARK                            x       y       z     vdW  Elec       q    Type
REMARK                         _______ _______ _______ _____ _____    ______ ____
ROOT
ATOM      1  C   UNL     1       1.312   8.883  20.013  0.00  0.00    +0.000 A 
ATOM      2  C   UNL     1       1.613   9.227  18.693  0.00  0.00    +0.000 A 
ATOM      3  C   UNL     1       2.293   8.324  17.867  0.00  0.00    +0.000 A 
ATOM      4  C   UNL     1       2.695   7.074  18.345  0.00  0.00    +0.000 A 
ATOM      5  C   UNL     1       2.294   6.716  19.644  0.00  0.00    +0.000 A 
ATOM      6  C   UNL     1       1.655   7.621  20.486  0.00  0.00    +0.000 A 
ATOM      7  C   UNL     1       2.551   5.330  20.117  0.00  0.00    +0.000 C 
ATOM      8  O   UNL     1       2.448   5.011  21.292  0.00  0.00    +0.000 OA
ATOM      9  C   UNL     1       2.918   4.351  19.011  0.00  0.00    +0.000 C 
ATOM     10  N   UNL     1       3.240   3.002  19.447  0.00  0.00    +0.000 N 
ATOM     11  C   UNL     1       3.698   2.156  18.479  0.00  0.00    +0.000 C 
ATOM     12  O   UNL     1       3.311   1.003  18.367  0.00  0.00    +0.000 OA
ATOM     13  N   UNL     1       4.589   2.700  17.598  0.00  0.00    +0.000 N 
ATOM     14  C   UNL     1       4.540   4.003  17.168  0.00  0.00    +0.000 C 
ATOM     15  O   UNL     1       4.948   4.308  16.048  0.00  0.00    +0.000 OA
ATOM     16  C   UNL     1       3.980   5.027  18.166  0.00  0.00    +0.000 C 
ATOM     17 BR   UNL     1       5.581   5.575  19.175  0.00  0.00    +0.000 Br
ATOM     18  N   UNL     1       3.379   6.189  17.495  0.00  0.00    +0.000 N 
ATOM     19  H   UNL     1       3.753   2.961  20.325  0.00  0.00    +0.000 HD
ATOM     20  H   UNL     1       4.911   2.048  16.894  0.00  0.00    +0.000 HD
ATOM     21  H   UNL     1       3.993   6.624  16.811  0.00  0.00    +0.000 HD
ENDROOT
BRANCH   1  23
ATOM     22  C   UNL     1       0.806   9.287  22.299  0.00  0.00    +0.000 C 
ATOM     23  O   UNL     1       0.702   9.690  20.930  0.00  0.00    +0.000 OA
ENDBRANCH   1  23
TORSDOF 1
ENDMDL
MODEL 7
REMARK VINA RESULT:      -7.1      3.736      4.579
REMARK  Name = 
REMARK  2 active torsions:
REMARK  status: ('A' for Active; 'I' for Inactive)
REMARK    1  A    between atoms: C_1  and  O_2
REMARK    2  A    between atoms: O_2  and  C_3
REMARK                            x       y       z     vdW  Elec       q    Type
REMARK                         _______ _______ _______ _____ _____    ______ ____
ROOT
ATOM      1  C   UNL     1       6.132   3.140  12.386  0.00  0.00    +0.000 A 
ATOM      2  C   UNL     1       7.017   4.143  11.983  0.00  0.00    +0.000 A 
ATOM      3  C   UNL     1       7.472   5.094  12.904  0.00  0.00    +0.000 A 
ATOM      4  C   UNL     1       7.045   5.069  14.233  0.00  0.00    +0.000 A 
ATOM      5  C   UNL     1       6.233   3.993  14.635  0.00  0.00    +0.000 A 
ATOM      6  C   UNL     1       5.742   3.068  13.719  0.00  0.00    +0.000 A 
ATOM      7  C   UNL     1       5.908   3.840  16.078  0.00  0.00    +0.000 C 
ATOM      8  O   UNL     1       5.034   3.083  16.474  0.00  0.00    +0.000 OA
ATOM      9  C   UNL     1       6.775   4.679  17.005  0.00  0.00    +0.000 C 
ATOM     10  N   UNL     1       6.441   4.603  18.418  0.00  0.00    +0.000 N 
ATOM     11  C   UNL     1       7.125   5.451  19.239  0.00  0.00    +0.000 C 
ATOM     12  O   UNL     1       7.596   5.103  20.311  0.00  0.00    +0.000 OA
ATOM     13  N   UNL     1       7.298   6.719  18.761  0.00  0.00    +0.000 N 
ATOM     14  C   UNL     1       7.489   7.014  17.433  0.00  0.00    +0.000 C 
ATOM     15  O   UNL     1       8.156   7.993  17.100  0.00  0.00    +0.000 OA
ATOM     16  C   UNL     1       6.808   6.079  16.424  0.00  0.00    +0.000 C 
ATOM     17 BR   UNL     1       5.030   6.897  16.199  0.00  0.00    +0.000 Br
ATOM     18  N   UNL     1       7.516   6.038  15.136  0.00  0.00    +0.000 N 
ATOM     19  H   UNL     1       5.442   4.543  18.605  0.00  0.00    +0.000 HD
ATOM     20  H   UNL     1       7.808   7.324  19.392  0.00  0.00    +0.000 HD
ATOM     21  H   UNL     1       7.691   6.958  14.740  0.00  0.00    +0.000 HD
ENDROOT
BRANCH   1  23
ATOM     22  C   UNL     1       6.443   1.131  11.155  0.00  0.00    +0.000 C 
ATOM     23  O   UNL     1       5.578   2.190  11.577  0.00  0.00    +0.000 OA
ENDBRANCH   1  23
TORSDOF 1
ENDMDL
MODEL 8
REMARK VINA RESULT:      -7.0      2.267      5.880
REMARK  Name = 
REMARK  2 active torsions:
REMARK  status: ('A' for Active; 'I' for Inactive)
REMARK    1  A    between atoms: C_1  and  O_2
REMARK    2  A    between atoms: O_2  and  C_3
REMARK                            x       y       z     vdW  Elec       q    Type
REMARK                         _______ _______ _______ _____ _____    ______ ____
ROOT
ATOM      1  C   UNL     1       2.262   4.380  20.975  0.00  0.00    +0.000 A 
ATOM      2  C   UNL     1       1.765   5.606  20.529  0.00  0.00    +0.000 A 
ATOM      3  C   UNL     1       2.285   6.199  19.371  0.00  0.00    +0.000 A 
ATOM      4  C   UNL     1       3.314   5.588  18.652  0.00  0.00    +0.000 A 
ATOM      5  C   UNL     1       3.728   4.309  19.067  0.00  0.00    +0.000 A 
ATOM      6  C   UNL     1       3.247   3.732  20.237  0.00  0.00    +0.000 A 
ATOM      7  C   UNL     1       4.692   3.558  18.220  0.00  0.00    +0.000 C 
ATOM      8  O   UNL     1       5.272   2.559  18.620  0.00  0.00    +0.000 OA
ATOM      9  C   UNL     1       4.864   4.123  16.818  0.00  0.00    +0.000 C 
ATOM     10  N   UNL     1       5.849   3.452  15.986  0.00  0.00    +0.000 N 
ATOM     11  C   UNL     1       6.105   4.032  14.778  0.00  0.00    +0.000 C 
ATOM     12  O   UNL     1       6.197   3.395  13.741  0.00  0.00    +0.000 OA
ATOM     13  N   UNL     1       6.201   5.395  14.790  0.00  0.00    +0.000 N 
ATOM     14  C   UNL     1       5.454   6.206  15.609  0.00  0.00    +0.000 C 
ATOM     15  O   UNL     1       5.149   7.344  15.253  0.00  0.00    +0.000 OA
ATOM     16  C   UNL     1       5.061   5.619  16.972  0.00  0.00    +0.000 C 
ATOM     17 BR   UNL     1       6.585   6.115  18.117  0.00  0.00    +0.000 Br
ATOM     18  N   UNL     1       3.819   6.207  17.495  0.00  0.00    +0.000 N 
ATOM     19  H   UNL     1       6.676   3.141  16.491  0.00  0.00    +0.000 HD
ATOM     20  H   UNL     1       6.392   5.796  13.880  0.00  0.00    +0.000 HD
ATOM     21  H   UNL     1       3.826   7.223  17.510  0.00  0.00    +0.000 HD
ENDROOT
BRANCH   1  23
ATOM     22  C   UNL     1       1.510   2.352  21.960  0.00  0.00    +0.000 C 
ATOM     23  O   UNL     1       1.877   3.727  22.111  0.00  0.00    +0.000 OA
ENDBRANCH   1  23
TORSDOF 1
ENDMDL
MODEL 9
REMARK VINA RESULT:      -7.0      2.634      3.856
REMARK  Name = 
REMARK  2 active torsions:
REMARK  status: ('A' for Active; 'I' for Inactive)
REMARK    1  A    between atoms: C_1  and  O_2
REMARK    2  A    between atoms: O_2  and  C_3
REMARK                            x       y       z     vdW  Elec       q    Type
REMARK                         _______ _______ _______ _____ _____    ______ ____
ROOT
ATOM      1  C   UNL     1       6.596   7.105  17.153  0.00  0.00    +0.000 A 
ATOM      2  C   UNL     1       7.281   5.993  16.657  0.00  0.00    +0.000 A 
ATOM      3  C   UNL     1       6.748   4.708  16.817  0.00  0.00    +0.000 A 
ATOM      4  C   UNL     1       5.536   4.510  17.483  0.00  0.00    +0.000 A 
ATOM      5  C   UNL     1       4.821   5.652  17.884  0.00  0.00    +0.000 A 
ATOM      6  C   UNL     1       5.361   6.929  17.768  0.00  0.00    +0.000 A 
ATOM      7  C   UNL     1       3.450   5.483  18.434  0.00  0.00    +0.000 C 
ATOM      8  O   UNL     1       2.862   6.384  19.013  0.00  0.00    +0.000 OA
ATOM      9  C   UNL     1       2.842   4.111  18.183  0.00  0.00    +0.000 C 
ATOM     10  N   UNL     1       1.527   3.889  18.763  0.00  0.00    +0.000 N 
ATOM     11  C   UNL     1       1.034   2.622  18.656  0.00  0.00    +0.000 C 
ATOM     12  O   UNL     1      -0.119   2.382  18.336  0.00  0.00    +0.000 OA
ATOM     13  N   UNL     1       1.935   1.620  18.884  0.00  0.00    +0.000 N 
ATOM     14  C   UNL     1       3.262   1.693  18.535  0.00  0.00    +0.000 C 
ATOM     15  O   UNL     1       3.888   0.675  18.241  0.00  0.00    +0.000 OA
ATOM     16  C   UNL     1       3.897   3.090  18.564  0.00  0.00    +0.000 C 
ATOM     17 BR   UNL     1       4.529   3.245  20.424  0.00  0.00    +0.000 Br
ATOM     18  N   UNL     1       5.027   3.209  17.631  0.00  0.00    +0.000 N 
ATOM     19  H   UNL     1       1.401   4.319  19.677  0.00  0.00    +0.000 HD
ATOM     20  H   UNL     1       1.540   0.692  18.798  0.00  0.00    +0.000 HD
ATOM     21  H   UNL     1       5.723   2.475  17.741  0.00  0.00    +0.000 HD
ENDROOT
BRANCH   1  23
ATOM     22  C   UNL     1       8.161   8.717  17.926  0.00  0.00    +0.000 C 
ATOM     23  O   UNL     1       7.032   8.399  17.107  0.00  0.00    +0.000 OA
ENDBRANCH   1  23
TORSDOF 1
ENDMDL
