MODEL 1
REMARK VINA RESULT:      -6.5      0.000      0.000
REMARK  Name = 
REMARK  2 active torsions:
REMARK  status: ('A' for Active; 'I' for Inactive)
REMARK    1  A    between atoms: C_1  and  O_2
REMARK    2  A    between atoms: O_2  and  C_3
REMARK                            x       y       z     vdW  Elec       q    Type
REMARK                         _______ _______ _______ _____ _____    ______ ____
ROOT
ATOM      1  C   UNL     1       2.383   3.539  18.234  0.00  0.00    +0.000 A 
ATOM      2  C   UNL     1       2.886   3.817  19.506  0.00  0.00    +0.000 A 
ATOM      3  C   UNL     1       4.235   4.149  19.671  0.00  0.00    +0.000 A 
ATOM      4  C   UNL     1       5.081   4.203  18.567  0.00  0.00    +0.000 A 
ATOM      5  C   UNL     1       4.576   3.934  17.311  0.00  0.00    +0.000 A 
ATOM      6  C   UNL     1       3.236   3.589  17.130  0.00  0.00    +0.000 A 
ATOM      7  C   UNL     1       5.492   3.961  16.187  0.00  0.00    +0.000 C 
ATOM      8  N   UNL     1       6.731   4.304  16.247  0.00  0.00    +0.000 NA
ATOM      9  S   UNL     1       7.443   4.840  17.600  0.00  0.00    +0.000 S 
ATOM     10  O   UNL     1       7.517   6.286  17.538  0.00  0.00    +0.000 OA
ATOM     11  O   UNL     1       8.638   4.052  17.822  0.00  0.00    +0.000 OA
ATOM     12  O   UNL     1       6.398   4.456  18.788  0.00  0.00    +0.000 OA
ENDROOT
BRANCH   1  14
ATOM     13  C   UNL     1       0.487   2.280  18.888  0.00  0.00    +0.000 C 
ATOM     14  O   UNL     1       1.098   3.163  17.953  0.00  0.00    +0.000 OA
ENDBRANCH   1  14
TORSDOF 1
ENDMDL
MODEL 2
REMARK VINA RESULT:      -6.4      2.096      2.442
REMARK  Name = 
REMARK  2 active torsions:
REMARK  status: ('A' for Active; 'I' for Inactive)
REMARK    1  A    between atoms: C_1  and  O_2
REMARK    2  A    between atoms: O_2  and  C_3
REMARK                            x       y       z     vdW  Elec       q    Type
REMARK                         _______ _______ _______ _____ _____    ______ ____
ROOT
ATOM      1  C   UNL     1       2.639   4.743  18.878  0.00  0.00    +0.000 A 
ATOM      2  C   UNL     1       2.742   3.514  18.224  0.00  0.00    +0.000 A 
ATOM      3  C   UNL     1       3.737   3.311  17.262  0.00  0.00    +0.000 A 
ATOM      4  C   UNL     1       4.628   4.334  16.953  0.00  0.00    +0.000 A 
ATOM      5  C   UNL     1       4.527   5.545  17.608  0.00  0.00    +0.000 A 
ATOM      6  C   UNL     1       3.532   5.769  18.561  0.00  0.00    +0.000 A 
ATOM      7  C   UNL     1       5.446   6.603  17.235  0.00  0.00    +0.000 C 
ATOM      8  N   UNL     1       6.417   6.482  16.399  0.00  0.00    +0.000 NA
ATOM      9  S   UNL     1       6.809   5.081  15.686  0.00  0.00    +0.000 S 
ATOM     10  O   UNL     1       7.943   4.510  16.387  0.00  0.00    +0.000 OA
ATOM     11  O   UNL     1       6.867   5.305  14.256  0.00  0.00    +0.000 OA
ATOM     12  O   UNL     1       5.529   4.114  15.959  0.00  0.00    +0.000 OA
ENDROOT
BRANCH   1  14
ATOM     13  C   UNL     1       0.927   3.992  20.331  0.00  0.00    +0.000 C 
ATOM     14  O   UNL     1       1.686   5.074  19.801  0.00  0.00    +0.000 OA
ENDBRANCH   1  14
TORSDOF 1
ENDMDL
MODEL 3
REMARK VINA RESULT:      -6.4      2.874      5.377
REMARK  Name = 
REMARK  2 active torsions:
REMARK  status: ('A' for Active; 'I' for Inactive)
REMARK    1  A    between atoms: C_1  and  O_2
REMARK    2  A    between atoms: O_2  and  C_3
REMARK                            x       y       z     vdW  Elec       q    Type
REMARK                         _______ _______ _______ _____ _____    ______ ____
ROOT
ATOM      1  C   UNL     1       6.668   5.960  16.650  0.00  0.00    +0.000 A 
ATOM      2  C   UNL     1       6.470   4.902  15.762  0.00  0.00    +0.000 A 
ATOM      3  C   UNL     1       5.382   4.038  15.929  0.00  0.00    +0.000 A 
ATOM      4  C   UNL     1       4.492   4.232  16.982  0.00  0.00    +0.000 A 
ATOM      5  C   UNL     1       4.689   5.285  17.852  0.00  0.00    +0.000 A 
ATOM      6  C   UNL     1       5.777   6.147  17.708  0.00  0.00    +0.000 A 
ATOM      7  C   UNL     1       3.767   5.436  18.962  0.00  0.00    +0.000 C 
ATOM      8  N   UNL     1       2.717   4.717  19.157  0.00  0.00    +0.000 NA
ATOM      9  S   UNL     1       2.220   3.567  18.129  0.00  0.00    +0.000 S 
ATOM     10  O   UNL     1       1.145   4.108  17.320  0.00  0.00    +0.000 OA
ATOM     11  O   UNL     1       2.031   2.344  18.881  0.00  0.00    +0.000 OA
ATOM     12  O   UNL     1       3.495   3.324  17.146  0.00  0.00    +0.000 OA
ENDROOT
BRANCH   1  14
ATOM     13  C   UNL     1       7.688   7.882  17.586  0.00  0.00    +0.000 C 
ATOM     14  O   UNL     1       7.714   6.840  16.615  0.00  0.00    +0.000 OA
ENDBRANCH   1  14
TORSDOF 1
ENDMDL
MODEL 4
REMARK VINA RESULT:      -6.3      3.042      5.231
REMARK  Name = 
REMARK  2 active torsions:
REMARK  status: ('A' for Active; 'I' for Inactive)
REMARK    1  A    between atoms: C_1  and  O_2
REMARK    2  A    between atoms: O_2  and  C_3
REMARK                            x       y       z     vdW  Elec       q    Type
REMARK                         _______ _______ _______ _____ _____    ______ ____
ROOT
ATOM      1  C   UNL     1       4.797   6.296  17.092  0.00  0.00    +0.000 A 
ATOM      2  C   UNL     1       3.727   6.992  17.657  0.00  0.00    +0.000 A 
ATOM      3  C   UNL     1       2.646   6.295  18.206  0.00  0.00    +0.000 A 
ATOM      4  C   UNL     1       2.632   4.904  18.191  0.00  0.00    +0.000 A 
ATOM      5  C   UNL     1       3.695   4.220  17.637  0.00  0.00    +0.000 A 
ATOM      6  C   UNL     1       4.776   4.900  17.073  0.00  0.00    +0.000 A 
ATOM      7  C   UNL     1       3.632   2.771  17.601  0.00  0.00    +0.000 C 
ATOM      8  N   UNL     1       2.700   2.056  18.126  0.00  0.00    +0.000 NA
ATOM      9  S   UNL     1       1.477   2.678  18.988  0.00  0.00    +0.000 S 
ATOM     10  O   UNL     1       1.776   2.509  20.397  0.00  0.00    +0.000 OA
ATOM     11  O   UNL     1       0.236   2.178  18.435  0.00  0.00    +0.000 OA
ATOM     12  O   UNL     1       1.527   4.274  18.668  0.00  0.00    +0.000 OA
ENDROOT
BRANCH   1  14
ATOM     13  C   UNL     1       7.113   6.775  17.204  0.00  0.00    +0.000 C 
ATOM     14  O   UNL     1       5.884   6.864  16.489  0.00  0.00    +0.000 OA
ENDBRANCH   1  14
TORSDOF 1
ENDMDL
MODEL 5
REMARK VINA RESULT:      -6.3      1.491      2.334
REMARK  Name = 
REMARK  2 active torsions:
REMARK  status: ('A' for Active; 'I' for Inactive)
REMARK    1  A    between atoms: C_1  and  O_2
REMARK    2  A    between atoms: O_2  and  C_3
REMARK                            x       y       z     vdW  Elec       q    Type
REMARK                         _______ _______ _______ _____ _____    ______ ____
ROOT
ATOM      1  C   UNL     1       2.642   3.065  18.997  0.00  0.00    +0.000 A 
ATOM      2  C   UNL     1       2.615   2.914  17.610  0.00  0.00    +0.000 A 
ATOM      3  C   UNL     1       3.624   3.478  16.821  0.00  0.00    +0.000 A 
ATOM      4  C   UNL     1       4.658   4.193  17.417  0.00  0.00    +0.000 A 
ATOM      5  C   UNL     1       4.684   4.333  18.790  0.00  0.00    +0.000 A 
ATOM      6  C   UNL     1       3.679   3.788  19.591  0.00  0.00    +0.000 A 
ATOM      7  C   UNL     1       5.754   5.117  19.377  0.00  0.00    +0.000 C 
ATOM      8  N   UNL     1       6.743   5.625  18.729  0.00  0.00    +0.000 NA
ATOM      9  S   UNL     1       6.983   5.394  17.143  0.00  0.00    +0.000 S 
ATOM     10  O   UNL     1       7.992   4.366  16.976  0.00  0.00    +0.000 OA
ATOM     11  O   UNL     1       7.144   6.691  16.519  0.00  0.00    +0.000 OA
ATOM     12  O   UNL     1       5.572   4.785  16.605  0.00  0.00    +0.000 OA
ENDROOT
BRANCH   1  14
ATOM     13  C   UNL     1       1.409   3.430  20.986  0.00  0.00    +0.000 C 
ATOM     14  O   UNL     1       1.695   2.598  19.866  0.00  0.00    +0.000 OA
ENDBRANCH   1  14
TORSDOF 1
ENDMDL
MODEL 6
REMARK VINA RESULT:      -6.2      2.707      4.953
REMARK  Name = 
REMARK  2 active torsions:
REMARK  status: ('A' for Active; 'I' for Inactive)
REMARK    1  A    between atoms: C_1  and  O_2
REMARK    2  A    between atoms: O_2  and  C_3
REMARK                            x       y       z     vdW  Elec       q    Type
REMARK                         _______ _______ _______ _____ _____    ______ ____
ROOT
ATOM      1  C   UNL     1       6.692   4.707  16.801  0.00  0.00    +0.000 A 
ATOM      2  C   UNL     1       7.007   5.201  18.068  0.00  0.00    +0.000 A 
ATOM      3  C   UNL     1       6.052   5.176  19.089  0.00  0.00    +0.000 A 
ATOM      4  C   UNL     1       4.784   4.657  18.846  0.00  0.00    +0.000 A 
ATOM      5  C   UNL     1       4.480   4.164  17.593  0.00  0.00    +0.000 A 
ATOM      6  C   UNL     1       5.417   4.193  16.560  0.00  0.00    +0.000 A 
ATOM      7  C   UNL     1       3.138   3.666  17.361  0.00  0.00    +0.000 C 
ATOM      8  N   UNL     1       2.219   3.563  18.258  0.00  0.00    +0.000 NA
ATOM      9  S   UNL     1       2.459   3.908  19.823  0.00  0.00    +0.000 S 
ATOM     10  O   UNL     1       2.664   2.665  20.541  0.00  0.00    +0.000 OA
ATOM     11  O   UNL     1       1.429   4.837  20.241  0.00  0.00    +0.000 OA
ATOM     12  O   UNL     1       3.867   4.723  19.847  0.00  0.00    +0.000 OA
ENDROOT
BRANCH   1  14
ATOM     13  C   UNL     1       6.889   4.722  14.441  0.00  0.00    +0.000 C 
ATOM     14  O   UNL     1       7.524   4.717  15.715  0.00  0.00    +0.000 OA
ENDBRANCH   1  14
TORSDOF 1
ENDMDL
MODEL 7
REMARK VINA RESULT:      -6.1      2.558      2.877
REMARK  Name = 
REMARK  2 active torsions:
REMARK  status: ('A' for Active; 'I' for Inactive)
REMARK    1  A    between atoms: C_1  and  O_2
REMARK    2  A    between atoms: O_2  and  C_3
REMARK                            x       y       z     vdW  Elec       q    Type
REMARK                         _______ _______ _______ _____ _____    ______ ____
ROOT
ATOM      1  C   UNL     1       3.004   5.556  19.201  0.00  0.00    +0.000 A 
ATOM      2  C   UNL     1       3.303   4.196  19.288  0.00  0.00    +0.000 A 
ATOM      3  C   UNL     1       4.180   3.608  18.369  0.00  0.00    +0.000 A 
ATOM      4  C   UNL     1       4.758   4.380  17.366  0.00  0.00    +0.000 A 
ATOM      5  C   UNL     1       4.465   5.726  17.289  0.00  0.00    +0.000 A 
ATOM      6  C   UNL     1       3.582   6.325  18.188  0.00  0.00    +0.000 A 
ATOM      7  C   UNL     1       5.053   6.494  16.208  0.00  0.00    +0.000 C 
ATOM      8  N   UNL     1       5.905   6.042  15.355  0.00  0.00    +0.000 NA
ATOM      9  S   UNL     1       6.515   4.542  15.414  0.00  0.00    +0.000 S 
ATOM     10  O   UNL     1       7.834   4.605  16.014  0.00  0.00    +0.000 OA
ATOM     11  O   UNL     1       6.327   3.929  14.115  0.00  0.00    +0.000 OA
ATOM     12  O   UNL     1       5.545   3.750  16.454  0.00  0.00    +0.000 OA
ENDROOT
BRANCH   1  14
ATOM     13  C   UNL     1       2.054   7.639  19.809  0.00  0.00    +0.000 C 
ATOM     14  O   UNL     1       2.132   6.231  20.010  0.00  0.00    +0.000 OA
ENDBRANCH   1  14
TORSDOF 1
ENDMDL
MODEL 8
REMARK VINA RESULT:      -6.1      3.027      4.993
REMARK  Name = 
REMARK  2 active torsions:
REMARK  status: ('A' for Active; 'I' for Inactive)
REMARK    1  A    between atoms: C_1  and  O_2
REMARK    2  A    between atoms: O_2  and  C_3
REMARK                            x       y       z     vdW  Elec       q    Type
REMARK                         _______ _______ _______ _____ _____    ______ ____
ROOT
ATOM      1  C   UNL     1       5.182   5.627  16.244  0.00  0.00    +0.000 A 
ATOM      2  C   UNL     1       4.522   6.610  16.985  0.00  0.00    +0.000 A 
ATOM      3  C   UNL     1       3.584   6.246  17.957  0.00  0.00    +0.000 A 
ATOM      4  C   UNL     1       3.305   4.903  18.190  0.00  0.00    +0.000 A 
ATOM      5  C   UNL     1       3.965   3.936  17.460  0.00  0.00    +0.000 A 
ATOM      6  C   UNL     1       4.894   4.280  16.478  0.00  0.00    +0.000 A 
ATOM      7  C   UNL     1       3.623   2.546  17.699  0.00  0.00    +0.000 C 
ATOM      8  N   UNL     1       2.810   2.128  18.606  0.00  0.00    +0.000 NA
ATOM      9  S   UNL     1       2.097   3.106  19.683  0.00  0.00    +0.000 S 
ATOM     10  O   UNL     1       2.822   3.016  20.936  0.00  0.00    +0.000 OA
ATOM     11  O   UNL     1       0.671   2.857  19.641  0.00  0.00    +0.000 OA
ATOM     12  O   UNL     1       2.332   4.603  19.090  0.00  0.00    +0.000 OA
ENDROOT
BRANCH   1  14
ATOM     13  C   UNL     1       6.760   4.713  14.733  0.00  0.00    +0.000 C 
ATOM     14  O   UNL     1       6.083   5.858  15.243  0.00  0.00    +0.000 OA
ENDBRANCH   1  14
TORSDOF 1
ENDMDL
MODEL 9
REMARK VINA RESULT:      -6.1      2.204      2.686
REMARK  Name = 
REMARK  2 active torsions:
REMARK  status: ('A' for Active; 'I' for Inactive)
REMARK    1  A    between atoms: C_1  and  O_2
REMARK    2  A    between atoms: O_2  and  C_3
REMARK                            x       y       z     vdW  Elec       q    Type
REMARK                         _______ _______ _______ _____ _____    ______ ____
ROOT
ATOM      1  C   UNL     1       3.186   4.399  19.375  0.00  0.00    +0.000 A 
ATOM      2  C   UNL     1       2.640   5.206  18.375  0.00  0.00    +0.000 A 
ATOM      3  C   UNL     1       3.463   6.061  17.634  0.00  0.00    +0.000 A 
ATOM      4  C   UNL     1       4.829   6.110  17.892  0.00  0.00    +0.000 A 
ATOM      5  C   UNL     1       5.365   5.305  18.876  0.00  0.00    +0.000 A 
ATOM      6  C   UNL     1       4.557   4.456  19.633  0.00  0.00    +0.000 A 
ATOM      7  C   UNL     1       6.786   5.408  19.147  0.00  0.00    +0.000 C 
ATOM      8  N   UNL     1       7.618   6.131  18.480  0.00  0.00    +0.000 NA
ATOM      9  S   UNL     1       7.202   6.986  17.168  0.00  0.00    +0.000 S 
ATOM     10  O   UNL     1       7.604   6.244  15.989  0.00  0.00    +0.000 OA
ATOM     11  O   UNL     1       7.645   8.351  17.363  0.00  0.00    +0.000 OA
ATOM     12  O   UNL     1       5.575   7.010  17.198  0.00  0.00    +0.000 OA
ENDROOT
BRANCH   1  14
ATOM     13  C   UNL     1       1.063   3.597  20.052  0.00  0.00    +0.000 C 
ATOM     14  O   UNL     1       2.480   3.558  20.190  0.00  0.00    +0.000 OA
ENDBRANCH   1  14
TORSDOF 1
ENDMDL
