MODEL 1
REMARK VINA RESULT:      -9.4      0.000      0.000
REMARK  Name = 
REMARK  6 active torsions:
REMARK  status: ('A' for Active; 'I' for Inactive)
REMARK    1  A    between atoms: C_2  and  C_4
REMARK    2  A    between atoms: C_4  and  N_5
REMARK    3  A    between atoms: C_11  and  C_12
REMARK    4  A    between atoms: C_12  and  N_13
REMARK    5  A    between atoms: C_17  and  N_18
REMARK    6  A    between atoms: N_18  and  C_19
REMARK                            x       y       z     vdW  Elec       q    Type
REMARK                         _______ _______ _______ _____ _____    ______ ____
ROOT
ATOM      1  N   UNL     1       2.409   3.941  20.236  0.00  0.00    +0.000 NA
ATOM      2  C   UNL     1       1.117   3.692  19.598  0.00  0.00    +0.000 C 
ATOM      3  C   UNL     1       1.094   2.434  18.742  0.00  0.00    +0.000 C 
ATOM      4  C   UNL     1       2.228   2.431  17.729  0.00  0.00    +0.000 C 
ATOM      5  C   UNL     1       3.594   2.530  18.420  0.00  0.00    +0.000 C 
ATOM      6  C   UNL     1       3.597   3.709  19.415  0.00  0.00    +0.000 C 
ENDROOT
BRANCH   5   7
ATOM      7  N   UNL     1       4.664   2.765  17.415  0.00  0.00    +0.000 N 
ATOM      8  H   UNL     1       4.431   2.404  16.493  0.00  0.00    +0.000 HD
BRANCH   7   9
ATOM      9  C   UNL     1       5.218   4.053  17.314  0.00  0.00    +0.000 A 
ATOM     10  C   UNL     1       4.776   4.905  16.288  0.00  0.00    +0.000 A 
ATOM     11  C   UNL     1       5.323   6.184  16.090  0.00  0.00    +0.000 A 
ATOM     12  C   UNL     1       6.342   6.573  16.960  0.00  0.00    +0.000 A 
ATOM     13  N   UNL     1       7.082   7.713  17.058  0.00  0.00    +0.000 N 
ATOM     14  N   UNL     1       7.984   7.710  18.062  0.00  0.00    +0.000 NA
ATOM     15  C   UNL     1       7.826   6.498  18.610  0.00  0.00    +0.000 A 
ATOM     16  C   UNL     1       6.821   5.750  17.961  0.00  0.00    +0.000 A 
ATOM     17  C   UNL     1       6.271   4.472  18.124  0.00  0.00    +0.000 A 
ATOM     18  H   UNL     1       7.016   8.548  16.488  0.00  0.00    +0.000 HD
ENDBRANCH   7   9
ENDBRANCH   5   7
BRANCH   1  19
ATOM     19  C   UNL     1       2.439   5.251  20.922  0.00  0.00    +0.000 C 
BRANCH  19  26
ATOM     20  N   UNL     1       0.625   9.915  20.050  0.00  0.00    +0.000 N 
ATOM     21  C   UNL     1       0.769  10.766  18.980  0.00  0.00    +0.000 A 
ATOM     22  C   UNL     1       1.509  10.122  18.020  0.00  0.00    +0.000 A 
ATOM     23  C   UNL     1       1.851   8.851  18.535  0.00  0.00    +0.000 A 
ATOM     24  C   UNL     1       2.592   7.791  18.013  0.00  0.00    +0.000 A 
ATOM     25  C   UNL     1       2.791   6.655  18.797  0.00  0.00    +0.000 A 
ATOM     26  C   UNL     1       2.223   6.505  20.073  0.00  0.00    +0.000 A 
ATOM     27  C   UNL     1       1.463   7.571  20.594  0.00  0.00    +0.000 A 
ATOM     28  C   UNL     1       1.300   8.733  19.814  0.00  0.00    +0.000 A 
BRANCH  20  29
ATOM     29  C   UNL     1      -0.152  10.230  21.238  0.00  0.00    +0.000 C 
BRANCH  29  31
ATOM     30  N   UNL     1      -1.509  12.269  21.169  0.00  0.00    +0.000 N 
ATOM     31  C   UNL     1      -0.284  11.724  21.439  0.00  0.00    +0.000 C 
ATOM     32  O   UNL     1       0.659  12.444  21.758  0.00  0.00    +0.000 OA
ATOM     33  H   UNL     1      -1.635  13.254  21.365  0.00  0.00    +0.000 HD
ATOM     34  H   UNL     1      -2.343  11.704  21.072  0.00  0.00    +0.000 HD
ENDBRANCH  29  31
ENDBRANCH  20  29
ENDBRANCH  19  26
ENDBRANCH   1  19
TORSDOF 6
ENDMDL
MODEL 2
REMARK VINA RESULT:      -9.0      1.527      4.481
REMARK  Name = 
REMARK  6 active torsions:
REMARK  status: ('A' for Active; 'I' for Inactive)
REMARK    1  A    between atoms: C_2  and  C_4
REMARK    2  A    between atoms: C_4  and  N_5
REMARK    3  A    between atoms: C_11  and  C_12
REMARK    4  A    between atoms: C_12  and  N_13
REMARK    5  A    between atoms: C_17  and  N_18
REMARK    6  A    between atoms: N_18  and  C_19
REMARK                            x       y       z     vdW  Elec       q    Type
REMARK                         _______ _______ _______ _____ _____    ______ ____
ROOT
ATOM      1  N   UNL     1       4.936   6.644  16.608  0.00  0.00    +0.000 NA
ATOM      2  C   UNL     1       5.929   6.969  17.631  0.00  0.00    +0.000 C 
ATOM      3  C   UNL     1       7.057   5.952  17.729  0.00  0.00    +0.000 C 
ATOM      4  C   UNL     1       6.517   4.540  17.902  0.00  0.00    +0.000 C 
ATOM      5  C   UNL     1       5.601   4.146  16.737  0.00  0.00    +0.000 C 
ATOM      6  C   UNL     1       4.536   5.240  16.511  0.00  0.00    +0.000 C 
ENDROOT
BRANCH   5   7
ATOM      7  N   UNL     1       4.901   2.870  17.040  0.00  0.00    +0.000 N 
ATOM      8  H   UNL     1       5.538   2.113  17.279  0.00  0.00    +0.000 HD
BRANCH   7   9
ATOM      9  C   UNL     1       3.813   2.897  17.929  0.00  0.00    +0.000 A 
ATOM     10  C   UNL     1       2.531   3.182  17.428  0.00  0.00    +0.000 A 
ATOM     11  C   UNL     1       1.406   3.282  18.263  0.00  0.00    +0.000 A 
ATOM     12  C   UNL     1       1.619   3.094  19.629  0.00  0.00    +0.000 A 
ATOM     13  N   UNL     1       0.780   3.119  20.702  0.00  0.00    +0.000 N 
ATOM     14  N   UNL     1       1.379   2.874  21.886  0.00  0.00    +0.000 NA
ATOM     15  C   UNL     1       2.666   2.712  21.550  0.00  0.00    +0.000 A 
ATOM     16  C   UNL     1       2.869   2.842  20.160  0.00  0.00    +0.000 A 
ATOM     17  C   UNL     1       3.977   2.767  19.306  0.00  0.00    +0.000 A 
ATOM     18  H   UNL     1      -0.221   3.277  20.706  0.00  0.00    +0.000 HD
ENDBRANCH   7   9
ENDBRANCH   5   7
BRANCH   1  19
ATOM     19  C   UNL     1       3.779   7.563  16.654  0.00  0.00    +0.000 C 
BRANCH  19  26
ATOM     20  N   UNL     1       0.640   9.831  19.942  0.00  0.00    +0.000 N 
ATOM     21  C   UNL     1       0.130   9.420  21.150  0.00  0.00    +0.000 A 
ATOM     22  C   UNL     1       0.668   8.191  21.444  0.00  0.00    +0.000 A 
ATOM     23  C   UNL     1       1.507   7.831  20.365  0.00  0.00    +0.000 A 
ATOM     24  C   UNL     1       2.289   6.703  20.115  0.00  0.00    +0.000 A 
ATOM     25  C   UNL     1       2.992   6.622  18.914  0.00  0.00    +0.000 A 
ATOM     26  C   UNL     1       2.996   7.657  17.966  0.00  0.00    +0.000 A 
ATOM     27  C   UNL     1       2.218   8.802  18.225  0.00  0.00    +0.000 A 
ATOM     28  C   UNL     1       1.476   8.862  19.422  0.00  0.00    +0.000 A 
BRANCH  20  29
ATOM     29  C   UNL     1       0.343  11.116  19.331  0.00  0.00    +0.000 C 
BRANCH  29  31
ATOM     30  N   UNL     1      -1.099  10.543  17.434  0.00  0.00    +0.000 N 
ATOM     31  C   UNL     1      -1.019  11.120  18.672  0.00  0.00    +0.000 C 
ATOM     32  O   UNL     1      -2.001  11.667  19.166  0.00  0.00    +0.000 OA
ATOM     33  H   UNL     1      -2.015  10.473  17.010  0.00  0.00    +0.000 HD
ATOM     34  H   UNL     1      -0.371   9.940  17.071  0.00  0.00    +0.000 HD
ENDBRANCH  29  31
ENDBRANCH  20  29
ENDBRANCH  19  26
ENDBRANCH   1  19
TORSDOF 6
ENDMDL
MODEL 3
REMARK VINA RESULT:      -8.8      1.372      4.434
REMARK  Name = 
REMARK  6 active torsions:
REMARK  status: ('A' for Active; 'I' for Inactive)
REMARK    1  A    between atoms: C_2  and  C_4
REMARK    2  A    between atoms: C_4  and  N_5
REMARK    3  A    between atoms: C_11  and  C_12
REMARK    4  A    between atoms: C_12  and  N_13
REMARK    5  A    between atoms: C_17  and  N_18
REMARK    6  A    between atoms: N_18  and  C_19
REMARK                            x       y       z     vdW  Elec       q    Type
REMARK                         _______ _______ _______ _____ _____    ______ ____
ROOT
ATOM      1  N   UNL     1       4.894   6.684  16.633  0.00  0.00    +0.000 NA
ATOM      2  C   UNL     1       5.878   7.010  17.664  0.00  0.00    +0.000 C 
ATOM      3  C   UNL     1       7.013   6.001  17.762  0.00  0.00    +0.000 C 
ATOM      4  C   UNL     1       6.484   4.585  17.922  0.00  0.00    +0.000 C 
ATOM      5  C   UNL     1       5.577   4.191  16.750  0.00  0.00    +0.000 C 
ATOM      6  C   UNL     1       4.505   5.278  16.524  0.00  0.00    +0.000 C 
ENDROOT
BRANCH   5   7
ATOM      7  N   UNL     1       4.886   2.908  17.040  0.00  0.00    +0.000 N 
ATOM      8  H   UNL     1       5.528   2.151  17.266  0.00  0.00    +0.000 HD
BRANCH   7   9
ATOM      9  C   UNL     1       3.802   2.917  17.934  0.00  0.00    +0.000 A 
ATOM     10  C   UNL     1       2.514   3.190  17.441  0.00  0.00    +0.000 A 
ATOM     11  C   UNL     1       1.393   3.272  18.282  0.00  0.00    +0.000 A 
ATOM     12  C   UNL     1       1.615   3.080  19.647  0.00  0.00    +0.000 A 
ATOM     13  N   UNL     1       0.781   3.090  20.724  0.00  0.00    +0.000 N 
ATOM     14  N   UNL     1       1.389   2.846  21.904  0.00  0.00    +0.000 NA
ATOM     15  C   UNL     1       2.676   2.701  21.559  0.00  0.00    +0.000 A 
ATOM     16  C   UNL     1       2.871   2.841  20.170  0.00  0.00    +0.000 A 
ATOM     17  C   UNL     1       3.975   2.782  19.310  0.00  0.00    +0.000 A 
ATOM     18  H   UNL     1      -0.221   3.236  20.733  0.00  0.00    +0.000 HD
ENDBRANCH   7   9
ENDBRANCH   5   7
BRANCH   1  19
ATOM     19  C   UNL     1       3.729   7.593  16.679  0.00  0.00    +0.000 C 
BRANCH  19  26
ATOM     20  N   UNL     1       0.674   9.902  20.018  0.00  0.00    +0.000 N 
ATOM     21  C   UNL     1       0.149   9.483  21.216  0.00  0.00    +0.000 A 
ATOM     22  C   UNL     1       0.641   8.229  21.483  0.00  0.00    +0.000 A 
ATOM     23  C   UNL     1       1.466   7.862  20.396  0.00  0.00    +0.000 A 
ATOM     24  C   UNL     1       2.206   6.712  20.121  0.00  0.00    +0.000 A 
ATOM     25  C   UNL     1       2.906   6.632  18.917  0.00  0.00    +0.000 A 
ATOM     26  C   UNL     1       2.950   7.687  17.993  0.00  0.00    +0.000 A 
ATOM     27  C   UNL     1       2.214   8.855  18.278  0.00  0.00    +0.000 A 
ATOM     28  C   UNL     1       1.474   8.914  19.476  0.00  0.00    +0.000 A 
BRANCH  20  29
ATOM     29  C   UNL     1       0.425  11.210  19.436  0.00  0.00    +0.000 C 
BRANCH  29  31
ATOM     30  N   UNL     1       2.244  12.742  18.841  0.00  0.00    +0.000 N 
ATOM     31  C   UNL     1       1.480  12.215  19.847  0.00  0.00    +0.000 C 
ATOM     32  O   UNL     1       1.709  12.506  21.017  0.00  0.00    +0.000 OA
ATOM     33  H   UNL     1       2.905  13.466  19.089  0.00  0.00    +0.000 HD
ATOM     34  H   UNL     1       1.982  12.664  17.866  0.00  0.00    +0.000 HD
ENDBRANCH  29  31
ENDBRANCH  20  29
ENDBRANCH  19  26
ENDBRANCH   1  19
TORSDOF 6
ENDMDL
MODEL 4
REMARK VINA RESULT:      -8.6      3.123      5.107
REMARK  Name = 
REMARK  6 active torsions:
REMARK  status: ('A' for Active; 'I' for Inactive)
REMARK    1  A    between atoms: C_2  and  C_4
REMARK    2  A    between atoms: C_4  and  N_5
REMARK    3  A    between atoms: C_11  and  C_12
REMARK    4  A    between atoms: C_12  and  N_13
REMARK    5  A    between atoms: C_17  and  N_18
REMARK    6  A    between atoms: N_18  and  C_19
REMARK                            x       y       z     vdW  Elec       q    Type
REMARK                         _______ _______ _______ _____ _____    ______ ____
ROOT
ATOM      1  N   UNL     1       1.138  10.277  19.650  0.00  0.00    +0.000 NA
ATOM      2  C   UNL     1       0.408   9.830  20.834  0.00  0.00    +0.000 C 
ATOM      3  C   UNL     1       1.034   8.622  21.515  0.00  0.00    +0.000 C 
ATOM      4  C   UNL     1       1.255   7.483  20.532  0.00  0.00    +0.000 C 
ATOM      5  C   UNL     1       2.159   7.916  19.370  0.00  0.00    +0.000 C 
ATOM      6  C   UNL     1       1.634   9.231  18.756  0.00  0.00    +0.000 C 
ENDROOT
BRANCH   5   7
ATOM      7  N   UNL     1       2.168   6.876  18.308  0.00  0.00    +0.000 N 
ATOM      8  H   UNL     1       1.843   7.222  17.408  0.00  0.00    +0.000 HD
BRANCH   7   9
ATOM      9  C   UNL     1       3.325   6.094  18.146  0.00  0.00    +0.000 A 
ATOM     10  C   UNL     1       3.319   4.766  18.607  0.00  0.00    +0.000 A 
ATOM     11  C   UNL     1       4.454   3.943  18.530  0.00  0.00    +0.000 A 
ATOM     12  C   UNL     1       5.605   4.509  17.982  0.00  0.00    +0.000 A 
ATOM     13  N   UNL     1       6.855   4.016  17.759  0.00  0.00    +0.000 N 
ATOM     14  N   UNL     1       7.708   4.891  17.186  0.00  0.00    +0.000 NA
ATOM     15  C   UNL     1       6.968   6.002  17.064  0.00  0.00    +0.000 A 
ATOM     16  C   UNL     1       5.656   5.819  17.547  0.00  0.00    +0.000 A 
ATOM     17  C   UNL     1       4.514   6.624  17.652  0.00  0.00    +0.000 A 
ATOM     18  H   UNL     1       7.200   3.082  17.952  0.00  0.00    +0.000 HD
ENDBRANCH   7   9
ENDBRANCH   5   7
BRANCH   1  19
ATOM     19  C   UNL     1       0.412  11.344  18.927  0.00  0.00    +0.000 C 
BRANCH  19  26
ATOM     20  N   UNL     1      -4.584  12.203  19.253  0.00  0.00    +0.000 N 
ATOM     21  C   UNL     1      -5.650  11.656  18.581  0.00  0.00    +0.000 A 
ATOM     22  C   UNL     1      -5.170  10.687  17.736  0.00  0.00    +0.000 A 
ATOM     23  C   UNL     1      -3.764  10.666  17.876  0.00  0.00    +0.000 A 
ATOM     24  C   UNL     1      -2.767   9.904  17.267  0.00  0.00    +0.000 A 
ATOM     25  C   UNL     1      -1.434  10.148  17.596  0.00  0.00    +0.000 A 
ATOM     26  C   UNL     1      -1.053  11.090  18.565  0.00  0.00    +0.000 A 
ATOM     27  C   UNL     1      -2.061  11.849  19.192  0.00  0.00    +0.000 A 
ATOM     28  C   UNL     1      -3.403  11.627  18.825  0.00  0.00    +0.000 A 
BRANCH  20  29
ATOM     29  C   UNL     1      -4.710  13.224  20.280  0.00  0.00    +0.000 C 
BRANCH  29  31
ATOM     30  N   UNL     1      -6.149  12.486  22.123  0.00  0.00    +0.000 N 
ATOM     31  C   UNL     1      -4.868  12.615  21.657  0.00  0.00    +0.000 C 
ATOM     32  O   UNL     1      -3.916  12.310  22.369  0.00  0.00    +0.000 OA
ATOM     33  H   UNL     1      -6.277  12.017  23.010  0.00  0.00    +0.000 HD
ATOM     34  H   UNL     1      -6.955  12.562  21.515  0.00  0.00    +0.000 HD
ENDBRANCH  29  31
ENDBRANCH  20  29
ENDBRANCH  19  26
ENDBRANCH   1  19
TORSDOF 6
ENDMDL
MODEL 5
REMARK VINA RESULT:      -8.5      2.776      4.671
REMARK  Name = 
REMARK  6 active torsions:
REMARK  status: ('A' for Active; 'I' for Inactive)
REMARK    1  A    between atoms: C_2  and  C_4
REMARK    2  A    between atoms: C_4  and  N_5
REMARK    3  A    between atoms: C_11  and  C_12
REMARK    4  A    between atoms: C_12  and  N_13
REMARK    5  A    between atoms: C_17  and  N_18
REMARK    6  A    between atoms: N_18  and  C_19
REMARK                            x       y       z     vdW  Elec       q    Type
REMARK                         _______ _______ _______ _____ _____    ______ ____
ROOT
ATOM      1  N   UNL     1       1.387   9.498  19.206  0.00  0.00    +0.000 NA
ATOM      2  C   UNL     1       0.474   9.299  20.330  0.00  0.00    +0.000 C 
ATOM      3  C   UNL     1       0.971   8.278  21.344  0.00  0.00    +0.000 C 
ATOM      4  C   UNL     1       1.330   6.961  20.675  0.00  0.00    +0.000 C 
ATOM      5  C   UNL     1       2.409   7.154  19.603  0.00  0.00    +0.000 C 
ATOM      6  C   UNL     1       2.004   8.296  18.646  0.00  0.00    +0.000 C 
ENDROOT
BRANCH   5   7
ATOM      7  N   UNL     1       2.572   5.912  18.804  0.00  0.00    +0.000 N 
ATOM      8  H   UNL     1       1.918   5.849  18.027  0.00  0.00    +0.000 HD
BRANCH   7   9
ATOM      9  C   UNL     1       3.865   5.545  18.390  0.00  0.00    +0.000 A 
ATOM     10  C   UNL     1       4.870   5.385  19.360  0.00  0.00    +0.000 A 
ATOM     11  C   UNL     1       6.196   5.076  19.017  0.00  0.00    +0.000 A 
ATOM     12  C   UNL     1       6.480   4.943  17.658  0.00  0.00    +0.000 A 
ATOM     13  N   UNL     1       7.628   4.656  16.982  0.00  0.00    +0.000 N 
ATOM     14  N   UNL     1       7.489   4.605  15.641  0.00  0.00    +0.000 NA
ATOM     15  C   UNL     1       6.196   4.900  15.457  0.00  0.00    +0.000 A 
ATOM     16  C   UNL     1       5.525   5.123  16.677  0.00  0.00    +0.000 A 
ATOM     17  C   UNL     1       4.213   5.449  17.045  0.00  0.00    +0.000 A 
ATOM     18  H   UNL     1       8.545   4.461  17.368  0.00  0.00    +0.000 HD
ENDBRANCH   7   9
ENDBRANCH   5   7
BRANCH   1  19
ATOM     19  C   UNL     1       0.796  10.369  18.167  0.00  0.00    +0.000 C 
BRANCH  19  26
ATOM     20  N   UNL     1      -3.659  12.343  19.603  0.00  0.00    +0.000 N 
ATOM     21  C   UNL     1      -4.942  12.119  19.162  0.00  0.00    +0.000 A 
ATOM     22  C   UNL     1      -4.898  11.138  18.203  0.00  0.00    +0.000 A 
ATOM     23  C   UNL     1      -3.542  10.777  18.032  0.00  0.00    +0.000 A 
ATOM     24  C   UNL     1      -2.910   9.857  17.196  0.00  0.00    +0.000 A 
ATOM     25  C   UNL     1      -1.520   9.754  17.234  0.00  0.00    +0.000 A 
ATOM     26  C   UNL     1      -0.728  10.496  18.126  0.00  0.00    +0.000 A 
ATOM     27  C   UNL     1      -1.369  11.415  18.981  0.00  0.00    +0.000 A 
ATOM     28  C   UNL     1      -2.770  11.545  18.909  0.00  0.00    +0.000 A 
BRANCH  20  29
ATOM     29  C   UNL     1      -3.317  13.276  20.664  0.00  0.00    +0.000 C 
BRANCH  29  31
ATOM     30  N   UNL     1      -2.146  12.243  22.554  0.00  0.00    +0.000 N 
ATOM     31  C   UNL     1      -3.353  12.612  22.024  0.00  0.00    +0.000 C 
ATOM     32  O   UNL     1      -4.396  12.342  22.611  0.00  0.00    +0.000 OA
ATOM     33  H   UNL     1      -2.145  11.863  23.492  0.00  0.00    +0.000 HD
ATOM     34  H   UNL     1      -1.267  12.593  22.193  0.00  0.00    +0.000 HD
ENDBRANCH  29  31
ENDBRANCH  20  29
ENDBRANCH  19  26
ENDBRANCH   1  19
TORSDOF 6
ENDMDL
MODEL 6
REMARK VINA RESULT:      -8.5      2.187      3.148
REMARK  Name = 
REMARK  6 active torsions:
REMARK  status: ('A' for Active; 'I' for Inactive)
REMARK    1  A    between atoms: C_2  and  C_4
REMARK    2  A    between atoms: C_4  and  N_5
REMARK    3  A    between atoms: C_11  and  C_12
REMARK    4  A    between atoms: C_12  and  N_13
REMARK    5  A    between atoms: C_17  and  N_18
REMARK    6  A    between atoms: N_18  and  C_19
REMARK                            x       y       z     vdW  Elec       q    Type
REMARK                         _______ _______ _______ _____ _____    ______ ____
ROOT
ATOM      1  N   UNL     1       2.317   5.967  18.953  0.00  0.00    +0.000 NA
ATOM      2  C   UNL     1       1.493   5.240  17.989  0.00  0.00    +0.000 C 
ATOM      3  C   UNL     1       1.576   3.727  18.136  0.00  0.00    +0.000 C 
ATOM      4  C   UNL     1       3.018   3.246  18.114  0.00  0.00    +0.000 C 
ATOM      5  C   UNL     1       3.841   3.894  19.234  0.00  0.00    +0.000 C 
ATOM      6  C   UNL     1       3.652   5.426  19.208  0.00  0.00    +0.000 C 
ENDROOT
BRANCH   5   7
ATOM      7  N   UNL     1       5.286   3.600  19.050  0.00  0.00    +0.000 N 
ATOM      8  H   UNL     1       5.515   2.619  19.200  0.00  0.00    +0.000 HD
BRANCH   7   9
ATOM      9  C   UNL     1       5.928   4.085  17.897  0.00  0.00    +0.000 A 
ATOM     10  C   UNL     1       6.831   5.154  18.020  0.00  0.00    +0.000 A 
ATOM     11  C   UNL     1       7.466   5.728  16.906  0.00  0.00    +0.000 A 
ATOM     12  C   UNL     1       7.150   5.192  15.657  0.00  0.00    +0.000 A 
ATOM     13  N   UNL     1       7.567   5.495  14.395  0.00  0.00    +0.000 N 
ATOM     14  N   UNL     1       7.027   4.723  13.429  0.00  0.00    +0.000 NA
ATOM     15  C   UNL     1       6.209   3.909  14.109  0.00  0.00    +0.000 A 
ATOM     16  C   UNL     1       6.245   4.161  15.496  0.00  0.00    +0.000 A 
ATOM     17  C   UNL     1       5.612   3.620  16.623  0.00  0.00    +0.000 A 
ATOM     18  H   UNL     1       8.235   6.202  14.113  0.00  0.00    +0.000 HD
ENDBRANCH   7   9
ENDBRANCH   5   7
BRANCH   1  19
ATOM     19  C   UNL     1       2.336   7.419  18.674  0.00  0.00    +0.000 C 
BRANCH  19  26
ATOM     20  N   UNL     1      -0.582  11.414  19.828  0.00  0.00    +0.000 N 
ATOM     21  C   UNL     1      -1.096  11.854  21.024  0.00  0.00    +0.000 A 
ATOM     22  C   UNL     1      -0.638  11.024  22.017  0.00  0.00    +0.000 A 
ATOM     23  C   UNL     1       0.155  10.029  21.400  0.00  0.00    +0.000 A 
ATOM     24  C   UNL     1       0.854   8.934  21.906  0.00  0.00    +0.000 A 
ATOM     25  C   UNL     1       1.528   8.095  21.020  0.00  0.00    +0.000 A 
ATOM     26  C   UNL     1       1.586   8.340  19.639  0.00  0.00    +0.000 A 
ATOM     27  C   UNL     1       0.892   9.455  19.129  0.00  0.00    +0.000 A 
ATOM     28  C   UNL     1       0.178  10.276  20.025  0.00  0.00    +0.000 A 
BRANCH  20  29
ATOM     29  C   UNL     1      -0.802  12.081  18.555  0.00  0.00    +0.000 C 
BRANCH  29  31
ATOM     30  N   UNL     1      -3.198  11.985  18.049  0.00  0.00    +0.000 N 
ATOM     31  C   UNL     1      -1.957  11.467  17.795  0.00  0.00    +0.000 C 
ATOM     32  O   UNL     1      -1.828  10.508  17.039  0.00  0.00    +0.000 OA
ATOM     33  H   UNL     1      -3.971  11.634  17.498  0.00  0.00    +0.000 HD
ATOM     34  H   UNL     1      -3.328  12.870  18.523  0.00  0.00    +0.000 HD
ENDBRANCH  29  31
ENDBRANCH  20  29
ENDBRANCH  19  26
ENDBRANCH   1  19
TORSDOF 6
ENDMDL
MODEL 7
REMARK VINA RESULT:      -8.5      1.991      2.969
REMARK  Name = 
REMARK  6 active torsions:
REMARK  status: ('A' for Active; 'I' for Inactive)
REMARK    1  A    between atoms: C_2  and  C_4
REMARK    2  A    between atoms: C_4  and  N_5
REMARK    3  A    between atoms: C_11  and  C_12
REMARK    4  A    between atoms: C_12  and  N_13
REMARK    5  A    between atoms: C_17  and  N_18
REMARK    6  A    between atoms: N_18  and  C_19
REMARK                            x       y       z     vdW  Elec       q    Type
REMARK                         _______ _______ _______ _____ _____    ______ ____
ROOT
ATOM      1  N   UNL     1       2.336   5.774  19.046  0.00  0.00    +0.000 NA
ATOM      2  C   UNL     1       1.476   4.974  18.176  0.00  0.00    +0.000 C 
ATOM      3  C   UNL     1       1.578   3.477  18.428  0.00  0.00    +0.000 C 
ATOM      4  C   UNL     1       3.022   3.003  18.374  0.00  0.00    +0.000 C 
ATOM      5  C   UNL     1       3.889   3.736  19.405  0.00  0.00    +0.000 C 
ATOM      6  C   UNL     1       3.686   5.260  19.277  0.00  0.00    +0.000 C 
ENDROOT
BRANCH   5   7
ATOM      7  N   UNL     1       5.327   3.436  19.177  0.00  0.00    +0.000 N 
ATOM      8  H   UNL     1       5.549   2.448  19.277  0.00  0.00    +0.000 HD
BRANCH   7   9
ATOM      9  C   UNL     1       5.949   3.967  18.033  0.00  0.00    +0.000 A 
ATOM     10  C   UNL     1       6.848   5.037  18.183  0.00  0.00    +0.000 A 
ATOM     11  C   UNL     1       7.464   5.655  17.082  0.00  0.00    +0.000 A 
ATOM     12  C   UNL     1       7.133   5.164  15.819  0.00  0.00    +0.000 A 
ATOM     13  N   UNL     1       7.529   5.516  14.564  0.00  0.00    +0.000 N 
ATOM     14  N   UNL     1       6.980   4.777  13.577  0.00  0.00    +0.000 NA
ATOM     15  C   UNL     1       6.176   3.933  14.238  0.00  0.00    +0.000 A 
ATOM     16  C   UNL     1       6.231   4.134  15.633  0.00  0.00    +0.000 A 
ATOM     17  C   UNL     1       5.618   3.548  16.747  0.00  0.00    +0.000 A 
ATOM     18  H   UNL     1       8.189   6.238  14.298  0.00  0.00    +0.000 HD
ENDBRANCH   7   9
ENDBRANCH   5   7
BRANCH   1  19
ATOM     19  C   UNL     1       2.330   7.202  18.662  0.00  0.00    +0.000 C 
BRANCH  19  26
ATOM     20  N   UNL     1       0.554  11.774  19.984  0.00  0.00    +0.000 N 
ATOM     21  C   UNL     1      -0.098  12.209  21.113  0.00  0.00    +0.000 A 
ATOM     22  C   UNL     1      -0.186  11.154  21.987  0.00  0.00    +0.000 A 
ATOM     23  C   UNL     1       0.403  10.035  21.357  0.00  0.00    +0.000 A 
ATOM     24  C   UNL     1       0.583   8.712  21.761  0.00  0.00    +0.000 A 
ATOM     25  C   UNL     1       1.180   7.812  20.879  0.00  0.00    +0.000 A 
ATOM     26  C   UNL     1       1.667   8.195  19.619  0.00  0.00    +0.000 A 
ATOM     27  C   UNL     1       1.499   9.535  19.217  0.00  0.00    +0.000 A 
ATOM     28  C   UNL     1       0.857  10.430  20.095  0.00  0.00    +0.000 A 
BRANCH  20  29
ATOM     29  C   UNL     1       0.885  12.631  18.857  0.00  0.00    +0.000 C 
BRANCH  29  31
ATOM     30  N   UNL     1      -1.205  12.685  17.578  0.00  0.00    +0.000 N 
ATOM     31  C   UNL     1      -0.326  13.388  18.357  0.00  0.00    +0.000 C 
ATOM     32  O   UNL     1      -0.500  14.586  18.562  0.00  0.00    +0.000 OA
ATOM     33  H   UNL     1      -2.055  13.155  17.294  0.00  0.00    +0.000 HD
ATOM     34  H   UNL     1      -1.192  11.674  17.527  0.00  0.00    +0.000 HD
ENDBRANCH  29  31
ENDBRANCH  20  29
ENDBRANCH  19  26
ENDBRANCH   1  19
TORSDOF 6
ENDMDL
MODEL 8
REMARK VINA RESULT:      -8.4      3.589      9.552
REMARK  Name = 
REMARK  6 active torsions:
REMARK  status: ('A' for Active; 'I' for Inactive)
REMARK    1  A    between atoms: C_2  and  C_4
REMARK    2  A    between atoms: C_4  and  N_5
REMARK    3  A    between atoms: C_11  and  C_12
REMARK    4  A    between atoms: C_12  and  N_13
REMARK    5  A    between atoms: C_17  and  N_18
REMARK    6  A    between atoms: N_18  and  C_19
REMARK                            x       y       z     vdW  Elec       q    Type
REMARK                         _______ _______ _______ _____ _____    ______ ____
ROOT
ATOM      1  N   UNL     1       0.759   8.845  20.637  0.00  0.00    +0.000 NA
ATOM      2  C   UNL     1       1.153   9.269  21.980  0.00  0.00    +0.000 C 
ATOM      3  C   UNL     1       0.041   9.969  22.748  0.00  0.00    +0.000 C 
ATOM      4  C   UNL     1      -0.545  11.121  21.947  0.00  0.00    +0.000 C 
ATOM      5  C   UNL     1      -1.104  10.640  20.603  0.00  0.00    +0.000 C 
ATOM      6  C   UNL     1      -0.047   9.791  19.866  0.00  0.00    +0.000 C 
ENDROOT
BRANCH   5   7
ATOM      7  N   UNL     1      -1.451  11.802  19.743  0.00  0.00    +0.000 N 
ATOM      8  H   UNL     1      -0.685  12.095  19.140  0.00  0.00    +0.000 HD
BRANCH   7   9
ATOM      9  C   UNL     1      -2.658  11.766  19.022  0.00  0.00    +0.000 A 
ATOM     10  C   UNL     1      -2.630  11.402  17.665  0.00  0.00    +0.000 A 
ATOM     11  C   UNL     1      -3.787  11.398  16.868  0.00  0.00    +0.000 A 
ATOM     12  C   UNL     1      -4.976  11.786  17.485  0.00  0.00    +0.000 A 
ATOM     13  N   UNL     1      -6.255  11.897  17.028  0.00  0.00    +0.000 N 
ATOM     14  N   UNL     1      -7.147  12.302  17.956  0.00  0.00    +0.000 NA
ATOM     15  C   UNL     1      -6.392  12.481  19.048  0.00  0.00    +0.000 A 
ATOM     16  C   UNL     1      -5.036  12.178  18.808  0.00  0.00    +0.000 A 
ATOM     17  C   UNL     1      -3.863  12.190  19.575  0.00  0.00    +0.000 A 
ATOM     18  H   UNL     1      -6.603  11.695  16.098  0.00  0.00    +0.000 HD
ENDBRANCH   7   9
ENDBRANCH   5   7
BRANCH   1  19
ATOM     19  C   UNL     1       1.907   8.319  19.869  0.00  0.00    +0.000 C 
BRANCH  19  26
ATOM     20  N   UNL     1       4.433   4.081  18.657  0.00  0.00    +0.000 N 
ATOM     21  C   UNL     1       4.305   2.785  19.094  0.00  0.00    +0.000 A 
ATOM     22  C   UNL     1       3.249   2.733  19.970  0.00  0.00    +0.000 A 
ATOM     23  C   UNL     1       2.740   4.046  20.093  0.00  0.00    +0.000 A 
ATOM     24  C   UNL     1       1.695   4.585  20.843  0.00  0.00    +0.000 A 
ATOM     25  C   UNL     1       1.456   5.957  20.779  0.00  0.00    +0.000 A 
ATOM     26  C   UNL     1       2.184   6.815  19.940  0.00  0.00    +0.000 A 
ATOM     27  C   UNL     1       3.230   6.268  19.171  0.00  0.00    +0.000 A 
ATOM     28  C   UNL     1       3.495   4.888  19.272  0.00  0.00    +0.000 A 
BRANCH  20  29
ATOM     29  C   UNL     1       5.411   4.512  17.670  0.00  0.00    +0.000 C 
BRANCH  29  31
ATOM     30  N   UNL     1       7.830   4.214  17.925  0.00  0.00    +0.000 N 
ATOM     31  C   UNL     1       6.720   4.910  18.318  0.00  0.00    +0.000 C 
ATOM     32  O   UNL     1       6.799   5.759  19.201  0.00  0.00    +0.000 OA
ATOM     33  H   UNL     1       8.723   4.514  18.295  0.00  0.00    +0.000 HD
ATOM     34  H   UNL     1       7.841   3.637  17.094  0.00  0.00    +0.000 HD
ENDBRANCH  29  31
ENDBRANCH  20  29
ENDBRANCH  19  26
ENDBRANCH   1  19
TORSDOF 6
ENDMDL
MODEL 9
REMARK VINA RESULT:      -8.4      3.933     10.109
REMARK  Name = 
REMARK  6 active torsions:
REMARK  status: ('A' for Active; 'I' for Inactive)
REMARK    1  A    between atoms: C_2  and  C_4
REMARK    2  A    between atoms: C_4  and  N_5
REMARK    3  A    between atoms: C_11  and  C_12
REMARK    4  A    between atoms: C_12  and  N_13
REMARK    5  A    between atoms: C_17  and  N_18
REMARK    6  A    between atoms: N_18  and  C_19
REMARK                            x       y       z     vdW  Elec       q    Type
REMARK                         _______ _______ _______ _____ _____    ______ ____
ROOT
ATOM      1  N   UNL     1       0.853  10.454  18.735  0.00  0.00    +0.000 NA
ATOM      2  C   UNL     1       1.526  11.696  19.111  0.00  0.00    +0.000 C 
ATOM      3  C   UNL     1       0.642  12.655  19.895  0.00  0.00    +0.000 C 
ATOM      4  C   UNL     1      -0.664  12.926  19.166  0.00  0.00    +0.000 C 
ATOM      5  C   UNL     1      -1.445  11.630  18.916  0.00  0.00    +0.000 C 
ATOM      6  C   UNL     1      -0.525  10.578  18.261  0.00  0.00    +0.000 C 
ENDROOT
BRANCH   5   7
ATOM      7  N   UNL     1      -2.589  11.884  18.002  0.00  0.00    +0.000 N 
ATOM      8  H   UNL     1      -2.482  11.434  17.095  0.00  0.00    +0.000 HD
BRANCH   7   9
ATOM      9  C   UNL     1      -3.893  11.699  18.493  0.00  0.00    +0.000 A 
ATOM     10  C   UNL     1      -4.816  10.973  17.719  0.00  0.00    +0.000 A 
ATOM     11  C   UNL     1      -6.150  10.796  18.118  0.00  0.00    +0.000 A 
ATOM     12  C   UNL     1      -6.530  11.386  19.324  0.00  0.00    +0.000 A 
ATOM     13  N   UNL     1      -7.713  11.418  19.999  0.00  0.00    +0.000 N 
ATOM     14  N   UNL     1      -7.673  12.099  21.164  0.00  0.00    +0.000 NA
ATOM     15  C   UNL     1      -6.410  12.542  21.216  0.00  0.00    +0.000 A 
ATOM     16  C   UNL     1      -5.659  12.130  20.095  0.00  0.00    +0.000 A 
ATOM     17  C   UNL     1      -4.338  12.307  19.664  0.00  0.00    +0.000 A 
ATOM     18  H   UNL     1      -8.589  10.981  19.740  0.00  0.00    +0.000 HD
ENDBRANCH   7   9
ENDBRANCH   5   7
BRANCH   1  19
ATOM     19  C   UNL     1       1.689   9.626  17.840  0.00  0.00    +0.000 C 
BRANCH  19  26
ATOM     20  N   UNL     1       4.473   5.382  17.619  0.00  0.00    +0.000 N 
ATOM     21  C   UNL     1       4.653   4.361  18.520  0.00  0.00    +0.000 A 
ATOM     22  C   UNL     1       3.858   4.608  19.611  0.00  0.00    +0.000 A 
ATOM     23  C   UNL     1       3.197   5.836  19.379  0.00  0.00    +0.000 A 
ATOM     24  C   UNL     1       2.291   6.577  20.138  0.00  0.00    +0.000 A 
ATOM     25  C   UNL     1       1.835   7.798  19.642  0.00  0.00    +0.000 A 
ATOM     26  C   UNL     1       2.202   8.289  18.379  0.00  0.00    +0.000 A 
ATOM     27  C   UNL     1       3.106   7.533  17.606  0.00  0.00    +0.000 A 
ATOM     28  C   UNL     1       3.596   6.320  18.130  0.00  0.00    +0.000 A 
BRANCH  20  29
ATOM     29  C   UNL     1       5.109   5.434  16.312  0.00  0.00    +0.000 C 
BRANCH  29  31
ATOM     30  N   UNL     1       7.492   4.884  16.148  0.00  0.00    +0.000 N 
ATOM     31  C   UNL     1       6.561   5.851  16.414  0.00  0.00    +0.000 C 
ATOM     32  O   UNL     1       6.913   6.968  16.782  0.00  0.00    +0.000 OA
ATOM     33  H   UNL     1       8.464   5.164  16.141  0.00  0.00    +0.000 HD
ATOM     34  H   UNL     1       7.254   4.017  15.683  0.00  0.00    +0.000 HD
ENDBRANCH  29  31
ENDBRANCH  20  29
ENDBRANCH  19  26
ENDBRANCH   1  19
TORSDOF 6
ENDMDL
