MODEL 1
REMARK VINA RESULT:      -7.4      0.000      0.000
REMARK  Name = 
REMARK  4 active torsions:
REMARK  status: ('A' for Active; 'I' for Inactive)
REMARK    1  A    between atoms: C_1  and  O_2
REMARK    2  A    between atoms: O_2  and  C_3
REMARK    3  A    between atoms: C_8  and  C_9
REMARK    4  A    between atoms: C_12  and  C_13
REMARK                            x       y       z     vdW  Elec       q    Type
REMARK                         _______ _______ _______ _____ _____    ______ ____
ROOT
ATOM      1  C   UNL     1       5.448   4.406  15.772  0.00  0.00    +0.000 A 
ATOM      2  C   UNL     1       5.628   5.760  15.476  0.00  0.00    +0.000 A 
ATOM      3  C   UNL     1       4.915   6.743  16.175  0.00  0.00    +0.000 A 
ATOM      4  C   UNL     1       4.032   6.383  17.192  0.00  0.00    +0.000 A 
ATOM      5  N   UNL     1       3.340   7.389  17.888  0.00  0.00    +0.000 NA
ATOM      6  C   UNL     1       2.559   7.032  18.859  0.00  0.00    +0.000 A 
ATOM      7  N   UNL     1       2.362   5.714  19.207  0.00  0.00    +0.000 N 
ATOM      8  C   UNL     1       2.966   4.664  18.574  0.00  0.00    +0.000 A 
ATOM      9  O   UNL     1       2.745   3.499  18.888  0.00  0.00    +0.000 OA
ATOM     10  C   UNL     1       3.886   5.027  17.492  0.00  0.00    +0.000 A 
ATOM     11  C   UNL     1       4.585   4.037  16.799  0.00  0.00    +0.000 A 
ATOM     12  H   UNL     1       1.697   5.449  19.920  0.00  0.00    +0.000 HD
ENDROOT
BRANCH   6  13
ATOM     13  C   UNL     1       1.807   8.035  19.654  0.00  0.00    +0.000 A 
ATOM     14  C   UNL     1       1.410   9.231  19.048  0.00  0.00    +0.000 A 
ATOM     15  C   UNL     1       0.670  10.168  19.772  0.00  0.00    +0.000 A 
ATOM     16  C   UNL     1       0.327   9.922  21.107  0.00  0.00    +0.000 A 
ATOM     17  C   UNL     1      -0.483  10.908  21.894  0.00  0.00    +0.000 C 
ATOM     18  C   UNL     1       0.755   8.737  21.718  0.00  0.00    +0.000 A 
ATOM     19  C   UNL     1       1.495   7.800  20.999  0.00  0.00    +0.000 A 
ENDBRANCH   6  13
BRANCH   1  21
ATOM     20  C   UNL     1       6.237   3.825  13.634  0.00  0.00    +0.000 C 
ATOM     21  O   UNL     1       6.183   3.527  15.027  0.00  0.00    +0.000 OA
ENDBRANCH   1  21
TORSDOF 2
ENDMDL
MODEL 2
REMARK VINA RESULT:      -7.4      0.874      1.391
REMARK  Name = 
REMARK  4 active torsions:
REMARK  status: ('A' for Active; 'I' for Inactive)
REMARK    1  A    between atoms: C_1  and  O_2
REMARK    2  A    between atoms: O_2  and  C_3
REMARK    3  A    between atoms: C_8  and  C_9
REMARK    4  A    between atoms: C_12  and  C_13
REMARK                            x       y       z     vdW  Elec       q    Type
REMARK                         _______ _______ _______ _____ _____    ______ ____
ROOT
ATOM      1  C   UNL     1       5.280   4.618  16.619  0.00  0.00    +0.000 A 
ATOM      2  C   UNL     1       5.186   5.891  16.049  0.00  0.00    +0.000 A 
ATOM      3  C   UNL     1       4.389   6.879  16.641  0.00  0.00    +0.000 A 
ATOM      4  C   UNL     1       3.697   6.612  17.820  0.00  0.00    +0.000 A 
ATOM      5  N   UNL     1       2.915   7.624  18.403  0.00  0.00    +0.000 NA
ATOM      6  C   UNL     1       2.317   7.366  19.523  0.00  0.00    +0.000 A 
ATOM      7  N   UNL     1       2.393   6.136  20.139  0.00  0.00    +0.000 N 
ATOM      8  C   UNL     1       3.102   5.081  19.638  0.00  0.00    +0.000 A 
ATOM      9  O   UNL     1       3.126   3.988  20.196  0.00  0.00    +0.000 OA
ATOM     10  C   UNL     1       3.825   5.343  18.390  0.00  0.00    +0.000 A 
ATOM     11  C   UNL     1       4.610   4.346  17.807  0.00  0.00    +0.000 A 
ATOM     12  H   UNL     1       1.865   5.929  20.974  0.00  0.00    +0.000 HD
ENDROOT
BRANCH   6  13
ATOM     13  C   UNL     1       1.488   8.388  20.210  0.00  0.00    +0.000 A 
ATOM     14  C   UNL     1       1.204   8.238  21.570  0.00  0.00    +0.000 A 
ATOM     15  C   UNL     1       0.456   9.209  22.239  0.00  0.00    +0.000 A 
ATOM     16  C   UNL     1      -0.019  10.334  21.554  0.00  0.00    +0.000 A 
ATOM     17  C   UNL     1      -0.807  11.397  22.259  0.00  0.00    +0.000 C 
ATOM     18  C   UNL     1       0.242  10.463  20.184  0.00  0.00    +0.000 A 
ATOM     19  C   UNL     1       0.986   9.494  19.513  0.00  0.00    +0.000 A 
ENDBRANCH   6  13
BRANCH   1  21
ATOM     20  C   UNL     1       6.260   3.998  14.573  0.00  0.00    +0.000 C 
ATOM     21  O   UNL     1       6.076   3.723  15.959  0.00  0.00    +0.000 OA
ENDBRANCH   1  21
TORSDOF 2
ENDMDL
MODEL 3
REMARK VINA RESULT:      -7.3      4.930      6.284
REMARK  Name = 
REMARK  4 active torsions:
REMARK  status: ('A' for Active; 'I' for Inactive)
REMARK    1  A    between atoms: C_1  and  O_2
REMARK    2  A    between atoms: O_2  and  C_3
REMARK    3  A    between atoms: C_8  and  C_9
REMARK    4  A    between atoms: C_12  and  C_13
REMARK                            x       y       z     vdW  Elec       q    Type
REMARK                         _______ _______ _______ _____ _____    ______ ____
ROOT
ATOM      1  C   UNL     1       5.371   4.421  16.908  0.00  0.00    +0.000 A 
ATOM      2  C   UNL     1       4.963   5.478  16.090  0.00  0.00    +0.000 A 
ATOM      3  C   UNL     1       5.519   6.754  16.246  0.00  0.00    +0.000 A 
ATOM      4  C   UNL     1       6.505   6.980  17.205  0.00  0.00    +0.000 A 
ATOM      5  N   UNL     1       7.058   8.266  17.332  0.00  0.00    +0.000 NA
ATOM      6  C   UNL     1       8.005   8.441  18.199  0.00  0.00    +0.000 A 
ATOM      7  N   UNL     1       8.460   7.429  19.016  0.00  0.00    +0.000 N 
ATOM      8  C   UNL     1       7.967   6.154  18.989  0.00  0.00    +0.000 A 
ATOM      9  O   UNL     1       8.373   5.283  19.751  0.00  0.00    +0.000 OA
ATOM     10  C   UNL     1       6.919   5.905  17.994  0.00  0.00    +0.000 A 
ATOM     11  C   UNL     1       6.369   4.630  17.855  0.00  0.00    +0.000 A 
ATOM     12  H   UNL     1       9.148   7.598  19.735  0.00  0.00    +0.000 HD
ENDROOT
BRANCH   6  13
ATOM     13  C   UNL     1       8.652   9.764  18.381  0.00  0.00    +0.000 A 
ATOM     14  C   UNL     1       8.315  10.815  17.522  0.00  0.00    +0.000 A 
ATOM     15  C   UNL     1       8.888  12.075  17.703  0.00  0.00    +0.000 A 
ATOM     16  C   UNL     1       9.805  12.295  18.737  0.00  0.00    +0.000 A 
ATOM     17  C   UNL     1      10.416  13.647  18.958  0.00  0.00    +0.000 C 
ATOM     18  C   UNL     1      10.163  11.231  19.574  0.00  0.00    +0.000 A 
ATOM     19  C   UNL     1       9.595   9.971  19.396  0.00  0.00    +0.000 A 
ENDBRANCH   6  13
BRANCH   1  21
ATOM     20  C   UNL     1       3.854   2.809  17.704  0.00  0.00    +0.000 C 
ATOM     21  O   UNL     1       4.761   3.218  16.683  0.00  0.00    +0.000 OA
ENDBRANCH   1  21
TORSDOF 2
ENDMDL
MODEL 4
REMARK VINA RESULT:      -7.3      4.923      6.386
REMARK  Name = 
REMARK  4 active torsions:
REMARK  status: ('A' for Active; 'I' for Inactive)
REMARK    1  A    between atoms: C_1  and  O_2
REMARK    2  A    between atoms: O_2  and  C_3
REMARK    3  A    between atoms: C_8  and  C_9
REMARK    4  A    between atoms: C_12  and  C_13
REMARK                            x       y       z     vdW  Elec       q    Type
REMARK                         _______ _______ _______ _____ _____    ______ ____
ROOT
ATOM      1  C   UNL     1       5.341   4.415  16.930  0.00  0.00    +0.000 A 
ATOM      2  C   UNL     1       4.917   5.472  16.120  0.00  0.00    +0.000 A 
ATOM      3  C   UNL     1       5.469   6.750  16.271  0.00  0.00    +0.000 A 
ATOM      4  C   UNL     1       6.468   6.979  17.216  0.00  0.00    +0.000 A 
ATOM      5  N   UNL     1       7.017   8.267  17.338  0.00  0.00    +0.000 NA
ATOM      6  C   UNL     1       7.976   8.444  18.192  0.00  0.00    +0.000 A 
ATOM      7  N   UNL     1       8.447   7.432  18.999  0.00  0.00    +0.000 N 
ATOM      8  C   UNL     1       7.960   6.155  18.976  0.00  0.00    +0.000 A 
ATOM      9  O   UNL     1       8.381   5.283  19.730  0.00  0.00    +0.000 OA
ATOM     10  C   UNL     1       6.898   5.903  17.997  0.00  0.00    +0.000 A 
ATOM     11  C   UNL     1       6.352   4.626  17.862  0.00  0.00    +0.000 A 
ATOM     12  H   UNL     1       9.145   7.602  19.708  0.00  0.00    +0.000 HD
ENDROOT
BRANCH   6  13
ATOM     13  C   UNL     1       8.619   9.770  18.367  0.00  0.00    +0.000 A 
ATOM     14  C   UNL     1       9.576   9.939  19.372  0.00  0.00    +0.000 A 
ATOM     15  C   UNL     1      10.217  11.170  19.525  0.00  0.00    +0.000 A 
ATOM     16  C   UNL     1       9.903  12.242  18.682  0.00  0.00    +0.000 A 
ATOM     17  C   UNL     1      10.595  13.566  18.819  0.00  0.00    +0.000 C 
ATOM     18  C   UNL     1       8.922  12.076  17.697  0.00  0.00    +0.000 A 
ATOM     19  C   UNL     1       8.278  10.850  17.543  0.00  0.00    +0.000 A 
ENDBRANCH   6  13
BRANCH   1  21
ATOM     20  C   UNL     1       3.805   2.819  17.719  0.00  0.00    +0.000 C 
ATOM     21  O   UNL     1       4.733   3.209  16.710  0.00  0.00    +0.000 OA
ENDBRANCH   1  21
TORSDOF 2
ENDMDL
MODEL 5
REMARK VINA RESULT:      -7.3      1.392      2.336
REMARK  Name = 
REMARK  4 active torsions:
REMARK  status: ('A' for Active; 'I' for Inactive)
REMARK    1  A    between atoms: C_1  and  O_2
REMARK    2  A    between atoms: O_2  and  C_3
REMARK    3  A    between atoms: C_8  and  C_9
REMARK    4  A    between atoms: C_12  and  C_13
REMARK                            x       y       z     vdW  Elec       q    Type
REMARK                         _______ _______ _______ _____ _____    ______ ____
ROOT
ATOM      1  C   UNL     1       4.337   4.719  17.646  0.00  0.00    +0.000 A 
ATOM      2  C   UNL     1       4.361   5.971  17.027  0.00  0.00    +0.000 A 
ATOM      3  C   UNL     1       3.642   7.045  17.565  0.00  0.00    +0.000 A 
ATOM      4  C   UNL     1       2.910   6.885  18.740  0.00  0.00    +0.000 A 
ATOM      5  N   UNL     1       2.208   7.982  19.268  0.00  0.00    +0.000 NA
ATOM      6  C   UNL     1       1.573   7.820  20.386  0.00  0.00    +0.000 A 
ATOM      7  N   UNL     1       1.535   6.614  21.050  0.00  0.00    +0.000 N 
ATOM      8  C   UNL     1       2.159   5.483  20.604  0.00  0.00    +0.000 A 
ATOM      9  O   UNL     1       2.081   4.415  21.204  0.00  0.00    +0.000 OA
ATOM     10  C   UNL     1       2.921   5.633  19.360  0.00  0.00    +0.000 A 
ATOM     11  C   UNL     1       3.628   4.552  18.831  0.00  0.00    +0.000 A 
ATOM     12  H   UNL     1       0.978   6.485  21.883  0.00  0.00    +0.000 HD
ENDROOT
BRANCH   6  13
ATOM     13  C   UNL     1       0.823   8.935  21.018  0.00  0.00    +0.000 A 
ATOM     14  C   UNL     1       0.374   8.799  22.334  0.00  0.00    +0.000 A 
ATOM     15  C   UNL     1      -0.301   9.853  22.954  0.00  0.00    +0.000 A 
ATOM     16  C   UNL     1      -0.538  11.047  22.263  0.00  0.00    +0.000 A 
ATOM     17  C   UNL     1      -1.244  12.196  22.918  0.00  0.00    +0.000 C 
ATOM     18  C   UNL     1      -0.113  11.166  20.934  0.00  0.00    +0.000 A 
ATOM     19  C   UNL     1       0.559  10.115  20.311  0.00  0.00    +0.000 A 
ENDBRANCH   6  13
BRANCH   1  21
ATOM     20  C   UNL     1       5.797   4.158  15.890  0.00  0.00    +0.000 C 
ATOM     21  O   UNL     1       5.065   3.734  17.037  0.00  0.00    +0.000 OA
ENDBRANCH   1  21
TORSDOF 2
ENDMDL
MODEL 6
REMARK VINA RESULT:      -7.3      2.421      3.726
REMARK  Name = 
REMARK  4 active torsions:
REMARK  status: ('A' for Active; 'I' for Inactive)
REMARK    1  A    between atoms: C_1  and  O_2
REMARK    2  A    between atoms: O_2  and  C_3
REMARK    3  A    between atoms: C_8  and  C_9
REMARK    4  A    between atoms: C_12  and  C_13
REMARK                            x       y       z     vdW  Elec       q    Type
REMARK                         _______ _______ _______ _____ _____    ______ ____
ROOT
ATOM      1  C   UNL     1       3.450   3.986  18.974  0.00  0.00    +0.000 A 
ATOM      2  C   UNL     1       2.797   3.711  20.179  0.00  0.00    +0.000 A 
ATOM      3  C   UNL     1       2.103   4.720  20.858  0.00  0.00    +0.000 A 
ATOM      4  C   UNL     1       2.033   6.007  20.328  0.00  0.00    +0.000 A 
ATOM      5  N   UNL     1       1.317   6.998  21.022  0.00  0.00    +0.000 NA
ATOM      6  C   UNL     1       1.230   8.175  20.486  0.00  0.00    +0.000 A 
ATOM      7  N   UNL     1       1.834   8.494  19.291  0.00  0.00    +0.000 N 
ATOM      8  C   UNL     1       2.575   7.610  18.557  0.00  0.00    +0.000 A 
ATOM      9  O   UNL     1       3.126   7.934  17.509  0.00  0.00    +0.000 OA
ATOM     10  C   UNL     1       2.669   6.256  19.109  0.00  0.00    +0.000 A 
ATOM     11  C   UNL     1       3.371   5.262  18.425  0.00  0.00    +0.000 A 
ATOM     12  H   UNL     1       1.815   9.434  18.922  0.00  0.00    +0.000 HD
ENDROOT
BRANCH   6  13
ATOM     13  C   UNL     1       0.477   9.270  21.147  0.00  0.00    +0.000 A 
ATOM     14  C   UNL     1       0.039   9.103  22.464  0.00  0.00    +0.000 A 
ATOM     15  C   UNL     1      -0.638  10.138  23.112  0.00  0.00    +0.000 A 
ATOM     16  C   UNL     1      -0.890  11.345  22.448  0.00  0.00    +0.000 A 
ATOM     17  C   UNL     1      -1.599  12.474  23.134  0.00  0.00    +0.000 C 
ATOM     18  C   UNL     1      -0.478  11.495  21.119  0.00  0.00    +0.000 A 
ATOM     19  C   UNL     1       0.197  10.463  20.469  0.00  0.00    +0.000 A 
ENDBRANCH   6  13
BRANCH   1  21
ATOM     20  C   UNL     1       3.340   1.740  18.287  0.00  0.00    +0.000 C 
ATOM     21  O   UNL     1       4.108   2.936  18.395  0.00  0.00    +0.000 OA
ENDBRANCH   1  21
TORSDOF 2
ENDMDL
MODEL 7
REMARK VINA RESULT:      -7.3      1.459      2.065
REMARK  Name = 
REMARK  4 active torsions:
REMARK  status: ('A' for Active; 'I' for Inactive)
REMARK    1  A    between atoms: C_1  and  O_2
REMARK    2  A    between atoms: O_2  and  C_3
REMARK    3  A    between atoms: C_8  and  C_9
REMARK    4  A    between atoms: C_12  and  C_13
REMARK                            x       y       z     vdW  Elec       q    Type
REMARK                         _______ _______ _______ _____ _____    ______ ____
ROOT
ATOM      1  C   UNL     1       4.427   4.938  17.484  0.00  0.00    +0.000 A 
ATOM      2  C   UNL     1       4.402   6.211  16.908  0.00  0.00    +0.000 A 
ATOM      3  C   UNL     1       3.658   7.243  17.492  0.00  0.00    +0.000 A 
ATOM      4  C   UNL     1       2.949   7.020  18.671  0.00  0.00    +0.000 A 
ATOM      5  N   UNL     1       2.222   8.076  19.246  0.00  0.00    +0.000 NA
ATOM      6  C   UNL     1       1.608   7.856  20.366  0.00  0.00    +0.000 A 
ATOM      7  N   UNL     1       1.618   6.628  20.989  0.00  0.00    +0.000 N 
ATOM      8  C   UNL     1       2.270   5.533  20.496  0.00  0.00    +0.000 A 
ATOM      9  O   UNL     1       2.234   4.444  21.060  0.00  0.00    +0.000 OA
ATOM     10  C   UNL     1       3.008   5.749  19.248  0.00  0.00    +0.000 A 
ATOM     11  C   UNL     1       3.740   4.709  18.673  0.00  0.00    +0.000 A 
ATOM     12  H   UNL     1       1.077   6.454  21.824  0.00  0.00    +0.000 HD
ENDROOT
BRANCH   6  13
ATOM     13  C   UNL     1       0.834   8.925  21.046  0.00  0.00    +0.000 A 
ATOM     14  C   UNL     1       0.564  10.115  20.363  0.00  0.00    +0.000 A 
ATOM     15  C   UNL     1      -0.195  11.114  20.975  0.00  0.00    +0.000 A 
ATOM     16  C   UNL     1      -0.684  10.937  22.275  0.00  0.00    +0.000 A 
ATOM     17  C   UNL     1      -1.516  11.991  22.941  0.00  0.00    +0.000 C 
ATOM     18  C   UNL     1      -0.384   9.756  22.966  0.00  0.00    +0.000 A 
ATOM     19  C   UNL     1       0.375   8.757  22.358  0.00  0.00    +0.000 A 
ENDBRANCH   6  13
BRANCH   1  21
ATOM     20  C   UNL     1       6.518   4.391  16.557  0.00  0.00    +0.000 C 
ATOM     21  O   UNL     1       5.175   3.998  16.832  0.00  0.00    +0.000 OA
ENDBRANCH   1  21
TORSDOF 2
ENDMDL
MODEL 8
REMARK VINA RESULT:      -7.2      2.374      3.538
REMARK  Name = 
REMARK  4 active torsions:
REMARK  status: ('A' for Active; 'I' for Inactive)
REMARK    1  A    between atoms: C_1  and  O_2
REMARK    2  A    between atoms: O_2  and  C_3
REMARK    3  A    between atoms: C_8  and  C_9
REMARK    4  A    between atoms: C_12  and  C_13
REMARK                            x       y       z     vdW  Elec       q    Type
REMARK                         _______ _______ _______ _____ _____    ______ ____
ROOT
ATOM      1  C   UNL     1       3.294   3.926  18.757  0.00  0.00    +0.000 A 
ATOM      2  C   UNL     1       2.660   3.637  19.969  0.00  0.00    +0.000 A 
ATOM      3  C   UNL     1       2.022   4.648  20.698  0.00  0.00    +0.000 A 
ATOM      4  C   UNL     1       1.992   5.955  20.213  0.00  0.00    +0.000 A 
ATOM      5  N   UNL     1       1.333   6.949  20.956  0.00  0.00    +0.000 NA
ATOM      6  C   UNL     1       1.280   8.146  20.462  0.00  0.00    +0.000 A 
ATOM      7  N   UNL     1       1.868   8.481  19.263  0.00  0.00    +0.000 N 
ATOM      8  C   UNL     1       2.555   7.594  18.481  0.00  0.00    +0.000 A 
ATOM      9  O   UNL     1       3.094   7.931  17.432  0.00  0.00    +0.000 OA
ATOM     10  C   UNL     1       2.607   6.219  18.987  0.00  0.00    +0.000 A 
ATOM     11  C   UNL     1       3.252   5.222  18.253  0.00  0.00    +0.000 A 
ATOM     12  H   UNL     1       1.878   9.433  18.925  0.00  0.00    +0.000 HD
ENDROOT
BRANCH   6  13
ATOM     13  C   UNL     1       0.587   9.247  21.177  0.00  0.00    +0.000 A 
ATOM     14  C   UNL     1       0.426  10.482  20.542  0.00  0.00    +0.000 A 
ATOM     15  C   UNL     1      -0.256  11.515  21.188  0.00  0.00    +0.000 A 
ATOM     16  C   UNL     1      -0.775  11.326  22.474  0.00  0.00    +0.000 A 
ATOM     17  C   UNL     1      -1.526  12.418  23.175  0.00  0.00    +0.000 C 
ATOM     18  C   UNL     1      -0.583  10.098  23.118  0.00  0.00    +0.000 A 
ATOM     19  C   UNL     1       0.098   9.065  22.477  0.00  0.00    +0.000 A 
ENDBRANCH   6  13
BRANCH   1  21
ATOM     20  C   UNL     1       3.403   1.590  18.512  0.00  0.00    +0.000 C 
ATOM     21  O   UNL     1       3.895   2.872  18.128  0.00  0.00    +0.000 OA
ENDBRANCH   1  21
TORSDOF 2
ENDMDL
MODEL 9
REMARK VINA RESULT:      -7.1      2.043      7.230
REMARK  Name = 
REMARK  4 active torsions:
REMARK  status: ('A' for Active; 'I' for Inactive)
REMARK    1  A    between atoms: C_1  and  O_2
REMARK    2  A    between atoms: O_2  and  C_3
REMARK    3  A    between atoms: C_8  and  C_9
REMARK    4  A    between atoms: C_12  and  C_13
REMARK                            x       y       z     vdW  Elec       q    Type
REMARK                         _______ _______ _______ _____ _____    ______ ____
ROOT
ATOM      1  C   UNL     1       0.412   9.304  21.004  0.00  0.00    +0.000 A 
ATOM      2  C   UNL     1       0.733  10.038  19.859  0.00  0.00    +0.000 A 
ATOM      3  C   UNL     1       1.563   9.492  18.873  0.00  0.00    +0.000 A 
ATOM      4  C   UNL     1       2.062   8.197  19.009  0.00  0.00    +0.000 A 
ATOM      5  N   UNL     1       2.882   7.666  17.999  0.00  0.00    +0.000 NA
ATOM      6  C   UNL     1       3.296   6.444  18.128  0.00  0.00    +0.000 A 
ATOM      7  N   UNL     1       2.991   5.669  19.224  0.00  0.00    +0.000 N 
ATOM      8  C   UNL     1       2.227   6.103  20.271  0.00  0.00    +0.000 A 
ATOM      9  O   UNL     1       1.999   5.398  21.249  0.00  0.00    +0.000 OA
ATOM     10  C   UNL     1       1.708   7.469  20.148  0.00  0.00    +0.000 A 
ATOM     11  C   UNL     1       0.887   8.003  21.142  0.00  0.00    +0.000 A 
ATOM     12  H   UNL     1       3.379   4.744  19.343  0.00  0.00    +0.000 HD
ENDROOT
BRANCH   6  13
ATOM     13  C   UNL     1       4.150   5.805  17.096  0.00  0.00    +0.000 A 
ATOM     14  C   UNL     1       4.240   4.411  17.049  0.00  0.00    +0.000 A 
ATOM     15  C   UNL     1       5.010   3.794  16.061  0.00  0.00    +0.000 A 
ATOM     16  C   UNL     1       5.701   4.564  15.117  0.00  0.00    +0.000 A 
ATOM     17  C   UNL     1       6.517   3.918  14.037  0.00  0.00    +0.000 C 
ATOM     18  C   UNL     1       5.632   5.960  15.187  0.00  0.00    +0.000 A 
ATOM     19  C   UNL     1       4.866   6.579  16.174  0.00  0.00    +0.000 A 
ENDBRANCH   6  13
BRANCH   1  21
ATOM     20  C   UNL     1      -0.142   9.591  23.271  0.00  0.00    +0.000 C 
ATOM     21  O   UNL     1      -0.398   9.930  21.911  0.00  0.00    +0.000 OA
ENDBRANCH   1  21
TORSDOF 2
ENDMDL
