MODEL 1
REMARK VINA RESULT:      -5.4      0.000      0.000
REMARK  Name = 
REMARK  4 active torsions:
REMARK  status: ('A' for Active; 'I' for Inactive)
REMARK    1  A    between atoms: C_1  and  O_2
REMARK    2  A    between atoms: O_2  and  C_3
REMARK    3  A    between atoms: C_3  and  C_5
REMARK    4  A    between atoms: C_5  and  C_6
REMARK                            x       y       z     vdW  Elec       q    Type
REMARK                         _______ _______ _______ _____ _____    ______ ____
ROOT
ATOM      1  C   UNL     1       5.321   5.835  17.974  0.00  0.00    +0.000 C 
ATOM      2  N   UNL     1       4.294   5.267  17.051  0.00  0.00    +0.000 NA
ATOM      3  C   UNL     1       3.411   4.318  17.741  0.00  0.00    +0.000 C 
ATOM      4  C   UNL     1       4.237   3.181  18.346  0.00  0.00    +0.000 C 
ATOM      5  N   UNL     1       5.199   3.698  19.287  0.00  0.00    +0.000 N 
ATOM      6  C   UNL     1       5.856   4.875  19.068  0.00  0.00    +0.000 C 
ATOM      7  O   UNL     1       6.811   5.172  19.787  0.00  0.00    +0.000 OA
ATOM      8  H   UNL     1       4.796   4.738  16.326  0.00  0.00    +0.000 HD
ATOM      9  H   UNL     1       5.633   3.084  19.966  0.00  0.00    +0.000 HD
ENDROOT
BRANCH   1  10
ATOM     10  C   UNL     1       6.518   6.406  17.200  0.00  0.00    +0.000 C 
BRANCH  10  11
ATOM     11  C   UNL     1       7.063   5.406  16.204  0.00  0.00    +0.000 C 
ATOM     12  O   UNL     1       7.882   4.537  16.471  0.00  0.00    +0.000 OA
BRANCH  11  14
ATOM     13  C   UNL     1       6.416   4.374  14.204  0.00  0.00    +0.000 C 
ATOM     14  O   UNL     1       6.470   5.568  14.991  0.00  0.00    +0.000 OA
ENDBRANCH  11  14
ENDBRANCH  10  11
ENDBRANCH   1  10
TORSDOF 3
ENDMDL
MODEL 2
REMARK VINA RESULT:      -5.2      3.205      5.237
REMARK  Name = 
REMARK  4 active torsions:
REMARK  status: ('A' for Active; 'I' for Inactive)
REMARK    1  A    between atoms: C_1  and  O_2
REMARK    2  A    between atoms: O_2  and  C_3
REMARK    3  A    between atoms: C_3  and  C_5
REMARK    4  A    between atoms: C_5  and  C_6
REMARK                            x       y       z     vdW  Elec       q    Type
REMARK                         _______ _______ _______ _____ _____    ______ ____
ROOT
ATOM      1  C   UNL     1       3.027   3.892  17.793  0.00  0.00    +0.000 C 
ATOM      2  N   UNL     1       3.452   5.322  17.873  0.00  0.00    +0.000 NA
ATOM      3  C   UNL     1       4.914   5.451  17.900  0.00  0.00    +0.000 C 
ATOM      4  C   UNL     1       5.484   4.684  19.094  0.00  0.00    +0.000 C 
ATOM      5  N   UNL     1       5.138   3.286  19.011  0.00  0.00    +0.000 N 
ATOM      6  C   UNL     1       3.919   2.876  18.552  0.00  0.00    +0.000 C 
ATOM      7  O   UNL     1       3.592   1.697  18.692  0.00  0.00    +0.000 OA
ATOM      8  H   UNL     1       3.100   5.695  18.764  0.00  0.00    +0.000 HD
ATOM      9  H   UNL     1       5.646   2.600  19.555  0.00  0.00    +0.000 HD
ENDROOT
BRANCH   1  10
ATOM     10  C   UNL     1       1.576   3.710  18.262  0.00  0.00    +0.000 C 
BRANCH  10  11
ATOM     11  C   UNL     1       1.410   4.094  19.717  0.00  0.00    +0.000 C 
ATOM     12  O   UNL     1       1.681   5.195  20.178  0.00  0.00    +0.000 OA
BRANCH  11  14
ATOM     13  C   UNL     1       1.619   2.683  21.574  0.00  0.00    +0.000 C 
ATOM     14  O   UNL     1       0.862   3.069  20.422  0.00  0.00    +0.000 OA
ENDBRANCH  11  14
ENDBRANCH  10  11
ENDBRANCH   1  10
TORSDOF 3
ENDMDL
MODEL 3
REMARK VINA RESULT:      -5.2      3.315      5.173
REMARK  Name = 
REMARK  4 active torsions:
REMARK  status: ('A' for Active; 'I' for Inactive)
REMARK    1  A    between atoms: C_1  and  O_2
REMARK    2  A    between atoms: O_2  and  C_3
REMARK    3  A    between atoms: C_3  and  C_5
REMARK    4  A    between atoms: C_5  and  C_6
REMARK                            x       y       z     vdW  Elec       q    Type
REMARK                         _______ _______ _______ _____ _____    ______ ____
ROOT
ATOM      1  C   UNL     1       3.620   2.283  18.337  0.00  0.00    +0.000 C 
ATOM      2  N   UNL     1       3.507   3.247  17.202  0.00  0.00    +0.000 NA
ATOM      3  C   UNL     1       4.800   3.871  16.890  0.00  0.00    +0.000 C 
ATOM      4  C   UNL     1       5.339   4.598  18.124  0.00  0.00    +0.000 C 
ATOM      5  N   UNL     1       5.514   3.677  19.219  0.00  0.00    +0.000 N 
ATOM      6  C   UNL     1       4.629   2.662  19.452  0.00  0.00    +0.000 C 
ATOM      7  O   UNL     1       4.702   2.034  20.509  0.00  0.00    +0.000 OA
ATOM      8  H   UNL     1       2.874   4.000  17.503  0.00  0.00    +0.000 HD
ATOM      9  H   UNL     1       6.102   3.922  20.007  0.00  0.00    +0.000 HD
ENDROOT
BRANCH   1  10
ATOM     10  C   UNL     1       2.255   2.017  18.987  0.00  0.00    +0.000 C 
BRANCH  10  11
ATOM     11  C   UNL     1       1.351   3.228  18.895  0.00  0.00    +0.000 C 
ATOM     12  O   UNL     1       0.813   3.616  17.867  0.00  0.00    +0.000 OA
BRANCH  11  14
ATOM     13  C   UNL     1       1.288   2.860  21.207  0.00  0.00    +0.000 C 
ATOM     14  O   UNL     1       1.173   3.786  20.122  0.00  0.00    +0.000 OA
ENDBRANCH  11  14
ENDBRANCH  10  11
ENDBRANCH   1  10
TORSDOF 3
ENDMDL
MODEL 4
REMARK VINA RESULT:      -5.2      2.515      4.233
REMARK  Name = 
REMARK  4 active torsions:
REMARK  status: ('A' for Active; 'I' for Inactive)
REMARK    1  A    between atoms: C_1  and  O_2
REMARK    2  A    between atoms: O_2  and  C_3
REMARK    3  A    between atoms: C_3  and  C_5
REMARK    4  A    between atoms: C_5  and  C_6
REMARK                            x       y       z     vdW  Elec       q    Type
REMARK                         _______ _______ _______ _____ _____    ______ ____
ROOT
ATOM      1  C   UNL     1       4.965   4.762  18.869  0.00  0.00    +0.000 C 
ATOM      2  N   UNL     1       6.203   3.974  18.590  0.00  0.00    +0.000 NA
ATOM      3  C   UNL     1       7.037   4.621  17.569  0.00  0.00    +0.000 C 
ATOM      4  C   UNL     1       6.240   4.790  16.274  0.00  0.00    +0.000 C 
ATOM      5  N   UNL     1       5.068   5.598  16.503  0.00  0.00    +0.000 N 
ATOM      6  C   UNL     1       4.340   5.497  17.655  0.00  0.00    +0.000 C 
ATOM      7  O   UNL     1       3.241   6.048  17.720  0.00  0.00    +0.000 OA
ATOM      8  H   UNL     1       5.907   3.067  18.208  0.00  0.00    +0.000 HD
ATOM      9  H   UNL     1       4.582   6.029  15.726  0.00  0.00    +0.000 HD
ENDROOT
BRANCH   1  10
ATOM     10  C   UNL     1       3.881   3.893  19.522  0.00  0.00    +0.000 C 
BRANCH  10  11
ATOM     11  C   UNL     1       4.287   2.435  19.561  0.00  0.00    +0.000 C 
ATOM     12  O   UNL     1       4.951   1.924  20.452  0.00  0.00    +0.000 OA
BRANCH  11  14
ATOM     13  C   UNL     1       2.469   2.230  18.099  0.00  0.00    +0.000 C 
ATOM     14  O   UNL     1       3.760   1.764  18.502  0.00  0.00    +0.000 OA
ENDBRANCH  11  14
ENDBRANCH  10  11
ENDBRANCH   1  10
TORSDOF 3
ENDMDL
MODEL 5
REMARK VINA RESULT:      -5.2      0.862      1.320
REMARK  Name = 
REMARK  4 active torsions:
REMARK  status: ('A' for Active; 'I' for Inactive)
REMARK    1  A    between atoms: C_1  and  O_2
REMARK    2  A    between atoms: O_2  and  C_3
REMARK    3  A    between atoms: C_3  and  C_5
REMARK    4  A    between atoms: C_5  and  C_6
REMARK                            x       y       z     vdW  Elec       q    Type
REMARK                         _______ _______ _______ _____ _____    ______ ____
ROOT
ATOM      1  C   UNL     1       4.876   5.889  18.274  0.00  0.00    +0.000 C 
ATOM      2  N   UNL     1       3.831   5.365  17.345  0.00  0.00    +0.000 NA
ATOM      3  C   UNL     1       3.185   4.160  17.879  0.00  0.00    +0.000 C 
ATOM      4  C   UNL     1       4.234   3.073  18.129  0.00  0.00    +0.000 C 
ATOM      5  N   UNL     1       5.225   3.532  19.070  0.00  0.00    +0.000 N 
ATOM      6  C   UNL     1       5.676   4.822  19.066  0.00  0.00    +0.000 C 
ATOM      7  O   UNL     1       6.663   5.113  19.742  0.00  0.00    +0.000 OA
ATOM      8  H   UNL     1       4.306   5.092  16.474  0.00  0.00    +0.000 HD
ATOM      9  H   UNL     1       5.824   2.869  19.547  0.00  0.00    +0.000 HD
ENDROOT
BRANCH   1  10
ATOM     10  C   UNL     1       5.873   6.800  17.544  0.00  0.00    +0.000 C 
BRANCH  10  11
ATOM     11  C   UNL     1       5.999   6.426  16.082  0.00  0.00    +0.000 C 
ATOM     12  O   UNL     1       5.192   6.735  15.216  0.00  0.00    +0.000 OA
BRANCH  11  14
ATOM     13  C   UNL     1       6.986   4.364  15.579  0.00  0.00    +0.000 C 
ATOM     14  O   UNL     1       7.160   5.756  15.859  0.00  0.00    +0.000 OA
ENDBRANCH  11  14
ENDBRANCH  10  11
ENDBRANCH   1  10
TORSDOF 3
ENDMDL
MODEL 6
REMARK VINA RESULT:      -5.1      1.723      2.449
REMARK  Name = 
REMARK  4 active torsions:
REMARK  status: ('A' for Active; 'I' for Inactive)
REMARK    1  A    between atoms: C_1  and  O_2
REMARK    2  A    between atoms: O_2  and  C_3
REMARK    3  A    between atoms: C_3  and  C_5
REMARK    4  A    between atoms: C_5  and  C_6
REMARK                            x       y       z     vdW  Elec       q    Type
REMARK                         _______ _______ _______ _____ _____    ______ ____
ROOT
ATOM      1  C   UNL     1       4.662   4.771  16.570  0.00  0.00    +0.000 C 
ATOM      2  N   UNL     1       5.003   3.460  17.200  0.00  0.00    +0.000 NA
ATOM      3  C   UNL     1       4.186   3.204  18.393  0.00  0.00    +0.000 C 
ATOM      4  C   UNL     1       4.387   4.325  19.414  0.00  0.00    +0.000 C 
ATOM      5  N   UNL     1       4.008   5.598  18.850  0.00  0.00    +0.000 N 
ATOM      6  C   UNL     1       4.269   5.910  17.546  0.00  0.00    +0.000 C 
ATOM      7  O   UNL     1       4.118   7.073  17.167  0.00  0.00    +0.000 OA
ATOM      8  H   UNL     1       5.981   3.517  17.511  0.00  0.00    +0.000 HD
ATOM      9  H   UNL     1       3.822   6.390  19.453  0.00  0.00    +0.000 HD
ENDROOT
BRANCH   1  10
ATOM     10  C   UNL     1       5.799   5.274  15.669  0.00  0.00    +0.000 C 
BRANCH  10  11
ATOM     11  C   UNL     1       7.093   5.426  16.440  0.00  0.00    +0.000 C 
ATOM     12  O   UNL     1       7.674   4.510  17.007  0.00  0.00    +0.000 OA
BRANCH  11  14
ATOM     13  C   UNL     1       7.616   7.378  17.623  0.00  0.00    +0.000 C 
ATOM     14  O   UNL     1       7.549   6.705  16.363  0.00  0.00    +0.000 OA
ENDBRANCH  11  14
ENDBRANCH  10  11
ENDBRANCH   1  10
TORSDOF 3
ENDMDL
MODEL 7
REMARK VINA RESULT:      -5.1      1.226      1.775
REMARK  Name = 
REMARK  4 active torsions:
REMARK  status: ('A' for Active; 'I' for Inactive)
REMARK    1  A    between atoms: C_1  and  O_2
REMARK    2  A    between atoms: O_2  and  C_3
REMARK    3  A    between atoms: C_3  and  C_5
REMARK    4  A    between atoms: C_5  and  C_6
REMARK                            x       y       z     vdW  Elec       q    Type
REMARK                         _______ _______ _______ _____ _____    ______ ____
ROOT
ATOM      1  C   UNL     1       4.473   5.682  18.333  0.00  0.00    +0.000 C 
ATOM      2  N   UNL     1       3.447   5.025  17.470  0.00  0.00    +0.000 NA
ATOM      3  C   UNL     1       2.980   3.760  18.051  0.00  0.00    +0.000 C 
ATOM      4  C   UNL     1       4.163   2.809  18.249  0.00  0.00    +0.000 C 
ATOM      5  N   UNL     1       5.144   3.396  19.128  0.00  0.00    +0.000 N 
ATOM      6  C   UNL     1       5.438   4.729  19.086  0.00  0.00    +0.000 C 
ATOM      7  O   UNL     1       6.420   5.146  19.702  0.00  0.00    +0.000 OA
ATOM      8  H   UNL     1       3.901   4.797  16.576  0.00  0.00    +0.000 HD
ATOM      9  H   UNL     1       5.843   2.816  19.575  0.00  0.00    +0.000 HD
ENDROOT
BRANCH   1  10
ATOM     10  C   UNL     1       5.312   6.694  17.538  0.00  0.00    +0.000 C 
BRANCH  10  11
ATOM     11  C   UNL     1       6.145   6.011  16.475  0.00  0.00    +0.000 C 
ATOM     12  O   UNL     1       5.704   5.221  15.650  0.00  0.00    +0.000 OA
BRANCH  11  14
ATOM     13  C   UNL     1       7.651   7.522  17.439  0.00  0.00    +0.000 C 
ATOM     14  O   UNL     1       7.433   6.443  16.526  0.00  0.00    +0.000 OA
ENDBRANCH  11  14
ENDBRANCH  10  11
ENDBRANCH   1  10
TORSDOF 3
ENDMDL
MODEL 8
REMARK VINA RESULT:      -5.1      1.984      3.058
REMARK  Name = 
REMARK  4 active torsions:
REMARK  status: ('A' for Active; 'I' for Inactive)
REMARK    1  A    between atoms: C_1  and  O_2
REMARK    2  A    between atoms: O_2  and  C_3
REMARK    3  A    between atoms: C_3  and  C_5
REMARK    4  A    between atoms: C_5  and  C_6
REMARK                            x       y       z     vdW  Elec       q    Type
REMARK                         _______ _______ _______ _____ _____    ______ ____
ROOT
ATOM      1  C   UNL     1       4.777   4.072  18.080  0.00  0.00    +0.000 C 
ATOM      2  N   UNL     1       5.284   3.136  19.128  0.00  0.00    +0.000 NA
ATOM      3  C   UNL     1       4.203   2.318  19.692  0.00  0.00    +0.000 C 
ATOM      4  C   UNL     1       3.125   3.221  20.295  0.00  0.00    +0.000 C 
ATOM      5  N   UNL     1       2.576   4.096  19.289  0.00  0.00    +0.000 N 
ATOM      6  C   UNL     1       3.358   4.651  18.316  0.00  0.00    +0.000 C 
ATOM      7  O   UNL     1       2.892   5.547  17.612  0.00  0.00    +0.000 OA
ATOM      8  H   UNL     1       5.658   3.710  19.894  0.00  0.00    +0.000 HD
ATOM      9  H   UNL     1       1.688   4.559  19.442  0.00  0.00    +0.000 HD
ENDROOT
BRANCH   1  10
ATOM     10  C   UNL     1       5.747   5.240  17.853  0.00  0.00    +0.000 C 
BRANCH  10  11
ATOM     11  C   UNL     1       7.119   4.750  17.442  0.00  0.00    +0.000 C 
ATOM     12  O   UNL     1       7.472   4.565  16.285  0.00  0.00    +0.000 OA
BRANCH  11  14
ATOM     13  C   UNL     1       7.918   5.732  19.412  0.00  0.00    +0.000 C 
ATOM     14  O   UNL     1       7.920   4.605  18.531  0.00  0.00    +0.000 OA
ENDBRANCH  11  14
ENDBRANCH  10  11
ENDBRANCH   1  10
TORSDOF 3
ENDMDL
MODEL 9
REMARK VINA RESULT:      -5.1      1.484      1.763
REMARK  Name = 
REMARK  4 active torsions:
REMARK  status: ('A' for Active; 'I' for Inactive)
REMARK    1  A    between atoms: C_1  and  O_2
REMARK    2  A    between atoms: O_2  and  C_3
REMARK    3  A    between atoms: C_3  and  C_5
REMARK    4  A    between atoms: C_5  and  C_6
REMARK                            x       y       z     vdW  Elec       q    Type
REMARK                         _______ _______ _______ _____ _____    ______ ____
ROOT
ATOM      1  C   UNL     1       6.251   5.804  17.520  0.00  0.00    +0.000 C 
ATOM      2  N   UNL     1       5.208   6.311  16.579  0.00  0.00    +0.000 NA
ATOM      3  C   UNL     1       4.116   6.985  17.292  0.00  0.00    +0.000 C 
ATOM      4  C   UNL     1       3.473   6.022  18.292  0.00  0.00    +0.000 C 
ATOM      5  N   UNL     1       4.447   5.562  19.251  0.00  0.00    +0.000 N 
ATOM      6  C   UNL     1       5.737   5.290  18.889  0.00  0.00    +0.000 C 
ATOM      7  O   UNL     1       6.472   4.707  19.687  0.00  0.00    +0.000 OA
ATOM      8  H   UNL     1       4.800   5.494  16.106  0.00  0.00    +0.000 HD
ATOM      9  H   UNL     1       4.150   5.144  20.124  0.00  0.00    +0.000 HD
ENDROOT
BRANCH   1  10
ATOM     10  C   UNL     1       7.101   4.700  16.874  0.00  0.00    +0.000 C 
BRANCH  10  11
ATOM     11  C   UNL     1       7.028   4.755  15.364  0.00  0.00    +0.000 C 
ATOM     12  O   UNL     1       7.684   5.517  14.665  0.00  0.00    +0.000 OA
BRANCH  11  14
ATOM     13  C   UNL     1       6.140   3.715  13.463  0.00  0.00    +0.000 C 
ATOM     14  O   UNL     1       6.182   3.802  14.891  0.00  0.00    +0.000 OA
ENDBRANCH  11  14
ENDBRANCH  10  11
ENDBRANCH   1  10
TORSDOF 3
ENDMDL
