MODEL 1
REMARK VINA RESULT:      -7.6      0.000      0.000
REMARK  Name = 
REMARK  10 active torsions:
REMARK  status: ('A' for Active; 'I' for Inactive)
REMARK    1  A    between atoms: C_1  and  O_2
REMARK    2  A    between atoms: O_2  and  C_3
REMARK    3  A    between atoms: C_5  and  O_6
REMARK    4  A    between atoms: C_8  and  C_9
REMARK    5  A    between atoms: C_13  and  C_14
REMARK    6  A    between atoms: C_16  and  O_17
REMARK    7  A    between atoms: C_18  and  O_19
REMARK    8  A    between atoms: O_19  and  C_20
REMARK    9  A    between atoms: C_21  and  O_22
REMARK   10  A    between atoms: O_22  and  C_23
REMARK                            x       y       z     vdW  Elec       q    Type
REMARK                         _______ _______ _______ _____ _____    ______ ____
ROOT
ATOM      1  C   UNL     1       3.331   5.030  18.415  0.00  0.00    +0.000 C 
ATOM      2  O   UNL     1       2.739   6.016  17.530  0.00  0.00    +0.000 OA
ATOM      3  C   UNL     1       3.004   7.305  18.093  0.00  0.00    +0.000 C 
ATOM      4  C   UNL     1       2.866   7.090  19.579  0.00  0.00    +0.000 C 
ATOM      5  C   UNL     1       1.402   7.022  19.997  0.00  0.00    +0.000 C 
ATOM      6  O   UNL     1       1.308   5.931  20.914  0.00  0.00    +0.000 OA
ATOM      7  C   UNL     1       2.340   5.075  20.692  0.00  0.00    +0.000 C 
ATOM      8  O   UNL     1       2.412   3.961  21.190  0.00  0.00    +0.000 OA
ATOM      9  C   UNL     1       3.369   5.681  19.790  0.00  0.00    +0.000 C 
ENDROOT
BRANCH   1  14
ATOM     10  C   UNL     1       5.855   4.210  15.687  0.00  0.00    +0.000 A 
ATOM     11  C   UNL     1       7.065   4.281  16.378  0.00  0.00    +0.000 A 
ATOM     12  C   UNL     1       7.066   4.515  17.748  0.00  0.00    +0.000 A 
ATOM     13  C   UNL     1       5.876   4.686  18.448  0.00  0.00    +0.000 A 
ATOM     14  C   UNL     1       4.650   4.654  17.770  0.00  0.00    +0.000 A 
ATOM     15  C   UNL     1       4.659   4.401  16.382  0.00  0.00    +0.000 A 
BRANCH  10  17
ATOM     16  C   UNL     1       6.992   4.697  13.658  0.00  0.00    +0.000 C 
ATOM     17  O   UNL     1       5.972   3.980  14.343  0.00  0.00    +0.000 OA
ENDBRANCH  10  17
BRANCH  12  18
ATOM     18  O   UNL     1       8.229   4.628  18.450  0.00  0.00    +0.000 OA
ATOM     19  H   UNL     1       8.419   3.770  18.866  0.00  0.00    +0.000 HD
ENDBRANCH  12  18
ENDBRANCH   1  14
BRANCH   5  20
ATOM     20  C   UNL     1       0.952   8.318  20.630  0.00  0.00    +0.000 A 
ATOM     21  C   UNL     1       0.727   8.414  22.008  0.00  0.00    +0.000 A 
ATOM     22  C   UNL     1       0.376   9.636  22.591  0.00  0.00    +0.000 A 
ATOM     23  C   UNL     1       0.245  10.793  21.812  0.00  0.00    +0.000 A 
ATOM     24  C   UNL     1       0.467  10.702  20.418  0.00  0.00    +0.000 A 
ATOM     25  C   UNL     1       0.815   9.472  19.843  0.00  0.00    +0.000 A 
BRANCH  22  26
ATOM     26  O   UNL     1       0.179   9.650  23.947  0.00  0.00    +0.000 OA
ATOM     27  H   UNL     1      -0.774   9.646  24.136  0.00  0.00    +0.000 HD
ENDBRANCH  22  26
BRANCH  23  28
ATOM     28  O   UNL     1      -0.083  12.052  22.253  0.00  0.00    +0.000 OA
ATOM     29  C   UNL     1      -1.413  12.304  22.674  0.00  0.00    +0.000 C 
ENDBRANCH  23  28
BRANCH  24  30
ATOM     30  O   UNL     1       0.328  11.869  19.704  0.00  0.00    +0.000 OA
ATOM     31  C   UNL     1       1.493  12.457  19.143  0.00  0.00    +0.000 C 
ENDBRANCH  24  30
ENDBRANCH   5  20
TORSDOF 7
ENDMDL
MODEL 2
REMARK VINA RESULT:      -7.3      2.338      9.661
REMARK  Name = 
REMARK  10 active torsions:
REMARK  status: ('A' for Active; 'I' for Inactive)
REMARK    1  A    between atoms: C_1  and  O_2
REMARK    2  A    between atoms: O_2  and  C_3
REMARK    3  A    between atoms: C_5  and  O_6
REMARK    4  A    between atoms: C_8  and  C_9
REMARK    5  A    between atoms: C_13  and  C_14
REMARK    6  A    between atoms: C_16  and  O_17
REMARK    7  A    between atoms: C_18  and  O_19
REMARK    8  A    between atoms: O_19  and  C_20
REMARK    9  A    between atoms: C_21  and  O_22
REMARK   10  A    between atoms: O_22  and  C_23
REMARK                            x       y       z     vdW  Elec       q    Type
REMARK                         _______ _______ _______ _____ _____    ______ ____
ROOT
ATOM      1  C   UNL     1      -0.223  11.421  21.596  0.00  0.00    +0.000 C 
ATOM      2  O   UNL     1       0.413  11.551  20.297  0.00  0.00    +0.000 OA
ATOM      3  C   UNL     1       0.052  10.398  19.530  0.00  0.00    +0.000 C 
ATOM      4  C   UNL     1       0.062   9.274  20.536  0.00  0.00    +0.000 C 
ATOM      5  C   UNL     1       1.483   8.826  20.855  0.00  0.00    +0.000 C 
ATOM      6  O   UNL     1       1.531   8.662  22.273  0.00  0.00    +0.000 OA
ATOM      7  C   UNL     1       0.555   9.418  22.841  0.00  0.00    +0.000 C 
ATOM      8  O   UNL     1       0.477   9.629  24.042  0.00  0.00    +0.000 OA
ATOM      9  C   UNL     1      -0.408   9.927  21.815  0.00  0.00    +0.000 C 
ENDROOT
BRANCH   1  14
ATOM     10  C   UNL     1      -3.649  12.819  22.484  0.00  0.00    +0.000 A 
ATOM     11  C   UNL     1      -3.684  14.001  21.744  0.00  0.00    +0.000 A 
ATOM     12  C   UNL     1      -2.631  14.312  20.891  0.00  0.00    +0.000 A 
ATOM     13  C   UNL     1      -1.536  13.465  20.763  0.00  0.00    +0.000 A 
ATOM     14  C   UNL     1      -1.463  12.290  21.523  0.00  0.00    +0.000 A 
ATOM     15  C   UNL     1      -2.541  11.975  22.375  0.00  0.00    +0.000 A 
BRANCH  10  17
ATOM     16  C   UNL     1      -4.469  12.413  24.678  0.00  0.00    +0.000 C 
ATOM     17  O   UNL     1      -4.733  12.614  23.294  0.00  0.00    +0.000 OA
ENDBRANCH  10  17
BRANCH  12  18
ATOM     18  O   UNL     1      -2.612  15.476  20.180  0.00  0.00    +0.000 OA
ATOM     19  H   UNL     1      -2.915  15.286  19.276  0.00  0.00    +0.000 HD
ENDBRANCH  12  18
ENDBRANCH   1  14
BRANCH   5  20
ATOM     20  C   UNL     1       1.827   7.541  20.137  0.00  0.00    +0.000 A 
ATOM     21  C   UNL     1       2.587   7.546  18.962  0.00  0.00    +0.000 A 
ATOM     22  C   UNL     1       2.955   6.346  18.345  0.00  0.00    +0.000 A 
ATOM     23  C   UNL     1       2.575   5.111  18.889  0.00  0.00    +0.000 A 
ATOM     24  C   UNL     1       1.803   5.101  20.074  0.00  0.00    +0.000 A 
ATOM     25  C   UNL     1       1.436   6.308  20.683  0.00  0.00    +0.000 A 
BRANCH  22  26
ATOM     26  O   UNL     1       3.705   6.432  17.202  0.00  0.00    +0.000 OA
ATOM     27  H   UNL     1       4.648   6.414  17.432  0.00  0.00    +0.000 HD
ENDBRANCH  22  26
BRANCH  23  28
ATOM     28  O   UNL     1       2.873   3.865  18.395  0.00  0.00    +0.000 OA
ATOM     29  C   UNL     1       4.180   3.350  18.580  0.00  0.00    +0.000 C 
ENDBRANCH  23  28
BRANCH  24  30
ATOM     30  O   UNL     1       1.462   3.862  20.565  0.00  0.00    +0.000 OA
ATOM     31  C   UNL     1       2.114   3.401  21.739  0.00  0.00    +0.000 C 
ENDBRANCH  24  30
ENDBRANCH   5  20
TORSDOF 7
ENDMDL
MODEL 3
REMARK VINA RESULT:      -7.0      0.698      1.987
REMARK  Name = 
REMARK  10 active torsions:
REMARK  status: ('A' for Active; 'I' for Inactive)
REMARK    1  A    between atoms: C_1  and  O_2
REMARK    2  A    between atoms: O_2  and  C_3
REMARK    3  A    between atoms: C_5  and  O_6
REMARK    4  A    between atoms: C_8  and  C_9
REMARK    5  A    between atoms: C_13  and  C_14
REMARK    6  A    between atoms: C_16  and  O_17
REMARK    7  A    between atoms: C_18  and  O_19
REMARK    8  A    between atoms: O_19  and  C_20
REMARK    9  A    between atoms: C_21  and  O_22
REMARK   10  A    between atoms: O_22  and  C_23
REMARK                            x       y       z     vdW  Elec       q    Type
REMARK                         _______ _______ _______ _____ _____    ______ ____
ROOT
ATOM      1  C   UNL     1       3.232   5.386  18.281  0.00  0.00    +0.000 C 
ATOM      2  O   UNL     1       2.582   6.396  17.465  0.00  0.00    +0.000 OA
ATOM      3  C   UNL     1       2.796   7.659  18.103  0.00  0.00    +0.000 C 
ATOM      4  C   UNL     1       2.690   7.347  19.574  0.00  0.00    +0.000 C 
ATOM      5  C   UNL     1       1.237   7.187  20.005  0.00  0.00    +0.000 C 
ATOM      6  O   UNL     1       1.207   6.038  20.854  0.00  0.00    +0.000 OA
ATOM      7  C   UNL     1       2.273   5.246  20.567  0.00  0.00    +0.000 C 
ATOM      8  O   UNL     1       2.403   4.108  20.994  0.00  0.00    +0.000 OA
ATOM      9  C   UNL     1       3.260   5.953  19.693  0.00  0.00    +0.000 C 
ENDROOT
BRANCH   1  14
ATOM     10  C   UNL     1       6.964   4.766  17.865  0.00  0.00    +0.000 A 
ATOM     11  C   UNL     1       7.038   4.297  16.553  0.00  0.00    +0.000 A 
ATOM     12  C   UNL     1       5.890   4.255  15.769  0.00  0.00    +0.000 A 
ATOM     13  C   UNL     1       4.662   4.670  16.272  0.00  0.00    +0.000 A 
ATOM     14  C   UNL     1       4.557   5.112  17.597  0.00  0.00    +0.000 A 
ATOM     15  C   UNL     1       5.728   5.164  18.380  0.00  0.00    +0.000 A 
BRANCH  10  17
ATOM     16  C   UNL     1       8.227   5.584  19.704  0.00  0.00    +0.000 C 
ATOM     17  O   UNL     1       8.150   4.760  18.546  0.00  0.00    +0.000 OA
ENDBRANCH  10  17
BRANCH  12  18
ATOM     18  O   UNL     1       5.917   3.768  14.495  0.00  0.00    +0.000 OA
ATOM     19  H   UNL     1       5.033   3.424  14.281  0.00  0.00    +0.000 HD
ENDBRANCH  12  18
ENDBRANCH   1  14
BRANCH   5  20
ATOM     20  C   UNL     1       0.738   8.419  20.723  0.00  0.00    +0.000 A 
ATOM     21  C   UNL     1       0.651   8.462  22.119  0.00  0.00    +0.000 A 
ATOM     22  C   UNL     1       0.251   9.631  22.774  0.00  0.00    +0.000 A 
ATOM     23  C   UNL     1      -0.067  10.788  22.050  0.00  0.00    +0.000 A 
ATOM     24  C   UNL     1       0.016  10.749  20.638  0.00  0.00    +0.000 A 
ATOM     25  C   UNL     1       0.413   9.572  19.992  0.00  0.00    +0.000 A 
BRANCH  22  26
ATOM     26  O   UNL     1       0.197   9.596  24.142  0.00  0.00    +0.000 OA
ATOM     27  H   UNL     1       0.578  10.414  24.502  0.00  0.00    +0.000 HD
ENDBRANCH  22  26
BRANCH  23  28
ATOM     28  O   UNL     1      -0.462  12.000  22.563  0.00  0.00    +0.000 OA
ATOM     29  C   UNL     1      -1.794  12.145  23.025  0.00  0.00    +0.000 C 
ENDBRANCH  23  28
BRANCH  24  30
ATOM     30  O   UNL     1      -0.305  11.914  19.980  0.00  0.00    +0.000 OA
ATOM     31  C   UNL     1      -0.416  11.878  18.565  0.00  0.00    +0.000 C 
ENDBRANCH  24  30
ENDBRANCH   5  20
TORSDOF 7
ENDMDL
MODEL 4
REMARK VINA RESULT:      -7.0      1.072      1.124
REMARK  Name = 
REMARK  10 active torsions:
REMARK  status: ('A' for Active; 'I' for Inactive)
REMARK    1  A    between atoms: C_1  and  O_2
REMARK    2  A    between atoms: O_2  and  C_3
REMARK    3  A    between atoms: C_5  and  O_6
REMARK    4  A    between atoms: C_8  and  C_9
REMARK    5  A    between atoms: C_13  and  C_14
REMARK    6  A    between atoms: C_16  and  O_17
REMARK    7  A    between atoms: C_18  and  O_19
REMARK    8  A    between atoms: O_19  and  C_20
REMARK    9  A    between atoms: C_21  and  O_22
REMARK   10  A    between atoms: O_22  and  C_23
REMARK                            x       y       z     vdW  Elec       q    Type
REMARK                         _______ _______ _______ _____ _____    ______ ____
ROOT
ATOM      1  C   UNL     1       3.288   5.620  18.168  0.00  0.00    +0.000 C 
ATOM      2  O   UNL     1       2.551   6.588  17.376  0.00  0.00    +0.000 OA
ATOM      3  C   UNL     1       2.701   7.860  18.014  0.00  0.00    +0.000 C 
ATOM      4  C   UNL     1       2.657   7.538  19.486  0.00  0.00    +0.000 C 
ATOM      5  C   UNL     1       1.231   7.281  19.957  0.00  0.00    +0.000 C 
ATOM      6  O   UNL     1       1.300   6.131  20.801  0.00  0.00    +0.000 OA
ATOM      7  C   UNL     1       2.407   5.410  20.480  0.00  0.00    +0.000 C 
ATOM      8  O   UNL     1       2.623   4.283  20.897  0.00  0.00    +0.000 OA
ATOM      9  C   UNL     1       3.320   6.183  19.581  0.00  0.00    +0.000 C 
ENDROOT
BRANCH   1  14
ATOM     10  C   UNL     1       5.814   4.297  15.646  0.00  0.00    +0.000 A 
ATOM     11  C   UNL     1       6.870   5.196  15.792  0.00  0.00    +0.000 A 
ATOM     12  C   UNL     1       6.804   6.188  16.763  0.00  0.00    +0.000 A 
ATOM     13  C   UNL     1       5.697   6.304  17.596  0.00  0.00    +0.000 A 
ATOM     14  C   UNL     1       4.608   5.435  17.445  0.00  0.00    +0.000 A 
ATOM     15  C   UNL     1       4.690   4.423  16.466  0.00  0.00    +0.000 A 
BRANCH  10  17
ATOM     16  C   UNL     1       6.321   3.859  13.366  0.00  0.00    +0.000 C 
ATOM     17  O   UNL     1       5.981   3.366  14.657  0.00  0.00    +0.000 OA
ENDBRANCH  10  17
BRANCH  12  18
ATOM     18  O   UNL     1       7.801   7.107  16.911  0.00  0.00    +0.000 OA
ATOM     19  H   UNL     1       7.884   7.318  17.856  0.00  0.00    +0.000 HD
ENDBRANCH  12  18
ENDBRANCH   1  14
BRANCH   5  20
ATOM     20  C   UNL     1       0.673   8.476  20.695  0.00  0.00    +0.000 A 
ATOM     21  C   UNL     1       0.638   8.515  22.094  0.00  0.00    +0.000 A 
ATOM     22  C   UNL     1       0.181   9.654  22.764  0.00  0.00    +0.000 A 
ATOM     23  C   UNL     1      -0.247  10.784  22.055  0.00  0.00    +0.000 A 
ATOM     24  C   UNL     1      -0.217  10.748  20.641  0.00  0.00    +0.000 A 
ATOM     25  C   UNL     1       0.238   9.601  19.978  0.00  0.00    +0.000 A 
BRANCH  22  26
ATOM     26  O   UNL     1       0.183   9.618  24.134  0.00  0.00    +0.000 OA
ATOM     27  H   UNL     1       1.094   9.699  24.459  0.00  0.00    +0.000 HD
ENDBRANCH  22  26
BRANCH  23  28
ATOM     28  O   UNL     1      -0.708  11.965  22.583  0.00  0.00    +0.000 OA
ATOM     29  C   UNL     1      -2.037  12.024  23.071  0.00  0.00    +0.000 C 
ENDBRANCH  23  28
BRANCH  24  30
ATOM     30  O   UNL     1      -0.645  11.886  19.997  0.00  0.00    +0.000 OA
ATOM     31  C   UNL     1      -1.786  11.793  19.156  0.00  0.00    +0.000 C 
ENDBRANCH  24  30
ENDBRANCH   5  20
TORSDOF 7
ENDMDL
MODEL 5
REMARK VINA RESULT:      -7.0      1.158      1.783
REMARK  Name = 
REMARK  10 active torsions:
REMARK  status: ('A' for Active; 'I' for Inactive)
REMARK    1  A    between atoms: C_1  and  O_2
REMARK    2  A    between atoms: O_2  and  C_3
REMARK    3  A    between atoms: C_5  and  O_6
REMARK    4  A    between atoms: C_8  and  C_9
REMARK    5  A    between atoms: C_13  and  C_14
REMARK    6  A    between atoms: C_16  and  O_17
REMARK    7  A    between atoms: C_18  and  O_19
REMARK    8  A    between atoms: O_19  and  C_20
REMARK    9  A    between atoms: C_21  and  O_22
REMARK   10  A    between atoms: O_22  and  C_23
REMARK                            x       y       z     vdW  Elec       q    Type
REMARK                         _______ _______ _______ _____ _____    ______ ____
ROOT
ATOM      1  C   UNL     1       3.165   5.600  18.043  0.00  0.00    +0.000 C 
ATOM      2  O   UNL     1       2.359   6.539  17.284  0.00  0.00    +0.000 OA
ATOM      3  C   UNL     1       2.562   7.834  17.858  0.00  0.00    +0.000 C 
ATOM      4  C   UNL     1       2.649   7.567  19.339  0.00  0.00    +0.000 C 
ATOM      5  C   UNL     1       1.270   7.330  19.943  0.00  0.00    +0.000 C 
ATOM      6  O   UNL     1       1.416   6.212  20.820  0.00  0.00    +0.000 OA
ATOM      7  C   UNL     1       2.491   5.479  20.430  0.00  0.00    +0.000 C 
ATOM      8  O   UNL     1       2.746   4.367  20.869  0.00  0.00    +0.000 OA
ATOM      9  C   UNL     1       3.320   6.216  19.426  0.00  0.00    +0.000 C 
ENDROOT
BRANCH   1  14
ATOM     10  C   UNL     1       6.679   6.155  16.691  0.00  0.00    +0.000 A 
ATOM     11  C   UNL     1       6.921   4.963  16.008  0.00  0.00    +0.000 A 
ATOM     12  C   UNL     1       5.919   4.005  15.915  0.00  0.00    +0.000 A 
ATOM     13  C   UNL     1       4.672   4.212  16.495  0.00  0.00    +0.000 A 
ATOM     14  C   UNL     1       4.417   5.387  17.215  0.00  0.00    +0.000 A 
ATOM     15  C   UNL     1       5.435   6.359  17.292  0.00  0.00    +0.000 A 
BRANCH  10  17
ATOM     16  C   UNL     1       7.692   8.045  17.715  0.00  0.00    +0.000 C 
ATOM     17  O   UNL     1       7.736   7.024  16.725  0.00  0.00    +0.000 OA
ENDBRANCH  10  17
BRANCH  12  18
ATOM     18  O   UNL     1       6.130   2.812  15.289  0.00  0.00    +0.000 OA
ATOM     19  H   UNL     1       6.789   2.312  15.799  0.00  0.00    +0.000 HD
ENDBRANCH  12  18
ENDBRANCH   1  14
BRANCH   5  20
ATOM     20  C   UNL     1       0.778   8.553  20.682  0.00  0.00    +0.000 A 
ATOM     21  C   UNL     1       0.714   8.581  22.080  0.00  0.00    +0.000 A 
ATOM     22  C   UNL     1       0.320   9.741  22.754  0.00  0.00    +0.000 A 
ATOM     23  C   UNL     1      -0.016  10.904  22.047  0.00  0.00    +0.000 A 
ATOM     24  C   UNL     1       0.043  10.880  20.634  0.00  0.00    +0.000 A 
ATOM     25  C   UNL     1       0.435   9.712  19.969  0.00  0.00    +0.000 A 
BRANCH  22  26
ATOM     26  O   UNL     1       0.290   9.692  24.122  0.00  0.00    +0.000 OA
ATOM     27  H   UNL     1       0.179  10.590  24.476  0.00  0.00    +0.000 HD
ENDBRANCH  22  26
BRANCH  23  28
ATOM     28  O   UNL     1      -0.408  12.108  22.579  0.00  0.00    +0.000 OA
ATOM     29  C   UNL     1      -1.739  12.249  23.046  0.00  0.00    +0.000 C 
ENDBRANCH  23  28
BRANCH  24  30
ATOM     30  O   UNL     1      -0.295  12.050  19.994  0.00  0.00    +0.000 OA
ATOM     31  C   UNL     1       0.651  12.626  19.104  0.00  0.00    +0.000 C 
ENDBRANCH  24  30
ENDBRANCH   5  20
TORSDOF 7
ENDMDL
MODEL 6
REMARK VINA RESULT:      -7.0      2.225      9.353
REMARK  Name = 
REMARK  10 active torsions:
REMARK  status: ('A' for Active; 'I' for Inactive)
REMARK    1  A    between atoms: C_1  and  O_2
REMARK    2  A    between atoms: O_2  and  C_3
REMARK    3  A    between atoms: C_5  and  O_6
REMARK    4  A    between atoms: C_8  and  C_9
REMARK    5  A    between atoms: C_13  and  C_14
REMARK    6  A    between atoms: C_16  and  O_17
REMARK    7  A    between atoms: C_18  and  O_19
REMARK    8  A    between atoms: O_19  and  C_20
REMARK    9  A    between atoms: C_21  and  O_22
REMARK   10  A    between atoms: O_22  and  C_23
REMARK                            x       y       z     vdW  Elec       q    Type
REMARK                         _______ _______ _______ _____ _____    ______ ____
ROOT
ATOM      1  C   UNL     1      -0.078  11.361  21.391  0.00  0.00    +0.000 C 
ATOM      2  O   UNL     1       0.599  11.371  20.107  0.00  0.00    +0.000 OA
ATOM      3  C   UNL     1       0.203  10.186  19.409  0.00  0.00    +0.000 C 
ATOM      4  C   UNL     1       0.129   9.135  20.488  0.00  0.00    +0.000 C 
ATOM      5  C   UNL     1       1.516   8.643  20.881  0.00  0.00    +0.000 C 
ATOM      6  O   UNL     1       1.516   8.575  22.307  0.00  0.00    +0.000 OA
ATOM      7  C   UNL     1       0.564   9.414  22.792  0.00  0.00    +0.000 C 
ATOM      8  O   UNL     1       0.463   9.711  23.973  0.00  0.00    +0.000 OA
ATOM      9  C   UNL     1      -0.344   9.896  21.705  0.00  0.00    +0.000 C 
ENDROOT
BRANCH   1  14
ATOM     10  C   UNL     1      -3.559  12.812  21.907  0.00  0.00    +0.000 A 
ATOM     11  C   UNL     1      -3.454  14.053  21.277  0.00  0.00    +0.000 A 
ATOM     12  C   UNL     1      -2.282  14.393  20.613  0.00  0.00    +0.000 A 
ATOM     13  C   UNL     1      -1.203  13.518  20.567  0.00  0.00    +0.000 A 
ATOM     14  C   UNL     1      -1.271  12.281  21.221  0.00  0.00    +0.000 A 
ATOM     15  C   UNL     1      -2.469  11.937  21.880  0.00  0.00    +0.000 A 
BRANCH  10  17
ATOM     16  C   UNL     1      -5.927  13.004  21.848  0.00  0.00    +0.000 C 
ATOM     17  O   UNL     1      -4.753  12.583  22.534  0.00  0.00    +0.000 OA
ENDBRANCH  10  17
BRANCH  12  18
ATOM     18  O   UNL     1      -2.129  15.611  20.019  0.00  0.00    +0.000 OA
ATOM     19  H   UNL     1      -1.805  15.471  19.113  0.00  0.00    +0.000 HD
ENDBRANCH  12  18
ENDBRANCH   1  14
BRANCH   5  20
ATOM     20  C   UNL     1       1.816   7.296  20.262  0.00  0.00    +0.000 A 
ATOM     21  C   UNL     1       1.276   6.118  20.790  0.00  0.00    +0.000 A 
ATOM     22  C   UNL     1       1.507   4.886  20.169  0.00  0.00    +0.000 A 
ATOM     23  C   UNL     1       2.279   4.803  19.003  0.00  0.00    +0.000 A 
ATOM     24  C   UNL     1       2.831   5.990  18.467  0.00  0.00    +0.000 A 
ATOM     25  C   UNL     1       2.597   7.218  19.099  0.00  0.00    +0.000 A 
BRANCH  22  26
ATOM     26  O   UNL     1       0.940   3.779  20.742  0.00  0.00    +0.000 OA
ATOM     27  H   UNL     1       1.600   3.069  20.798  0.00  0.00    +0.000 HD
ENDBRANCH  22  26
BRANCH  23  28
ATOM     28  O   UNL     1       2.576   3.667  18.289  0.00  0.00    +0.000 OA
ATOM     29  C   UNL     1       3.582   2.795  18.777  0.00  0.00    +0.000 C 
ENDBRANCH  23  28
BRANCH  24  30
ATOM     30  O   UNL     1       3.577   5.849  17.320  0.00  0.00    +0.000 OA
ATOM     31  C   UNL     1       4.788   6.582  17.212  0.00  0.00    +0.000 C 
ENDBRANCH  24  30
ENDBRANCH   5  20
TORSDOF 7
ENDMDL
MODEL 7
REMARK VINA RESULT:      -6.9      2.364      9.543
REMARK  Name = 
REMARK  10 active torsions:
REMARK  status: ('A' for Active; 'I' for Inactive)
REMARK    1  A    between atoms: C_1  and  O_2
REMARK    2  A    between atoms: O_2  and  C_3
REMARK    3  A    between atoms: C_5  and  O_6
REMARK    4  A    between atoms: C_8  and  C_9
REMARK    5  A    between atoms: C_13  and  C_14
REMARK    6  A    between atoms: C_16  and  O_17
REMARK    7  A    between atoms: C_18  and  O_19
REMARK    8  A    between atoms: O_19  and  C_20
REMARK    9  A    between atoms: C_21  and  O_22
REMARK   10  A    between atoms: O_22  and  C_23
REMARK                            x       y       z     vdW  Elec       q    Type
REMARK                         _______ _______ _______ _____ _____    ______ ____
ROOT
ATOM      1  C   UNL     1      -0.345  11.796  19.809  0.00  0.00    +0.000 C 
ATOM      2  O   UNL     1      -1.089  10.553  19.719  0.00  0.00    +0.000 OA
ATOM      3  C   UNL     1      -0.307   9.541  20.362  0.00  0.00    +0.000 C 
ATOM      4  C   UNL     1       1.112   9.882  19.982  0.00  0.00    +0.000 C 
ATOM      5  C   UNL     1       1.423   9.453  18.553  0.00  0.00    +0.000 C 
ATOM      6  O   UNL     1       2.140  10.540  17.967  0.00  0.00    +0.000 OA
ATOM      7  C   UNL     1       1.843  11.683  18.640  0.00  0.00    +0.000 C 
ATOM      8  O   UNL     1       2.154  12.797  18.248  0.00  0.00    +0.000 OA
ATOM      9  C   UNL     1       1.119  11.391  19.917  0.00  0.00    +0.000 C 
ENDROOT
BRANCH   1  14
ATOM     10  C   UNL     1      -2.781  12.656  22.604  0.00  0.00    +0.000 A 
ATOM     11  C   UNL     1      -2.074  13.621  23.321  0.00  0.00    +0.000 A 
ATOM     12  C   UNL     1      -0.838  14.057  22.858  0.00  0.00    +0.000 A 
ATOM     13  C   UNL     1      -0.287  13.544  21.689  0.00  0.00    +0.000 A 
ATOM     14  C   UNL     1      -0.963  12.549  20.971  0.00  0.00    +0.000 A 
ATOM     15  C   UNL     1      -2.222  12.122  21.440  0.00  0.00    +0.000 A 
BRANCH  10  17
ATOM     16  C   UNL     1      -4.185  12.622  24.522  0.00  0.00    +0.000 C 
ATOM     17  O   UNL     1      -3.983  12.297  23.151  0.00  0.00    +0.000 OA
ENDBRANCH  10  17
BRANCH  12  18
ATOM     18  O   UNL     1      -0.102  14.972  23.552  0.00  0.00    +0.000 OA
ATOM     19  H   UNL     1      -0.506  15.847  23.428  0.00  0.00    +0.000 HD
ENDBRANCH  12  18
ENDBRANCH   1  14
BRANCH   5  20
ATOM     20  C   UNL     1       2.234   8.178  18.528  0.00  0.00    +0.000 A 
ATOM     21  C   UNL     1       3.182   7.938  17.527  0.00  0.00    +0.000 A 
ATOM     22  C   UNL     1       3.972   6.785  17.553  0.00  0.00    +0.000 A 
ATOM     23  C   UNL     1       3.838   5.844  18.583  0.00  0.00    +0.000 A 
ATOM     24  C   UNL     1       2.879   6.079  19.595  0.00  0.00    +0.000 A 
ATOM     25  C   UNL     1       2.089   7.235  19.558  0.00  0.00    +0.000 A 
BRANCH  22  26
ATOM     26  O   UNL     1       4.882   6.625  16.542  0.00  0.00    +0.000 OA
ATOM     27  H   UNL     1       5.418   5.833  16.710  0.00  0.00    +0.000 HD
ENDBRANCH  22  26
BRANCH  23  28
ATOM     28  O   UNL     1       4.551   4.680  18.735  0.00  0.00    +0.000 OA
ATOM     29  C   UNL     1       4.213   3.560  17.935  0.00  0.00    +0.000 C 
ENDBRANCH  23  28
BRANCH  24  30
ATOM     30  O   UNL     1       2.793   5.124  20.582  0.00  0.00    +0.000 OA
ATOM     31  C   UNL     1       1.590   4.376  20.691  0.00  0.00    +0.000 C 
ENDBRANCH  24  30
ENDBRANCH   5  20
TORSDOF 7
ENDMDL
MODEL 8
REMARK VINA RESULT:      -6.9      2.223      9.416
REMARK  Name = 
REMARK  10 active torsions:
REMARK  status: ('A' for Active; 'I' for Inactive)
REMARK    1  A    between atoms: C_1  and  O_2
REMARK    2  A    between atoms: O_2  and  C_3
REMARK    3  A    between atoms: C_5  and  O_6
REMARK    4  A    between atoms: C_8  and  C_9
REMARK    5  A    between atoms: C_13  and  C_14
REMARK    6  A    between atoms: C_16  and  O_17
REMARK    7  A    between atoms: C_18  and  O_19
REMARK    8  A    between atoms: O_19  and  C_20
REMARK    9  A    between atoms: C_21  and  O_22
REMARK   10  A    between atoms: O_22  and  C_23
REMARK                            x       y       z     vdW  Elec       q    Type
REMARK                         _______ _______ _______ _____ _____    ______ ____
ROOT
ATOM      1  C   UNL     1      -0.421  11.722  19.862  0.00  0.00    +0.000 C 
ATOM      2  O   UNL     1      -1.151  10.468  19.864  0.00  0.00    +0.000 OA
ATOM      3  C   UNL     1      -0.350   9.511  20.565  0.00  0.00    +0.000 C 
ATOM      4  C   UNL     1       1.061   9.842  20.148  0.00  0.00    +0.000 C 
ATOM      5  C   UNL     1       1.364   9.320  18.749  0.00  0.00    +0.000 C 
ATOM      6  O   UNL     1       2.062  10.374  18.083  0.00  0.00    +0.000 OA
ATOM      7  C   UNL     1       1.757  11.555  18.680  0.00  0.00    +0.000 C 
ATOM      8  O   UNL     1       2.050  12.645  18.210  0.00  0.00    +0.000 OA
ATOM      9  C   UNL     1       1.048  11.343  19.981  0.00  0.00    +0.000 C 
ENDROOT
BRANCH   1  14
ATOM     10  C   UNL     1      -2.887  12.787  22.558  0.00  0.00    +0.000 A 
ATOM     11  C   UNL     1      -2.162  13.755  23.251  0.00  0.00    +0.000 A 
ATOM     12  C   UNL     1      -0.900  14.126  22.802  0.00  0.00    +0.000 A 
ATOM     13  C   UNL     1      -0.342  13.545  21.669  0.00  0.00    +0.000 A 
ATOM     14  C   UNL     1      -1.037  12.545  20.976  0.00  0.00    +0.000 A 
ATOM     15  C   UNL     1      -2.322  12.185  21.431  0.00  0.00    +0.000 A 
BRANCH  10  17
ATOM     16  C   UNL     1      -4.215  12.507  24.509  0.00  0.00    +0.000 C 
ATOM     17  O   UNL     1      -4.114  12.495  23.090  0.00  0.00    +0.000 OA
ENDBRANCH  10  17
BRANCH  12  18
ATOM     18  O   UNL     1      -0.146  15.042  23.475  0.00  0.00    +0.000 OA
ATOM     19  H   UNL     1       0.757  14.691  23.561  0.00  0.00    +0.000 HD
ENDBRANCH  12  18
ENDBRANCH   1  14
BRANCH   5  20
ATOM     20  C   UNL     1       2.190   8.056  18.802  0.00  0.00    +0.000 A 
ATOM     21  C   UNL     1       2.071   7.154  19.866  0.00  0.00    +0.000 A 
ATOM     22  C   UNL     1       2.792   5.956  19.869  0.00  0.00    +0.000 A 
ATOM     23  C   UNL     1       3.646   5.627  18.808  0.00  0.00    +0.000 A 
ATOM     24  C   UNL     1       3.773   6.536  17.732  0.00  0.00    +0.000 A 
ATOM     25  C   UNL     1       3.050   7.736  17.740  0.00  0.00    +0.000 A 
BRANCH  22  26
ATOM     26  O   UNL     1       2.617   5.122  20.942  0.00  0.00    +0.000 OA
ATOM     27  H   UNL     1       2.540   4.205  20.631  0.00  0.00    +0.000 HD
ENDBRANCH  22  26
BRANCH  23  28
ATOM     28  O   UNL     1       4.402   4.487  18.680  0.00  0.00    +0.000 OA
ATOM     29  C   UNL     1       3.766   3.286  18.274  0.00  0.00    +0.000 C 
ENDBRANCH  23  28
BRANCH  24  30
ATOM     30  O   UNL     1       4.622   6.160  16.718  0.00  0.00    +0.000 OA
ATOM     31  C   UNL     1       5.907   6.763  16.658  0.00  0.00    +0.000 C 
ENDBRANCH  24  30
ENDBRANCH   5  20
TORSDOF 7
ENDMDL
MODEL 9
REMARK VINA RESULT:      -6.8      2.472      5.361
REMARK  Name = 
REMARK  10 active torsions:
REMARK  status: ('A' for Active; 'I' for Inactive)
REMARK    1  A    between atoms: C_1  and  O_2
REMARK    2  A    between atoms: O_2  and  C_3
REMARK    3  A    between atoms: C_5  and  O_6
REMARK    4  A    between atoms: C_8  and  C_9
REMARK    5  A    between atoms: C_13  and  C_14
REMARK    6  A    between atoms: C_16  and  O_17
REMARK    7  A    between atoms: C_18  and  O_19
REMARK    8  A    between atoms: O_19  and  C_20
REMARK    9  A    between atoms: C_21  and  O_22
REMARK   10  A    between atoms: O_22  and  C_23
REMARK                            x       y       z     vdW  Elec       q    Type
REMARK                         _______ _______ _______ _____ _____    ______ ____
ROOT
ATOM      1  C   UNL     1       1.722   8.700  20.227  0.00  0.00    +0.000 C 
ATOM      2  O   UNL     1       1.160   8.695  21.565  0.00  0.00    +0.000 OA
ATOM      3  C   UNL     1      -0.262   8.779  21.429  0.00  0.00    +0.000 C 
ATOM      4  C   UNL     1      -0.463   9.719  20.268  0.00  0.00    +0.000 C 
ATOM      5  C   UNL     1      -0.249  11.170  20.685  0.00  0.00    +0.000 C 
ATOM      6  O   UNL     1       0.529  11.763  19.644  0.00  0.00    +0.000 OA
ATOM      7  C   UNL     1       1.207  10.788  18.984  0.00  0.00    +0.000 C 
ATOM      8  O   UNL     1       2.096  11.011  18.177  0.00  0.00    +0.000 OA
ATOM      9  C   UNL     1       0.707   9.428  19.357  0.00  0.00    +0.000 C 
ENDROOT
BRANCH   1  14
ATOM     10  C   UNL     1       3.138   5.663  18.421  0.00  0.00    +0.000 A 
ATOM     11  C   UNL     1       2.931   4.647  19.354  0.00  0.00    +0.000 A 
ATOM     12  C   UNL     1       2.261   4.923  20.540  0.00  0.00    +0.000 A 
ATOM     13  C   UNL     1       1.792   6.202  20.818  0.00  0.00    +0.000 A 
ATOM     14  C   UNL     1       2.017   7.247  19.912  0.00  0.00    +0.000 A 
ATOM     15  C   UNL     1       2.686   6.954  18.706  0.00  0.00    +0.000 A 
BRANCH  10  17
ATOM     16  C   UNL     1       3.840   3.889  17.004  0.00  0.00    +0.000 C 
ATOM     17  O   UNL     1       3.811   5.282  17.293  0.00  0.00    +0.000 OA
ENDBRANCH  10  17
BRANCH  12  18
ATOM     18  O   UNL     1       2.074   3.964  21.491  0.00  0.00    +0.000 OA
ATOM     19  H   UNL     1       1.875   3.124  21.043  0.00  0.00    +0.000 HD
ENDBRANCH  12  18
ENDBRANCH   1  14
BRANCH   5  20
ATOM     20  C   UNL     1      -1.566  11.887  20.869  0.00  0.00    +0.000 A 
ATOM     21  C   UNL     1      -2.455  12.061  19.802  0.00  0.00    +0.000 A 
ATOM     22  C   UNL     1      -3.699  12.667  20.001  0.00  0.00    +0.000 A 
ATOM     23  C   UNL     1      -4.088  13.112  21.272  0.00  0.00    +0.000 A 
ATOM     24  C   UNL     1      -3.192  12.942  22.353  0.00  0.00    +0.000 A 
ATOM     25  C   UNL     1      -1.946  12.337  22.143  0.00  0.00    +0.000 A 
BRANCH  22  26
ATOM     26  O   UNL     1      -4.516  12.795  18.909  0.00  0.00    +0.000 OA
ATOM     27  H   UNL     1      -4.962  11.950  18.737  0.00  0.00    +0.000 HD
ENDBRANCH  22  26
BRANCH  23  28
ATOM     28  O   UNL     1      -5.277  13.712  21.609  0.00  0.00    +0.000 OA
ATOM     29  C   UNL     1      -6.450  12.919  21.672  0.00  0.00    +0.000 C 
ENDBRANCH  23  28
BRANCH  24  30
ATOM     30  O   UNL     1      -3.627  13.394  23.577  0.00  0.00    +0.000 OA
ATOM     31  C   UNL     1      -4.110  12.440  24.512  0.00  0.00    +0.000 C 
ENDBRANCH  24  30
ENDBRANCH   5  20
TORSDOF 7
ENDMDL
