MODEL 1
REMARK VINA RESULT:      -7.6      0.000      0.000
REMARK  Name = 
REMARK  2 active torsions:
REMARK  status: ('A' for Active; 'I' for Inactive)
REMARK    1  A    between atoms: C_1  and  N_2
REMARK    2  A    between atoms: C_14  and  C_15
REMARK                            x       y       z     vdW  Elec       q    Type
REMARK                         _______ _______ _______ _____ _____    ______ ____
ROOT
ATOM      1  C   UNL     1       4.917   4.716  14.009  0.00  0.00    +0.000 C 
ATOM      2  N   UNL     1       5.938   4.771  15.023  0.00  0.00    +0.000 N 
ATOM      3  N   UNL     1       7.225   5.020  14.665  0.00  0.00    +0.000 NA
ATOM      4  C   UNL     1       7.889   4.987  15.826  0.00  0.00    +0.000 A 
ATOM      5  C   UNL     1       7.039   4.708  16.898  0.00  0.00    +0.000 A 
ATOM      6  C   UNL     1       7.209   4.546  18.302  0.00  0.00    +0.000 A 
ATOM      7  O   UNL     1       8.277   4.667  18.897  0.00  0.00    +0.000 OA
ATOM      8  N   UNL     1       6.029   4.237  18.940  0.00  0.00    +0.000 N 
ATOM      9  C   UNL     1       4.779   4.165  18.336  0.00  0.00    +0.000 A 
ATOM     10  N   UNL     1       3.732   3.913  19.193  0.00  0.00    +0.000 N 
ATOM     11  C   UNL     1       3.824   3.174  20.443  0.00  0.00    +0.000 C 
ATOM     12  C   UNL     1       2.428   2.611  20.641  0.00  0.00    +0.000 C 
ATOM     13  C   UNL     1       1.527   3.694  20.072  0.00  0.00    +0.000 C 
ATOM     14  C   UNL     1       2.353   4.350  18.944  0.00  0.00    +0.000 C 
ATOM     15  N   UNL     1       4.618   4.345  17.047  0.00  0.00    +0.000 NA
ATOM     16  C   UNL     1       5.777   4.589  16.371  0.00  0.00    +0.000 A 
ATOM     17  H   UNL     1       6.098   4.163  19.940  0.00  0.00    +0.000 HD
ENDROOT
BRANCH  14  18
ATOM     18  C   UNL     1       2.204   5.863  19.033  0.00  0.00    +0.000 A 
ATOM     19  C   UNL     1       2.301   6.646  17.872  0.00  0.00    +0.000 A 
ATOM     20  C   UNL     1       2.094   8.028  17.922  0.00  0.00    +0.000 A 
ATOM     21  C   UNL     1       1.786   8.648  19.133  0.00  0.00    +0.000 A 
ATOM     22  C   UNL     1       1.686   7.885  20.290  0.00  0.00    +0.000 A 
ATOM     23 CL   UNL     1       1.294   8.636  21.787  0.00  0.00    +0.000 Cl
ATOM     24  C   UNL     1       1.885   6.506  20.243  0.00  0.00    +0.000 A 
ENDBRANCH  14  18
TORSDOF 1
ENDMDL
MODEL 2
REMARK VINA RESULT:      -7.4      3.537      6.184
REMARK  Name = 
REMARK  2 active torsions:
REMARK  status: ('A' for Active; 'I' for Inactive)
REMARK    1  A    between atoms: C_1  and  N_2
REMARK    2  A    between atoms: C_14  and  C_15
REMARK                            x       y       z     vdW  Elec       q    Type
REMARK                         _______ _______ _______ _____ _____    ______ ____
ROOT
ATOM      1  C   UNL     1       0.884   4.707  17.761  0.00  0.00    +0.000 C 
ATOM      2  N   UNL     1       1.682   3.729  18.454  0.00  0.00    +0.000 N 
ATOM      3  N   UNL     1       1.081   2.637  18.997  0.00  0.00    +0.000 NA
ATOM      4  C   UNL     1       2.093   1.966  19.561  0.00  0.00    +0.000 A 
ATOM      5  C   UNL     1       3.310   2.629  19.389  0.00  0.00    +0.000 A 
ATOM      6  C   UNL     1       4.656   2.381  19.783  0.00  0.00    +0.000 A 
ATOM      7  O   UNL     1       5.033   1.391  20.404  0.00  0.00    +0.000 OA
ATOM      8  N   UNL     1       5.510   3.384  19.384  0.00  0.00    +0.000 N 
ATOM      9  C   UNL     1       5.159   4.486  18.613  0.00  0.00    +0.000 A 
ATOM     10  N   UNL     1       6.203   5.318  18.277  0.00  0.00    +0.000 N 
ATOM     11  C   UNL     1       7.414   5.511  19.059  0.00  0.00    +0.000 C 
ATOM     12  C   UNL     1       7.880   6.905  18.678  0.00  0.00    +0.000 C 
ATOM     13  C   UNL     1       7.491   7.019  17.214  0.00  0.00    +0.000 C 
ATOM     14  C   UNL     1       6.222   6.150  17.068  0.00  0.00    +0.000 C 
ATOM     15  N   UNL     1       3.924   4.698  18.225  0.00  0.00    +0.000 NA
ATOM     16  C   UNL     1       3.037   3.758  18.656  0.00  0.00    +0.000 A 
ATOM     17  H   UNL     1       6.478   3.223  19.601  0.00  0.00    +0.000 HD
ENDROOT
BRANCH  14  18
ATOM     18  C   UNL     1       6.333   5.318  15.798  0.00  0.00    +0.000 A 
ATOM     19  C   UNL     1       5.553   4.160  15.648  0.00  0.00    +0.000 A 
ATOM     20  C   UNL     1       5.587   3.424  14.461  0.00  0.00    +0.000 A 
ATOM     21  C   UNL     1       6.398   3.834  13.403  0.00  0.00    +0.000 A 
ATOM     22  C   UNL     1       7.175   4.979  13.536  0.00  0.00    +0.000 A 
ATOM     23 CL   UNL     1       8.170   5.502  12.235  0.00  0.00    +0.000 Cl
ATOM     24  C   UNL     1       7.139   5.719  14.716  0.00  0.00    +0.000 A 
ENDBRANCH  14  18
TORSDOF 1
ENDMDL
MODEL 3
REMARK VINA RESULT:      -7.3      1.431      1.772
REMARK  Name = 
REMARK  2 active torsions:
REMARK  status: ('A' for Active; 'I' for Inactive)
REMARK    1  A    between atoms: C_1  and  N_2
REMARK    2  A    between atoms: C_14  and  C_15
REMARK                            x       y       z     vdW  Elec       q    Type
REMARK                         _______ _______ _______ _____ _____    ______ ____
ROOT
ATOM      1  C   UNL     1       5.212   5.940  14.955  0.00  0.00    +0.000 C 
ATOM      2  N   UNL     1       6.057   5.862  16.118  0.00  0.00    +0.000 N 
ATOM      3  N   UNL     1       7.368   6.206  16.018  0.00  0.00    +0.000 NA
ATOM      4  C   UNL     1       7.844   6.005  17.252  0.00  0.00    +0.000 A 
ATOM      5  C   UNL     1       6.854   5.529  18.115  0.00  0.00    +0.000 A 
ATOM      6  C   UNL     1       6.811   5.147  19.486  0.00  0.00    +0.000 A 
ATOM      7  O   UNL     1       7.764   5.203  20.259  0.00  0.00    +0.000 OA
ATOM      8  N   UNL     1       5.565   4.702  19.866  0.00  0.00    +0.000 N 
ATOM      9  C   UNL     1       4.431   4.690  19.063  0.00  0.00    +0.000 A 
ATOM     10  N   UNL     1       3.279   4.270  19.688  0.00  0.00    +0.000 N 
ATOM     11  C   UNL     1       3.217   3.341  20.806  0.00  0.00    +0.000 C 
ATOM     12  C   UNL     1       1.841   2.710  20.684  0.00  0.00    +0.000 C 
ATOM     13  C   UNL     1       0.980   3.843  20.151  0.00  0.00    +0.000 C 
ATOM     14  C   UNL     1       1.934   4.699  19.288  0.00  0.00    +0.000 C 
ATOM     15  N   UNL     1       4.464   5.072  17.808  0.00  0.00    +0.000 NA
ATOM     16  C   UNL     1       5.698   5.458  17.377  0.00  0.00    +0.000 A 
ATOM     17  H   UNL     1       5.482   4.469  20.840  0.00  0.00    +0.000 HD
ENDROOT
BRANCH  14  18
ATOM     18  C   UNL     1       1.687   6.172  19.585  0.00  0.00    +0.000 A 
ATOM     19  C   UNL     1       1.303   6.571  20.875  0.00  0.00    +0.000 A 
ATOM     20  C   UNL     1       1.141   7.924  21.186  0.00  0.00    +0.000 A 
ATOM     21  C   UNL     1       1.364   8.900  20.214  0.00  0.00    +0.000 A 
ATOM     22  C   UNL     1       1.747   8.519  18.933  0.00  0.00    +0.000 A 
ATOM     23 CL   UNL     1       2.036   9.712  17.729  0.00  0.00    +0.000 Cl
ATOM     24  C   UNL     1       1.914   7.171  18.620  0.00  0.00    +0.000 A 
ENDBRANCH  14  18
TORSDOF 1
ENDMDL
MODEL 4
REMARK VINA RESULT:      -7.1      2.352      4.036
REMARK  Name = 
REMARK  2 active torsions:
REMARK  status: ('A' for Active; 'I' for Inactive)
REMARK    1  A    between atoms: C_1  and  N_2
REMARK    2  A    between atoms: C_14  and  C_15
REMARK                            x       y       z     vdW  Elec       q    Type
REMARK                         _______ _______ _______ _____ _____    ______ ____
ROOT
ATOM      1  C   UNL     1       7.799   4.792  19.664  0.00  0.00    +0.000 C 
ATOM      2  N   UNL     1       7.428   4.932  18.280  0.00  0.00    +0.000 N 
ATOM      3  N   UNL     1       8.257   4.460  17.313  0.00  0.00    +0.000 NA
ATOM      4  C   UNL     1       7.623   4.763  16.174  0.00  0.00    +0.000 A 
ATOM      5  C   UNL     1       6.419   5.428  16.417  0.00  0.00    +0.000 A 
ATOM      6  C   UNL     1       5.389   5.976  15.601  0.00  0.00    +0.000 A 
ATOM      7  O   UNL     1       5.366   5.926  14.374  0.00  0.00    +0.000 OA
ATOM      8  N   UNL     1       4.397   6.576  16.343  0.00  0.00    +0.000 N 
ATOM      9  C   UNL     1       4.325   6.595  17.731  0.00  0.00    +0.000 A 
ATOM     10  N   UNL     1       3.199   7.192  18.248  0.00  0.00    +0.000 N 
ATOM     11  C   UNL     1       2.435   8.251  17.606  0.00  0.00    +0.000 C 
ATOM     12  C   UNL     1       1.781   8.986  18.763  0.00  0.00    +0.000 C 
ATOM     13  C   UNL     1       1.494   7.881  19.766  0.00  0.00    +0.000 C 
ATOM     14  C   UNL     1       2.618   6.844  19.550  0.00  0.00    +0.000 C 
ATOM     15  N   UNL     1       5.260   6.063  18.483  0.00  0.00    +0.000 NA
ATOM     16  C   UNL     1       6.293   5.516  17.781  0.00  0.00    +0.000 A 
ATOM     17  H   UNL     1       3.626   6.932  15.805  0.00  0.00    +0.000 HD
ENDROOT
BRANCH  14  18
ATOM     18  C   UNL     1       2.013   5.447  19.556  0.00  0.00    +0.000 A 
ATOM     19  C   UNL     1       1.648   4.837  18.345  0.00  0.00    +0.000 A 
ATOM     20  C   UNL     1       1.158   3.528  18.324  0.00  0.00    +0.000 A 
ATOM     21  C   UNL     1       1.027   2.806  19.510  0.00  0.00    +0.000 A 
ATOM     22  C   UNL     1       1.386   3.397  20.717  0.00  0.00    +0.000 A 
ATOM     23 CL   UNL     1       1.242   2.515  22.185  0.00  0.00    +0.000 Cl
ATOM     24  C   UNL     1       1.881   4.700  20.742  0.00  0.00    +0.000 A 
ENDBRANCH  14  18
TORSDOF 1
ENDMDL
MODEL 5
REMARK VINA RESULT:      -7.0      2.415      4.224
REMARK  Name = 
REMARK  2 active torsions:
REMARK  status: ('A' for Active; 'I' for Inactive)
REMARK    1  A    between atoms: C_1  and  N_2
REMARK    2  A    between atoms: C_14  and  C_15
REMARK                            x       y       z     vdW  Elec       q    Type
REMARK                         _______ _______ _______ _____ _____    ______ ____
ROOT
ATOM      1  C   UNL     1       8.103   5.109  19.916  0.00  0.00    +0.000 C 
ATOM      2  N   UNL     1       7.613   4.952  18.571  0.00  0.00    +0.000 N 
ATOM      3  N   UNL     1       8.411   4.383  17.630  0.00  0.00    +0.000 NA
ATOM      4  C   UNL     1       7.662   4.407  16.521  0.00  0.00    +0.000 A 
ATOM      5  C   UNL     1       6.416   4.995  16.754  0.00  0.00    +0.000 A 
ATOM      6  C   UNL     1       5.273   5.283  15.956  0.00  0.00    +0.000 A 
ATOM      7  O   UNL     1       5.161   5.001  14.766  0.00  0.00    +0.000 OA
ATOM      8  N   UNL     1       4.283   5.919  16.670  0.00  0.00    +0.000 N 
ATOM      9  C   UNL     1       4.318   6.193  18.032  0.00  0.00    +0.000 A 
ATOM     10  N   UNL     1       3.177   6.772  18.539  0.00  0.00    +0.000 N 
ATOM     11  C   UNL     1       2.257   7.617  17.794  0.00  0.00    +0.000 C 
ATOM     12  C   UNL     1       1.620   8.495  18.856  0.00  0.00    +0.000 C 
ATOM     13  C   UNL     1       1.531   7.577  20.064  0.00  0.00    +0.000 C 
ATOM     14  C   UNL     1       2.740   6.624  19.932  0.00  0.00    +0.000 C 
ATOM     15  N   UNL     1       5.359   5.899  18.774  0.00  0.00    +0.000 NA
ATOM     16  C   UNL     1       6.387   5.326  18.087  0.00  0.00    +0.000 A 
ATOM     17  H   UNL     1       3.440   6.097  16.153  0.00  0.00    +0.000 HD
ENDROOT
BRANCH  14  18
ATOM     18  C   UNL     1       2.289   5.204  20.247  0.00  0.00    +0.000 A 
ATOM     19  C   UNL     1       2.457   4.687  21.540  0.00  0.00    +0.000 A 
ATOM     20  C   UNL     1       1.984   3.412  21.867  0.00  0.00    +0.000 A 
ATOM     21  C   UNL     1       1.335   2.636  20.907  0.00  0.00    +0.000 A 
ATOM     22  C   UNL     1       1.160   3.136  19.622  0.00  0.00    +0.000 A 
ATOM     23 CL   UNL     1       0.351   2.195  18.433  0.00  0.00    +0.000 Cl
ATOM     24  C   UNL     1       1.625   4.409  19.294  0.00  0.00    +0.000 A 
ENDBRANCH  14  18
TORSDOF 1
ENDMDL
MODEL 6
REMARK VINA RESULT:      -7.0      1.069      1.467
REMARK  Name = 
REMARK  2 active torsions:
REMARK  status: ('A' for Active; 'I' for Inactive)
REMARK    1  A    between atoms: C_1  and  N_2
REMARK    2  A    between atoms: C_14  and  C_15
REMARK                            x       y       z     vdW  Elec       q    Type
REMARK                         _______ _______ _______ _____ _____    ______ ____
ROOT
ATOM      1  C   UNL     1       4.850   4.883  14.217  0.00  0.00    +0.000 C 
ATOM      2  N   UNL     1       5.879   4.946  15.222  0.00  0.00    +0.000 N 
ATOM      3  N   UNL     1       7.135   5.329  14.872  0.00  0.00    +0.000 NA
ATOM      4  C   UNL     1       7.819   5.263  16.020  0.00  0.00    +0.000 A 
ATOM      5  C   UNL     1       7.012   4.832  17.076  0.00  0.00    +0.000 A 
ATOM      6  C   UNL     1       7.217   4.578  18.462  0.00  0.00    +0.000 A 
ATOM      7  O   UNL     1       8.281   4.743  19.054  0.00  0.00    +0.000 OA
ATOM      8  N   UNL     1       6.077   4.124  19.085  0.00  0.00    +0.000 N 
ATOM      9  C   UNL     1       4.828   3.994  18.490  0.00  0.00    +0.000 A 
ATOM     10  N   UNL     1       3.819   3.590  19.334  0.00  0.00    +0.000 N 
ATOM     11  C   UNL     1       3.992   2.768  20.522  0.00  0.00    +0.000 C 
ATOM     12  C   UNL     1       2.651   2.077  20.690  0.00  0.00    +0.000 C 
ATOM     13  C   UNL     1       1.654   3.121  20.215  0.00  0.00    +0.000 C 
ATOM     14  C   UNL     1       2.406   3.928  19.133  0.00  0.00    +0.000 C 
ATOM     15  N   UNL     1       4.632   4.257  17.219  0.00  0.00    +0.000 NA
ATOM     16  C   UNL     1       5.755   4.649  16.554  0.00  0.00    +0.000 A 
ATOM     17  H   UNL     1       6.168   3.980  20.075  0.00  0.00    +0.000 HD
ENDROOT
BRANCH  14  18
ATOM     18  C   UNL     1       2.133   5.411  19.341  0.00  0.00    +0.000 A 
ATOM     19  C   UNL     1       1.711   5.877  20.596  0.00  0.00    +0.000 A 
ATOM     20  C   UNL     1       1.525   7.243  20.826  0.00  0.00    +0.000 A 
ATOM     21  C   UNL     1       1.760   8.166  19.806  0.00  0.00    +0.000 A 
ATOM     22  C   UNL     1       2.180   7.719  18.558  0.00  0.00    +0.000 A 
ATOM     23 CL   UNL     1       2.485   8.847  17.297  0.00  0.00    +0.000 Cl
ATOM     24  C   UNL     1       2.372   6.358  18.327  0.00  0.00    +0.000 A 
ENDBRANCH  14  18
TORSDOF 1
ENDMDL
MODEL 7
REMARK VINA RESULT:      -6.9      8.476     11.486
REMARK  Name = 
REMARK  2 active torsions:
REMARK  status: ('A' for Active; 'I' for Inactive)
REMARK    1  A    between atoms: C_1  and  N_2
REMARK    2  A    between atoms: C_14  and  C_15
REMARK                            x       y       z     vdW  Elec       q    Type
REMARK                         _______ _______ _______ _____ _____    ______ ____
ROOT
ATOM      1  C   UNL     1      -0.890  16.401  23.325  0.00  0.00    +0.000 C 
ATOM      2  N   UNL     1      -2.001  15.560  23.691  0.00  0.00    +0.000 N 
ATOM      3  N   UNL     1      -3.107  16.118  24.250  0.00  0.00    +0.000 NA
ATOM      4  C   UNL     1      -3.912  15.072  24.470  0.00  0.00    +0.000 A 
ATOM      5  C   UNL     1      -3.320  13.873  24.069  0.00  0.00    +0.000 A 
ATOM      6  C   UNL     1      -3.709  12.503  24.085  0.00  0.00    +0.000 A 
ATOM      7  O   UNL     1      -4.793  12.087  24.485  0.00  0.00    +0.000 OA
ATOM      8  N   UNL     1      -2.727  11.675  23.590  0.00  0.00    +0.000 N 
ATOM      9  C   UNL     1      -1.515  12.090  23.050  0.00  0.00    +0.000 A 
ATOM     10  N   UNL     1      -0.724  11.081  22.551  0.00  0.00    +0.000 N 
ATOM     11  C   UNL     1      -0.716   9.704  23.020  0.00  0.00    +0.000 C 
ATOM     12  C   UNL     1       0.679   9.208  22.681  0.00  0.00    +0.000 C 
ATOM     13  C   UNL     1       1.001   9.924  21.381  0.00  0.00    +0.000 C 
ATOM     14  C   UNL     1       0.249  11.271  21.469  0.00  0.00    +0.000 C 
ATOM     15  N   UNL     1      -1.171  13.355  23.008  0.00  0.00    +0.000 NA
ATOM     16  C   UNL     1      -2.093  14.201  23.548  0.00  0.00    +0.000 A 
ATOM     17  H   UNL     1      -2.982  10.704  23.540  0.00  0.00    +0.000 HD
ENDROOT
BRANCH  14  18
ATOM     18  C   UNL     1      -0.423  11.553  20.132  0.00  0.00    +0.000 A 
ATOM     19  C   UNL     1      -0.173  12.760  19.463  0.00  0.00    +0.000 A 
ATOM     20  C   UNL     1      -0.723  13.006  18.201  0.00  0.00    +0.000 A 
ATOM     21  C   UNL     1      -1.531  12.048  17.588  0.00  0.00    +0.000 A 
ATOM     22  C   UNL     1      -1.787  10.847  18.239  0.00  0.00    +0.000 A 
ATOM     23 CL   UNL     1      -2.771   9.653  17.490  0.00  0.00    +0.000 Cl
ATOM     24  C   UNL     1      -1.235  10.596  19.494  0.00  0.00    +0.000 A 
ENDBRANCH  14  18
TORSDOF 1
ENDMDL
MODEL 8
REMARK VINA RESULT:      -6.9      2.919      6.079
REMARK  Name = 
REMARK  2 active torsions:
REMARK  status: ('A' for Active; 'I' for Inactive)
REMARK    1  A    between atoms: C_1  and  N_2
REMARK    2  A    between atoms: C_14  and  C_15
REMARK                            x       y       z     vdW  Elec       q    Type
REMARK                         _______ _______ _______ _____ _____    ______ ____
ROOT
ATOM      1  C   UNL     1       4.841   1.422  20.845  0.00  0.00    +0.000 C 
ATOM      2  N   UNL     1       3.783   2.307  20.432  0.00  0.00    +0.000 N 
ATOM      3  N   UNL     1       2.645   2.382  21.171  0.00  0.00    +0.000 NA
ATOM      4  C   UNL     1       1.893   3.267  20.506  0.00  0.00    +0.000 A 
ATOM      5  C   UNL     1       2.538   3.733  19.359  0.00  0.00    +0.000 A 
ATOM      6  C   UNL     1       2.205   4.642  18.315  0.00  0.00    +0.000 A 
ATOM      7  O   UNL     1       1.157   5.280  18.249  0.00  0.00    +0.000 OA
ATOM      8  N   UNL     1       3.199   4.738  17.368  0.00  0.00    +0.000 N 
ATOM      9  C   UNL     1       4.436   4.106  17.427  0.00  0.00    +0.000 A 
ATOM     10  N   UNL     1       5.297   4.413  16.398  0.00  0.00    +0.000 N 
ATOM     11  C   UNL     1       4.900   4.803  15.054  0.00  0.00    +0.000 C 
ATOM     12  C   UNL     1       6.075   4.385  14.188  0.00  0.00    +0.000 C 
ATOM     13  C   UNL     1       7.277   4.619  15.087  0.00  0.00    +0.000 C 
ATOM     14  C   UNL     1       6.758   4.370  16.521  0.00  0.00    +0.000 C 
ATOM     15  N   UNL     1       4.754   3.292  18.406  0.00  0.00    +0.000 NA
ATOM     16  C   UNL     1       3.768   3.122  19.330  0.00  0.00    +0.000 A 
ATOM     17  H   UNL     1       3.022   5.407  16.639  0.00  0.00    +0.000 HD
ENDROOT
BRANCH  14  18
ATOM     18  C   UNL     1       7.292   5.461  17.439  0.00  0.00    +0.000 A 
ATOM     19  C   UNL     1       7.843   5.121  18.684  0.00  0.00    +0.000 A 
ATOM     20  C   UNL     1       8.404   6.100  19.510  0.00  0.00    +0.000 A 
ATOM     21  C   UNL     1       8.425   7.434  19.102  0.00  0.00    +0.000 A 
ATOM     22  C   UNL     1       7.884   7.785  17.871  0.00  0.00    +0.000 A 
ATOM     23 CL   UNL     1       7.915   9.424  17.351  0.00  0.00    +0.000 Cl
ATOM     24  C   UNL     1       7.329   6.811  17.043  0.00  0.00    +0.000 A 
ENDBRANCH  14  18
TORSDOF 1
ENDMDL
MODEL 9
REMARK VINA RESULT:      -6.7      9.359     12.007
REMARK  Name = 
REMARK  2 active torsions:
REMARK  status: ('A' for Active; 'I' for Inactive)
REMARK    1  A    between atoms: C_1  and  N_2
REMARK    2  A    between atoms: C_14  and  C_15
REMARK                            x       y       z     vdW  Elec       q    Type
REMARK                         _______ _______ _______ _____ _____    ______ ____
ROOT
ATOM      1  C   UNL     1      -4.574  11.726  17.097  0.00  0.00    +0.000 C 
ATOM      2  N   UNL     1      -5.415  11.592  18.259  0.00  0.00    +0.000 N 
ATOM      3  N   UNL     1      -6.625  10.985  18.144  0.00  0.00    +0.000 NA
ATOM      4  C   UNL     1      -7.129  11.045  19.382  0.00  0.00    +0.000 A 
ATOM      5  C   UNL     1      -6.259  11.692  20.262  0.00  0.00    +0.000 A 
ATOM      6  C   UNL     1      -6.294  12.036  21.644  0.00  0.00    +0.000 A 
ATOM      7  O   UNL     1      -7.212  11.759  22.411  0.00  0.00    +0.000 OA
ATOM      8  N   UNL     1      -5.168  12.720  22.041  0.00  0.00    +0.000 N 
ATOM      9  C   UNL     1      -4.063  12.992  21.243  0.00  0.00    +0.000 A 
ATOM     10  N   UNL     1      -3.023  13.626  21.884  0.00  0.00    +0.000 N 
ATOM     11  C   UNL     1      -3.153  14.514  23.029  0.00  0.00    +0.000 C 
ATOM     12  C   UNL     1      -1.940  15.422  22.930  0.00  0.00    +0.000 C 
ATOM     13  C   UNL     1      -0.863  14.510  22.368  0.00  0.00    +0.000 C 
ATOM     14  C   UNL     1      -1.619  13.499  21.477  0.00  0.00    +0.000 C 
ATOM     15  N   UNL     1      -4.018  12.648  19.978  0.00  0.00    +0.000 NA
ATOM     16  C   UNL     1      -5.145  12.025  19.531  0.00  0.00    +0.000 A 
ATOM     17  H   UNL     1      -5.132  12.937  23.022  0.00  0.00    +0.000 HD
ENDROOT
BRANCH  14  18
ATOM     18  C   UNL     1      -1.068  12.103  21.733  0.00  0.00    +0.000 A 
ATOM     19  C   UNL     1      -1.313  11.467  22.960  0.00  0.00    +0.000 A 
ATOM     20  C   UNL     1      -0.878  10.158  23.186  0.00  0.00    +0.000 A 
ATOM     21  C   UNL     1      -0.194   9.463  22.189  0.00  0.00    +0.000 A 
ATOM     22  C   UNL     1       0.054  10.079  20.968  0.00  0.00    +0.000 A 
ATOM     23 CL   UNL     1       0.886   9.229  19.727  0.00  0.00    +0.000 Cl
ATOM     24  C   UNL     1      -0.383  11.382  20.737  0.00  0.00    +0.000 A 
ENDBRANCH  14  18
TORSDOF 1
ENDMDL
