MODEL 1
REMARK VINA RESULT:      -8.9      0.000      0.000
REMARK  Name = 
REMARK  6 active torsions:
REMARK  status: ('A' for Active; 'I' for Inactive)
REMARK    1  A    between atoms: C_1  and  C_2
REMARK    2  A    between atoms: N_4  and  C_5
REMARK    3  A    between atoms: C_6  and  C_7
REMARK    4  A    between atoms: C_17  and  O_18
REMARK    5  A    between atoms: O_18  and  C_19
REMARK    6  A    between atoms: C_19  and  C_21
REMARK                            x       y       z     vdW  Elec       q    Type
REMARK                         _______ _______ _______ _____ _____    ______ ____
ROOT
ATOM      1  C   UNL     1       1.075   9.340  19.631  0.00  0.00    +0.000 C 
ATOM      2  C   UNL     1       0.996   8.312  20.514  0.00  0.00    +0.000 C 
ATOM      3  C   UNL     1       0.111   8.237  21.727  0.00  0.00    +0.000 C 
ATOM      4  C   UNL     1       1.799   7.061  20.305  0.00  0.00    +0.000 C 
ATOM      5  O   UNL     1       1.723   6.114  21.074  0.00  0.00    +0.000 OA
ATOM      6  C   UNL     1       2.636   7.064  19.156  0.00  0.00    +0.000 A 
ATOM      7  C   UNL     1       2.704   8.060  18.215  0.00  0.00    +0.000 A 
ATOM      8  N   UNL     1       3.604   7.722  17.196  0.00  0.00    +0.000 NA
ATOM      9  C   UNL     1       4.072   6.539  17.564  0.00  0.00    +0.000 A 
ATOM     10  N   UNL     1       3.493   6.130  18.728  0.00  0.00    +0.000 N 
ATOM     11  C   UNL     1       3.864   4.799  19.154  0.00  0.00    +0.000 C 
ATOM     12  C   UNL     1       5.092   4.525  18.283  0.00  0.00    +0.000 C 
ATOM     13  C   UNL     1       4.936   5.439  17.027  0.00  0.00    +0.000 C 
ATOM     14  C   UNL     1       1.888   9.260  18.345  0.00  0.00    +0.000 C 
ATOM     15  N   UNL     1       1.873  10.171  17.427  0.00  0.00    +0.000 NA
ATOM     16  H   UNL     1       2.518   9.863  16.679  0.00  0.00    +0.000 HD
ENDROOT
BRANCH   1  20
ATOM     17  C   UNL     1      -1.353  12.188  19.471  0.00  0.00    +0.000 C 
ATOM     18  C   UNL     1      -0.791  10.823  19.175  0.00  0.00    +0.000 C 
ATOM     19  O   UNL     1      -1.370  10.041  18.424  0.00  0.00    +0.000 OA
ATOM     20  N   UNL     1       0.408  10.549  19.822  0.00  0.00    +0.000 N 
ATOM     21  H   UNL     1       0.471  10.914  20.772  0.00  0.00    +0.000 HD
ENDBRANCH   1  20
BRANCH  13  22
ATOM     22  O   UNL     1       6.208   5.940  16.615  0.00  0.00    +0.000 OA
BRANCH  22  23
ATOM     23  C   UNL     1       7.038   4.957  16.173  0.00  0.00    +0.000 C 
ATOM     24  O   UNL     1       7.849   4.355  16.863  0.00  0.00    +0.000 OA
BRANCH  23  25
ATOM     25  C   UNL     1       6.918   4.738  14.707  0.00  0.00    +0.000 A 
ATOM     26  C   UNL     1       5.986   3.791  14.254  0.00  0.00    +0.000 A 
ATOM     27  C   UNL     1       5.914   3.463  12.899  0.00  0.00    +0.000 A 
ATOM     28  C   UNL     1       6.768   4.083  11.990  0.00  0.00    +0.000 A 
ATOM     29  C   UNL     1       7.676   5.048  12.428  0.00  0.00    +0.000 A 
ATOM     30  C   UNL     1       7.750   5.381  13.783  0.00  0.00    +0.000 A 
ENDBRANCH  23  25
ENDBRANCH  22  23
ENDBRANCH  13  22
TORSDOF 4
ENDMDL
MODEL 2
REMARK VINA RESULT:      -8.4      1.044      1.388
REMARK  Name = 
REMARK  6 active torsions:
REMARK  status: ('A' for Active; 'I' for Inactive)
REMARK    1  A    between atoms: C_1  and  C_2
REMARK    2  A    between atoms: N_4  and  C_5
REMARK    3  A    between atoms: C_6  and  C_7
REMARK    4  A    between atoms: C_17  and  O_18
REMARK    5  A    between atoms: O_18  and  C_19
REMARK    6  A    between atoms: C_19  and  C_21
REMARK                            x       y       z     vdW  Elec       q    Type
REMARK                         _______ _______ _______ _____ _____    ______ ____
ROOT
ATOM      1  C   UNL     1       0.929   9.436  19.643  0.00  0.00    +0.000 C 
ATOM      2  C   UNL     1       0.836   8.417  20.535  0.00  0.00    +0.000 C 
ATOM      3  C   UNL     1      -0.071   8.353  21.732  0.00  0.00    +0.000 C 
ATOM      4  C   UNL     1       1.644   7.166  20.353  0.00  0.00    +0.000 C 
ATOM      5  O   UNL     1       1.557   6.226  21.130  0.00  0.00    +0.000 OA
ATOM      6  C   UNL     1       2.502   7.158  19.220  0.00  0.00    +0.000 A 
ATOM      7  C   UNL     1       2.586   8.146  18.270  0.00  0.00    +0.000 A 
ATOM      8  N   UNL     1       3.505   7.800  17.271  0.00  0.00    +0.000 NA
ATOM      9  C   UNL     1       3.968   6.621  17.659  0.00  0.00    +0.000 A 
ATOM     10  N   UNL     1       3.369   6.222  18.816  0.00  0.00    +0.000 N 
ATOM     11  C   UNL     1       3.735   4.896  19.262  0.00  0.00    +0.000 C 
ATOM     12  C   UNL     1       4.979   4.616  18.417  0.00  0.00    +0.000 C 
ATOM     13  C   UNL     1       4.844   5.517  17.148  0.00  0.00    +0.000 C 
ATOM     14  C   UNL     1       1.766   9.345  18.373  0.00  0.00    +0.000 C 
ATOM     15  N   UNL     1       1.766  10.247  17.446  0.00  0.00    +0.000 NA
ATOM     16  H   UNL     1       2.425   9.934  16.714  0.00  0.00    +0.000 HD
ENDROOT
BRANCH   1  20
ATOM     17  C   UNL     1      -0.117  12.864  20.732  0.00  0.00    +0.000 C 
ATOM     18  C   UNL     1       0.755  11.641  20.643  0.00  0.00    +0.000 C 
ATOM     19  O   UNL     1       1.813  11.562  21.264  0.00  0.00    +0.000 OA
ATOM     20  N   UNL     1       0.257  10.646  19.811  0.00  0.00    +0.000 N 
ATOM     21  H   UNL     1      -0.202  10.988  18.967  0.00  0.00    +0.000 HD
ENDBRANCH   1  20
BRANCH  13  22
ATOM     22  O   UNL     1       6.122   6.017  16.755  0.00  0.00    +0.000 OA
BRANCH  22  23
ATOM     23  C   UNL     1       6.993   5.024  16.430  0.00  0.00    +0.000 C 
ATOM     24  O   UNL     1       7.804   4.518  17.192  0.00  0.00    +0.000 OA
BRANCH  23  25
ATOM     25  C   UNL     1       6.917   4.659  14.990  0.00  0.00    +0.000 A 
ATOM     26  C   UNL     1       7.782   5.312  14.096  0.00  0.00    +0.000 A 
ATOM     27  C   UNL     1       7.673   5.093  12.722  0.00  0.00    +0.000 A 
ATOM     28  C   UNL     1       6.705   4.217  12.234  0.00  0.00    +0.000 A 
ATOM     29  C   UNL     1       5.864   3.541  13.118  0.00  0.00    +0.000 A 
ATOM     30  C   UNL     1       5.970   3.756  14.494  0.00  0.00    +0.000 A 
ENDBRANCH  23  25
ENDBRANCH  22  23
ENDBRANCH  13  22
TORSDOF 4
ENDMDL
MODEL 3
REMARK VINA RESULT:      -8.3      2.908      5.083
REMARK  Name = 
REMARK  6 active torsions:
REMARK  status: ('A' for Active; 'I' for Inactive)
REMARK    1  A    between atoms: C_1  and  C_2
REMARK    2  A    between atoms: N_4  and  C_5
REMARK    3  A    between atoms: C_6  and  C_7
REMARK    4  A    between atoms: C_17  and  O_18
REMARK    5  A    between atoms: O_18  and  C_19
REMARK    6  A    between atoms: C_19  and  C_21
REMARK                            x       y       z     vdW  Elec       q    Type
REMARK                         _______ _______ _______ _____ _____    ______ ____
ROOT
ATOM      1  C   UNL     1      -0.765  11.767  22.148  0.00  0.00    +0.000 C 
ATOM      2  C   UNL     1      -0.515  12.410  20.979  0.00  0.00    +0.000 C 
ATOM      3  C   UNL     1      -0.891  13.824  20.634  0.00  0.00    +0.000 C 
ATOM      4  C   UNL     1       0.258  11.734  19.884  0.00  0.00    +0.000 C 
ATOM      5  O   UNL     1       0.517  12.303  18.834  0.00  0.00    +0.000 OA
ATOM      6  C   UNL     1       0.665  10.401  20.166  0.00  0.00    +0.000 A 
ATOM      7  C   UNL     1       0.476   9.737  21.352  0.00  0.00    +0.000 A 
ATOM      8  N   UNL     1       1.033   8.453  21.299  0.00  0.00    +0.000 NA
ATOM      9  C   UNL     1       1.524   8.370  20.071  0.00  0.00    +0.000 A 
ATOM     10  N   UNL     1       1.320   9.531  19.388  0.00  0.00    +0.000 N 
ATOM     11  C   UNL     1       1.916   9.572  18.071  0.00  0.00    +0.000 C 
ATOM     12  C   UNL     1       2.229   8.094  17.826  0.00  0.00    +0.000 C 
ATOM     13  C   UNL     1       2.363   7.446  19.240  0.00  0.00    +0.000 C 
ATOM     14  C   UNL     1      -0.209  10.385  22.463  0.00  0.00    +0.000 C 
ATOM     15  N   UNL     1      -0.321   9.809  23.616  0.00  0.00    +0.000 NA
ATOM     16  H   UNL     1       0.136   8.885  23.543  0.00  0.00    +0.000 HD
ENDROOT
BRANCH   1  20
ATOM     17  C   UNL     1      -3.598  13.086  24.213  0.00  0.00    +0.000 C 
ATOM     18  C   UNL     1      -2.923  12.426  23.041  0.00  0.00    +0.000 C 
ATOM     19  O   UNL     1      -3.568  12.020  22.077  0.00  0.00    +0.000 OA
ATOM     20  N   UNL     1      -1.543  12.325  23.161  0.00  0.00    +0.000 N 
ATOM     21  H   UNL     1      -1.212  12.116  24.103  0.00  0.00    +0.000 HD
ENDBRANCH   1  20
BRANCH  13  22
ATOM     22  O   UNL     1       1.821   6.125  19.236  0.00  0.00    +0.000 OA
BRANCH  22  23
ATOM     23  C   UNL     1       2.679   5.209  19.761  0.00  0.00    +0.000 C 
ATOM     24  O   UNL     1       2.624   4.760  20.897  0.00  0.00    +0.000 OA
BRANCH  23  25
ATOM     25  C   UNL     1       3.772   4.857  18.816  0.00  0.00    +0.000 A 
ATOM     26  C   UNL     1       5.095   5.104  19.216  0.00  0.00    +0.000 A 
ATOM     27  C   UNL     1       6.151   4.901  18.325  0.00  0.00    +0.000 A 
ATOM     28  C   UNL     1       5.891   4.444  17.034  0.00  0.00    +0.000 A 
ATOM     29  C   UNL     1       4.582   4.167  16.641  0.00  0.00    +0.000 A 
ATOM     30  C   UNL     1       3.522   4.367  17.529  0.00  0.00    +0.000 A 
ENDBRANCH  23  25
ENDBRANCH  22  23
ENDBRANCH  13  22
TORSDOF 4
ENDMDL
MODEL 4
REMARK VINA RESULT:      -8.2      4.079      6.149
REMARK  Name = 
REMARK  6 active torsions:
REMARK  status: ('A' for Active; 'I' for Inactive)
REMARK    1  A    between atoms: C_1  and  C_2
REMARK    2  A    between atoms: N_4  and  C_5
REMARK    3  A    between atoms: C_6  and  C_7
REMARK    4  A    between atoms: C_17  and  O_18
REMARK    5  A    between atoms: O_18  and  C_19
REMARK    6  A    between atoms: C_19  and  C_21
REMARK                            x       y       z     vdW  Elec       q    Type
REMARK                         _______ _______ _______ _____ _____    ______ ____
ROOT
ATOM      1  C   UNL     1      -1.094  11.979  22.425  0.00  0.00    +0.000 C 
ATOM      2  C   UNL     1      -0.822  12.837  21.410  0.00  0.00    +0.000 C 
ATOM      3  C   UNL     1      -1.217  14.285  21.328  0.00  0.00    +0.000 C 
ATOM      4  C   UNL     1      -0.001  12.394  20.233  0.00  0.00    +0.000 C 
ATOM      5  O   UNL     1       0.277  13.158  19.320  0.00  0.00    +0.000 OA
ATOM      6  C   UNL     1       0.425  11.038  20.269  0.00  0.00    +0.000 A 
ATOM      7  C   UNL     1       0.214  10.157  21.300  0.00  0.00    +0.000 A 
ATOM      8  N   UNL     1       0.799   8.916  21.022  0.00  0.00    +0.000 NA
ATOM      9  C   UNL     1       1.328   9.075  19.818  0.00  0.00    +0.000 A 
ATOM     10  N   UNL     1       1.121  10.343  19.362  0.00  0.00    +0.000 N 
ATOM     11  C   UNL     1       1.755  10.643  18.098  0.00  0.00    +0.000 C 
ATOM     12  C   UNL     1       2.107   9.245  17.586  0.00  0.00    +0.000 C 
ATOM     13  C   UNL     1       2.212   8.341  18.855  0.00  0.00    +0.000 C 
ATOM     14  C   UNL     1      -0.518  10.570  22.490  0.00  0.00    +0.000 C 
ATOM     15  N   UNL     1      -0.653   9.783  23.507  0.00  0.00    +0.000 NA
ATOM     16  H   UNL     1      -0.175   8.897  23.276  0.00  0.00    +0.000 HD
ENDROOT
BRANCH   1  20
ATOM     17  C   UNL     1      -4.018  12.805  24.615  0.00  0.00    +0.000 C 
ATOM     18  C   UNL     1      -3.294  12.386  23.364  0.00  0.00    +0.000 C 
ATOM     19  O   UNL     1      -3.903  12.127  22.328  0.00  0.00    +0.000 OA
ATOM     20  N   UNL     1      -1.913  12.321  23.500  0.00  0.00    +0.000 N 
ATOM     21  H   UNL     1      -1.591  11.966  24.400  0.00  0.00    +0.000 HD
ENDBRANCH   1  20
BRANCH  13  22
ATOM     22  O   UNL     1       1.698   7.037  18.581  0.00  0.00    +0.000 OA
BRANCH  22  23
ATOM     23  C   UNL     1       2.637   6.064  18.732  0.00  0.00    +0.000 C 
ATOM     24  O   UNL     1       3.822   6.176  18.449  0.00  0.00    +0.000 OA
BRANCH  23  25
ATOM     25  C   UNL     1       2.049   4.785  19.212  0.00  0.00    +0.000 A 
ATOM     26  C   UNL     1       1.964   4.576  20.598  0.00  0.00    +0.000 A 
ATOM     27  C   UNL     1       1.528   3.348  21.100  0.00  0.00    +0.000 A 
ATOM     28  C   UNL     1       1.169   2.327  20.222  0.00  0.00    +0.000 A 
ATOM     29  C   UNL     1       1.221   2.540  18.844  0.00  0.00    +0.000 A 
ATOM     30  C   UNL     1       1.655   3.767  18.336  0.00  0.00    +0.000 A 
ENDBRANCH  23  25
ENDBRANCH  22  23
ENDBRANCH  13  22
TORSDOF 4
ENDMDL
MODEL 5
REMARK VINA RESULT:      -8.2      1.751      2.564
REMARK  Name = 
REMARK  6 active torsions:
REMARK  status: ('A' for Active; 'I' for Inactive)
REMARK    1  A    between atoms: C_1  and  C_2
REMARK    2  A    between atoms: N_4  and  C_5
REMARK    3  A    between atoms: C_6  and  C_7
REMARK    4  A    between atoms: C_17  and  O_18
REMARK    5  A    between atoms: O_18  and  C_19
REMARK    6  A    between atoms: C_19  and  C_21
REMARK                            x       y       z     vdW  Elec       q    Type
REMARK                         _______ _______ _______ _____ _____    ______ ____
ROOT
ATOM      1  C   UNL     1       0.991  10.866  19.683  0.00  0.00    +0.000 C 
ATOM      2  C   UNL     1       0.491  10.304  20.812  0.00  0.00    +0.000 C 
ATOM      3  C   UNL     1      -0.345  10.985  21.860  0.00  0.00    +0.000 C 
ATOM      4  C   UNL     1       0.700   8.845  21.097  0.00  0.00    +0.000 C 
ATOM      5  O   UNL     1       0.237   8.313  22.095  0.00  0.00    +0.000 OA
ATOM      6  C   UNL     1       1.462   8.141  20.125  0.00  0.00    +0.000 A 
ATOM      7  C   UNL     1       1.939   8.662  18.948  0.00  0.00    +0.000 A 
ATOM      8  N   UNL     1       2.616   7.684  18.208  0.00  0.00    +0.000 NA
ATOM      9  C   UNL     1       2.549   6.604  18.972  0.00  0.00    +0.000 A 
ATOM     10  N   UNL     1       1.852   6.861  20.115  0.00  0.00    +0.000 N 
ATOM     11  C   UNL     1       1.636   5.711  20.965  0.00  0.00    +0.000 C 
ATOM     12  C   UNL     1       2.639   4.708  20.390  0.00  0.00    +0.000 C 
ATOM     13  C   UNL     1       2.876   5.143  18.910  0.00  0.00    +0.000 C 
ATOM     14  C   UNL     1       1.697  10.056  18.602  0.00  0.00    +0.000 C 
ATOM     15  N   UNL     1       2.062  10.544  17.461  0.00  0.00    +0.000 NA
ATOM     16  H   UNL     1       2.521   9.781  16.935  0.00  0.00    +0.000 HD
ENDROOT
BRANCH   1  20
ATOM     17  C   UNL     1      -0.147  14.239  18.518  0.00  0.00    +0.000 C 
ATOM     18  C   UNL     1      -0.219  12.755  18.756  0.00  0.00    +0.000 C 
ATOM     19  O   UNL     1      -1.189  12.094  18.393  0.00  0.00    +0.000 OA
ATOM     20  N   UNL     1       0.888  12.230  19.413  0.00  0.00    +0.000 N 
ATOM     21  H   UNL     1       1.274  12.829  20.142  0.00  0.00    +0.000 HD
ENDBRANCH   1  20
BRANCH  13  22
ATOM     22  O   UNL     1       4.242   4.938  18.545  0.00  0.00    +0.000 OA
BRANCH  22  23
ATOM     23  C   UNL     1       4.411   3.849  17.747  0.00  0.00    +0.000 C 
ATOM     24  O   UNL     1       3.930   2.743  17.951  0.00  0.00    +0.000 OA
BRANCH  23  25
ATOM     25  C   UNL     1       5.334   4.120  16.614  0.00  0.00    +0.000 A 
ATOM     26  C   UNL     1       6.580   4.701  16.901  0.00  0.00    +0.000 A 
ATOM     27  C   UNL     1       7.436   5.082  15.866  0.00  0.00    +0.000 A 
ATOM     28  C   UNL     1       7.055   4.880  14.541  0.00  0.00    +0.000 A 
ATOM     29  C   UNL     1       5.832   4.275  14.249  0.00  0.00    +0.000 A 
ATOM     30  C   UNL     1       4.973   3.890  15.281  0.00  0.00    +0.000 A 
ENDBRANCH  23  25
ENDBRANCH  22  23
ENDBRANCH  13  22
TORSDOF 4
ENDMDL
MODEL 6
REMARK VINA RESULT:      -8.2      3.720      5.606
REMARK  Name = 
REMARK  6 active torsions:
REMARK  status: ('A' for Active; 'I' for Inactive)
REMARK    1  A    between atoms: C_1  and  C_2
REMARK    2  A    between atoms: N_4  and  C_5
REMARK    3  A    between atoms: C_6  and  C_7
REMARK    4  A    between atoms: C_17  and  O_18
REMARK    5  A    between atoms: O_18  and  C_19
REMARK    6  A    between atoms: C_19  and  C_21
REMARK                            x       y       z     vdW  Elec       q    Type
REMARK                         _______ _______ _______ _____ _____    ______ ____
ROOT
ATOM      1  C   UNL     1      -1.327  11.768  21.784  0.00  0.00    +0.000 C 
ATOM      2  C   UNL     1      -1.314  12.154  20.483  0.00  0.00    +0.000 C 
ATOM      3  C   UNL     1      -2.024  13.341  19.893  0.00  0.00    +0.000 C 
ATOM      4  C   UNL     1      -0.490  11.411  19.472  0.00  0.00    +0.000 C 
ATOM      5  O   UNL     1      -0.445  11.758  18.301  0.00  0.00    +0.000 OA
ATOM      6  C   UNL     1       0.226  10.293  19.979  0.00  0.00    +0.000 A 
ATOM      7  C   UNL     1       0.279   9.903  21.294  0.00  0.00    +0.000 A 
ATOM      8  N   UNL     1       1.106   8.784  21.449  0.00  0.00    +0.000 NA
ATOM      9  C   UNL     1       1.512   8.515  20.217  0.00  0.00    +0.000 A 
ATOM     10  N   UNL     1       1.002   9.417  19.331  0.00  0.00    +0.000 N 
ATOM     11  C   UNL     1       1.475   9.266  17.973  0.00  0.00    +0.000 C 
ATOM     12  C   UNL     1       2.095   7.868  18.013  0.00  0.00    +0.000 C 
ATOM     13  C   UNL     1       2.475   7.613  19.506  0.00  0.00    +0.000 C 
ATOM     14  C   UNL     1      -0.451  10.641  22.316  0.00  0.00    +0.000 C 
ATOM     15  N   UNL     1      -0.346  10.342  23.570  0.00  0.00    +0.000 NA
ATOM     16  H   UNL     1       0.301   9.539  23.642  0.00  0.00    +0.000 HD
ENDROOT
BRANCH   1  20
ATOM     17  C   UNL     1      -2.685  14.002  24.465  0.00  0.00    +0.000 C 
ATOM     18  C   UNL     1      -1.700  13.495  23.447  0.00  0.00    +0.000 C 
ATOM     19  O   UNL     1      -0.615  14.047  23.275  0.00  0.00    +0.000 OA
ATOM     20  N   UNL     1      -2.134  12.379  22.742  0.00  0.00    +0.000 N 
ATOM     21  H   UNL     1      -3.127  12.382  22.510  0.00  0.00    +0.000 HD
ENDBRANCH   1  20
BRANCH  13  22
ATOM     22  O   UNL     1       2.246   6.246  19.850  0.00  0.00    +0.000 OA
BRANCH  22  23
ATOM     23  C   UNL     1       3.273   5.435  19.476  0.00  0.00    +0.000 C 
ATOM     24  O   UNL     1       4.449   5.768  19.415  0.00  0.00    +0.000 OA
BRANCH  23  25
ATOM     25  C   UNL     1       2.802   4.089  19.057  0.00  0.00    +0.000 A 
ATOM     26  C   UNL     1       1.418   3.864  18.989  0.00  0.00    +0.000 A 
ATOM     27  C   UNL     1       0.923   2.588  18.713  0.00  0.00    +0.000 A 
ATOM     28  C   UNL     1       1.806   1.533  18.500  0.00  0.00    +0.000 A 
ATOM     29  C   UNL     1       3.183   1.755  18.535  0.00  0.00    +0.000 A 
ATOM     30  C   UNL     1       3.684   3.030  18.809  0.00  0.00    +0.000 A 
ENDBRANCH  23  25
ENDBRANCH  22  23
ENDBRANCH  13  22
TORSDOF 4
ENDMDL
MODEL 7
REMARK VINA RESULT:      -8.1      2.153      2.823
REMARK  Name = 
REMARK  6 active torsions:
REMARK  status: ('A' for Active; 'I' for Inactive)
REMARK    1  A    between atoms: C_1  and  C_2
REMARK    2  A    between atoms: N_4  and  C_5
REMARK    3  A    between atoms: C_6  and  C_7
REMARK    4  A    between atoms: C_17  and  O_18
REMARK    5  A    between atoms: O_18  and  C_19
REMARK    6  A    between atoms: C_19  and  C_21
REMARK                            x       y       z     vdW  Elec       q    Type
REMARK                         _______ _______ _______ _____ _____    ______ ____
ROOT
ATOM      1  C   UNL     1       0.954  11.027  19.640  0.00  0.00    +0.000 C 
ATOM      2  C   UNL     1       0.389  10.475  20.744  0.00  0.00    +0.000 C 
ATOM      3  C   UNL     1      -0.501  11.168  21.738  0.00  0.00    +0.000 C 
ATOM      4  C   UNL     1       0.575   9.018  21.052  0.00  0.00    +0.000 C 
ATOM      5  O   UNL     1       0.054   8.496  22.027  0.00  0.00    +0.000 OA
ATOM      6  C   UNL     1       1.387   8.304  20.129  0.00  0.00    +0.000 A 
ATOM      7  C   UNL     1       1.932   8.813  18.977  0.00  0.00    +0.000 A 
ATOM      8  N   UNL     1       2.645   7.827  18.285  0.00  0.00    +0.000 NA
ATOM      9  C   UNL     1       2.531   6.753  19.052  0.00  0.00    +0.000 A 
ATOM     10  N   UNL     1       1.772   7.023  20.152  0.00  0.00    +0.000 N 
ATOM     11  C   UNL     1       1.503   5.880  20.997  0.00  0.00    +0.000 C 
ATOM     12  C   UNL     1       2.532   4.868  20.488  0.00  0.00    +0.000 C 
ATOM     13  C   UNL     1       2.855   5.290  19.019  0.00  0.00    +0.000 C 
ATOM     14  C   UNL     1       1.716  10.206  18.608  0.00  0.00    +0.000 C 
ATOM     15  N   UNL     1       2.147  10.682  17.485  0.00  0.00    +0.000 NA
ATOM     16  H   UNL     1       2.631   9.914  16.991  0.00  0.00    +0.000 HD
ENDROOT
BRANCH   1  20
ATOM     17  C   UNL     1       1.402  14.746  19.627  0.00  0.00    +0.000 C 
ATOM     18  C   UNL     1       1.644  13.319  20.040  0.00  0.00    +0.000 C 
ATOM     19  O   UNL     1       2.463  13.035  20.911  0.00  0.00    +0.000 OA
ATOM     20  N   UNL     1       0.872  12.389  19.354  0.00  0.00    +0.000 N 
ATOM     21  H   UNL     1       0.731  12.600  18.367  0.00  0.00    +0.000 HD
ENDBRANCH   1  20
BRANCH  13  22
ATOM     22  O   UNL     1       4.237   5.077  18.733  0.00  0.00    +0.000 OA
BRANCH  22  23
ATOM     23  C   UNL     1       4.439   4.038  17.879  0.00  0.00    +0.000 C 
ATOM     24  O   UNL     1       4.011   2.903  18.033  0.00  0.00    +0.000 OA
BRANCH  23  25
ATOM     25  C   UNL     1       5.329   4.408  16.745  0.00  0.00    +0.000 A 
ATOM     26  C   UNL     1       4.945   4.022  15.451  0.00  0.00    +0.000 A 
ATOM     27  C   UNL     1       5.797   4.241  14.367  0.00  0.00    +0.000 A 
ATOM     28  C   UNL     1       7.033   4.852  14.570  0.00  0.00    +0.000 A 
ATOM     29  C   UNL     1       7.407   5.266  15.848  0.00  0.00    +0.000 A 
ATOM     30  C   UNL     1       6.557   5.050  16.936  0.00  0.00    +0.000 A 
ENDBRANCH  23  25
ENDBRANCH  22  23
ENDBRANCH  13  22
TORSDOF 4
ENDMDL
MODEL 8
REMARK VINA RESULT:      -8.1      3.060      9.714
REMARK  Name = 
REMARK  6 active torsions:
REMARK  status: ('A' for Active; 'I' for Inactive)
REMARK    1  A    between atoms: C_1  and  C_2
REMARK    2  A    between atoms: N_4  and  C_5
REMARK    3  A    between atoms: C_6  and  C_7
REMARK    4  A    between atoms: C_17  and  O_18
REMARK    5  A    between atoms: O_18  and  C_19
REMARK    6  A    between atoms: C_19  and  C_21
REMARK                            x       y       z     vdW  Elec       q    Type
REMARK                         _______ _______ _______ _____ _____    ______ ____
ROOT
ATOM      1  C   UNL     1       3.433   5.231  19.120  0.00  0.00    +0.000 C 
ATOM      2  C   UNL     1       3.633   5.974  18.003  0.00  0.00    +0.000 C 
ATOM      3  C   UNL     1       4.386   5.556  16.770  0.00  0.00    +0.000 C 
ATOM      4  C   UNL     1       3.031   7.343  17.876  0.00  0.00    +0.000 C 
ATOM      5  O   UNL     1       3.177   8.018  16.868  0.00  0.00    +0.000 OA
ATOM      6  C   UNL     1       2.283   7.781  19.003  0.00  0.00    +0.000 A 
ATOM      7  C   UNL     1       2.017   7.040  20.127  0.00  0.00    +0.000 A 
ATOM      8  N   UNL     1       1.223   7.765  21.025  0.00  0.00    +0.000 NA
ATOM      9  C   UNL     1       1.051   8.934  20.426  0.00  0.00    +0.000 A 
ATOM     10  N   UNL     1       1.671   8.952  19.213  0.00  0.00    +0.000 N 
ATOM     11  C   UNL     1       1.450  10.153  18.438  0.00  0.00    +0.000 C 
ATOM     12  C   UNL     1       0.891  11.107  19.495  0.00  0.00    +0.000 C 
ATOM     13  C   UNL     1       0.266  10.199  20.601  0.00  0.00    +0.000 C 
ATOM     14  C   UNL     1       2.525   5.681  20.257  0.00  0.00    +0.000 C 
ATOM     15  N   UNL     1       2.215   4.937  21.268  0.00  0.00    +0.000 NA
ATOM     16  H   UNL     1       1.599   5.495  21.883  0.00  0.00    +0.000 HD
ENDROOT
BRANCH   1  20
ATOM     17  C   UNL     1       4.210   1.567  19.178  0.00  0.00    +0.000 C 
ATOM     18  C   UNL     1       3.442   2.819  18.850  0.00  0.00    +0.000 C 
ATOM     19  O   UNL     1       2.386   2.777  18.222  0.00  0.00    +0.000 OA
ATOM     20  N   UNL     1       4.034   3.987  19.314  0.00  0.00    +0.000 N 
ATOM     21  H   UNL     1       5.052   4.002  19.252  0.00  0.00    +0.000 HD
ENDBRANCH   1  20
BRANCH  13  22
ATOM     22  O   UNL     1       0.488  10.765  21.893  0.00  0.00    +0.000 OA
BRANCH  22  23
ATOM     23  C   UNL     1      -0.582  10.611  22.720  0.00  0.00    +0.000 C 
ATOM     24  O   UNL     1      -0.945   9.554  23.215  0.00  0.00    +0.000 OA
BRANCH  23  25
ATOM     25  C   UNL     1      -1.339  11.878  22.901  0.00  0.00    +0.000 A 
ATOM     26  C   UNL     1      -0.685  13.086  22.610  0.00  0.00    +0.000 A 
ATOM     27  C   UNL     1      -1.309  14.307  22.872  0.00  0.00    +0.000 A 
ATOM     28  C   UNL     1      -2.590  14.329  23.419  0.00  0.00    +0.000 A 
ATOM     29  C   UNL     1      -3.258  13.132  23.682  0.00  0.00    +0.000 A 
ATOM     30  C   UNL     1      -2.639  11.907  23.420  0.00  0.00    +0.000 A 
ENDBRANCH  23  25
ENDBRANCH  22  23
ENDBRANCH  13  22
TORSDOF 4
ENDMDL
MODEL 9
REMARK VINA RESULT:      -8.0      2.877      5.097
REMARK  Name = 
REMARK  6 active torsions:
REMARK  status: ('A' for Active; 'I' for Inactive)
REMARK    1  A    between atoms: C_1  and  C_2
REMARK    2  A    between atoms: N_4  and  C_5
REMARK    3  A    between atoms: C_6  and  C_7
REMARK    4  A    between atoms: C_17  and  O_18
REMARK    5  A    between atoms: O_18  and  C_19
REMARK    6  A    between atoms: C_19  and  C_21
REMARK                            x       y       z     vdW  Elec       q    Type
REMARK                         _______ _______ _______ _____ _____    ______ ____
ROOT
ATOM      1  C   UNL     1      -1.173  11.761  21.699  0.00  0.00    +0.000 C 
ATOM      2  C   UNL     1      -0.851  12.318  20.504  0.00  0.00    +0.000 C 
ATOM      3  C   UNL     1      -1.254  13.680  20.011  0.00  0.00    +0.000 C 
ATOM      4  C   UNL     1       0.040  11.594  19.537  0.00  0.00    +0.000 C 
ATOM      5  O   UNL     1       0.363  12.088  18.467  0.00  0.00    +0.000 OA
ATOM      6  C   UNL     1       0.476  10.309  19.963  0.00  0.00    +0.000 A 
ATOM      7  C   UNL     1       0.214   9.735  21.181  0.00  0.00    +0.000 A 
ATOM      8  N   UNL     1       0.826   8.479  21.283  0.00  0.00    +0.000 NA
ATOM      9  C   UNL     1       1.422   8.320  20.111  0.00  0.00    +0.000 A 
ATOM     10  N   UNL     1       1.229   9.411  19.317  0.00  0.00    +0.000 N 
ATOM     11  C   UNL     1       1.933   9.373  18.054  0.00  0.00    +0.000 C 
ATOM     12  C   UNL     1       2.326   7.898  17.962  0.00  0.00    +0.000 C 
ATOM     13  C   UNL     1       2.366   7.374  19.432  0.00  0.00    +0.000 C 
ATOM     14  C   UNL     1      -0.589  10.437  22.174  0.00  0.00    +0.000 C 
ATOM     15  N   UNL     1      -0.775   9.952  23.359  0.00  0.00    +0.000 NA
ATOM     16  H   UNL     1      -0.276   9.048  23.402  0.00  0.00    +0.000 HD
ENDROOT
BRANCH   1  20
ATOM     17  C   UNL     1      -2.714  13.881  24.375  0.00  0.00    +0.000 C 
ATOM     18  C   UNL     1      -1.639  13.373  23.453  0.00  0.00    +0.000 C 
ATOM     19  O   UNL     1      -0.501  13.836  23.479  0.00  0.00    +0.000 OA
ATOM     20  N   UNL     1      -2.056  12.362  22.595  0.00  0.00    +0.000 N 
ATOM     21  H   UNL     1      -3.003  12.474  22.235  0.00  0.00    +0.000 HD
ENDBRANCH   1  20
BRANCH  13  22
ATOM     22  O   UNL     1       1.881   6.032  19.495  0.00  0.00    +0.000 OA
BRANCH  22  23
ATOM     23  C   UNL     1       2.830   5.154  19.918  0.00  0.00    +0.000 C 
ATOM     24  O   UNL     1       2.858   4.620  21.018  0.00  0.00    +0.000 OA
BRANCH  23  25
ATOM     25  C   UNL     1       3.910   4.967  18.912  0.00  0.00    +0.000 A 
ATOM     26  C   UNL     1       3.564   4.419  17.667  0.00  0.00    +0.000 A 
ATOM     27  C   UNL     1       4.554   4.115  16.731  0.00  0.00    +0.000 A 
ATOM     28  C   UNL     1       5.892   4.362  17.031  0.00  0.00    +0.000 A 
ATOM     29  C   UNL     1       6.240   4.935  18.254  0.00  0.00    +0.000 A 
ATOM     30  C   UNL     1       5.252   5.243  19.194  0.00  0.00    +0.000 A 
ENDBRANCH  23  25
ENDBRANCH  22  23
ENDBRANCH  13  22
TORSDOF 4
ENDMDL
