MODEL 1
REMARK VINA RESULT:      -7.8      0.000      0.000
REMARK  Name = 
REMARK  8 active torsions:
REMARK  status: ('A' for Active; 'I' for Inactive)
REMARK    1  A    between atoms: C_1  and  O_2
REMARK    2  A    between atoms: O_2  and  C_3
REMARK    3  A    between atoms: C_3  and  C_4
REMARK    4  A    between atoms: C_4  and  N_5
REMARK    5  A    between atoms: N_5  and  C_6
REMARK    6  A    between atoms: N_5  and  S_20
REMARK    7  A    between atoms: C_7  and  C_8
REMARK    8  A    between atoms: S_20  and  C_21
REMARK                            x       y       z     vdW  Elec       q    Type
REMARK                         _______ _______ _______ _____ _____    ______ ____
ROOT
ATOM      1  C   UNL     1       4.733   5.314  18.167  0.00  0.00    +0.000 A 
ATOM      2  C   UNL     1       4.033   6.472  17.767  0.00  0.00    +0.000 A 
ATOM      3  C   UNL     1       4.478   7.304  16.596  0.00  0.00    +0.000 C 
ATOM      4  C   UNL     1       2.860   6.824  18.463  0.00  0.00    +0.000 A 
ATOM      5 CL   UNL     1       1.975   8.260  18.077  0.00  0.00    +0.000 Cl
ATOM      6  C   UNL     1       2.355   6.022  19.487  0.00  0.00    +0.000 A 
ATOM      7  C   UNL     1       3.009   4.841  19.821  0.00  0.00    +0.000 A 
ATOM      8  N   UNL     1       2.446   4.013  20.796  0.00  0.00    +0.000 N 
ATOM      9  C   UNL     1       2.985   2.801  21.161  0.00  0.00    +0.000 A 
ATOM     10  O   UNL     1       2.426   2.074  21.973  0.00  0.00    +0.000 OA
ATOM     11  C   UNL     1       4.320   2.409  20.493  0.00  0.00    +0.000 A 
ATOM     12  O   UNL     1       4.903   1.378  20.803  0.00  0.00    +0.000 OA
ATOM     13  N   UNL     1       4.821   3.274  19.542  0.00  0.00    +0.000 N 
ATOM     14  C   UNL     1       4.197   4.480  19.177  0.00  0.00    +0.000 A 
ATOM     15  H   UNL     1       1.569   4.250  21.240  0.00  0.00    +0.000 HD
ATOM     16  H   UNL     1       5.657   2.964  19.061  0.00  0.00    +0.000 HD
ENDROOT
BRANCH   1  17
ATOM     17  N   UNL     1       5.978   4.991  17.504  0.00  0.00    +0.000 N 
BRANCH  17  18
ATOM     18  S   UNL     1       7.391   5.279  18.385  0.00  0.00    +0.000 S 
ATOM     19  C   UNL     1       7.824   6.924  17.836  0.00  0.00    +0.000 C 
ATOM     20  O   UNL     1       7.016   5.338  19.782  0.00  0.00    +0.000 OA
ATOM     21  O   UNL     1       8.431   4.387  17.923  0.00  0.00    +0.000 OA
ENDBRANCH  17  18
BRANCH  17  22
ATOM     22  C   UNL     1       6.023   5.049  16.014  0.00  0.00    +0.000 C 
BRANCH  22  23
ATOM     23  C   UNL     1       5.956   3.640  15.409  0.00  0.00    +0.000 C 
BRANCH  23  25
ATOM     24  C   UNL     1       7.126   4.807  13.721  0.00  0.00    +0.000 C 
ATOM     25  O   UNL     1       6.319   3.677  14.029  0.00  0.00    +0.000 OA
ENDBRANCH  23  25
ENDBRANCH  22  23
ENDBRANCH  17  22
ENDBRANCH   1  17
TORSDOF 5
ENDMDL
MODEL 2
REMARK VINA RESULT:      -7.8      0.964      1.133
REMARK  Name = 
REMARK  8 active torsions:
REMARK  status: ('A' for Active; 'I' for Inactive)
REMARK    1  A    between atoms: C_1  and  O_2
REMARK    2  A    between atoms: O_2  and  C_3
REMARK    3  A    between atoms: C_3  and  C_4
REMARK    4  A    between atoms: C_4  and  N_5
REMARK    5  A    between atoms: N_5  and  C_6
REMARK    6  A    between atoms: N_5  and  S_20
REMARK    7  A    between atoms: C_7  and  C_8
REMARK    8  A    between atoms: S_20  and  C_21
REMARK                            x       y       z     vdW  Elec       q    Type
REMARK                         _______ _______ _______ _____ _____    ______ ____
ROOT
ATOM      1  C   UNL     1       4.645   5.302  17.799  0.00  0.00    +0.000 A 
ATOM      2  C   UNL     1       3.980   6.526  17.569  0.00  0.00    +0.000 A 
ATOM      3  C   UNL     1       4.247   7.356  16.344  0.00  0.00    +0.000 C 
ATOM      4  C   UNL     1       3.009   6.949  18.498  0.00  0.00    +0.000 A 
ATOM      5 CL   UNL     1       2.191   8.464  18.326  0.00  0.00    +0.000 Cl
ATOM      6  C   UNL     1       2.658   6.158  19.593  0.00  0.00    +0.000 A 
ATOM      7  C   UNL     1       3.263   4.918  19.766  0.00  0.00    +0.000 A 
ATOM      8  N   UNL     1       2.842   4.107  20.824  0.00  0.00    +0.000 N 
ATOM      9  C   UNL     1       3.338   2.844  21.052  0.00  0.00    +0.000 A 
ATOM     10  O   UNL     1       2.896   2.139  21.951  0.00  0.00    +0.000 OA
ATOM     11  C   UNL     1       4.469   2.366  20.116  0.00  0.00    +0.000 A 
ATOM     12  O   UNL     1       5.011   1.282  20.283  0.00  0.00    +0.000 OA
ATOM     13  N   UNL     1       4.837   3.218  19.095  0.00  0.00    +0.000 N 
ATOM     14  C   UNL     1       4.258   4.482  18.885  0.00  0.00    +0.000 A 
ATOM     15  H   UNL     1       2.098   4.400  21.443  0.00  0.00    +0.000 HD
ATOM     16  H   UNL     1       5.527   2.857  18.447  0.00  0.00    +0.000 HD
ENDROOT
BRANCH   1  17
ATOM     17  N   UNL     1       5.695   4.901  16.888  0.00  0.00    +0.000 N 
BRANCH  17  18
ATOM     18  S   UNL     1       7.261   5.397  17.287  0.00  0.00    +0.000 S 
ATOM     19  C   UNL     1       7.045   5.930  18.979  0.00  0.00    +0.000 C 
ATOM     20  O   UNL     1       8.097   4.215  17.274  0.00  0.00    +0.000 OA
ATOM     21  O   UNL     1       7.602   6.567  16.510  0.00  0.00    +0.000 OA
ENDBRANCH  17  18
BRANCH  17  22
ATOM     22  C   UNL     1       5.343   4.678  15.455  0.00  0.00    +0.000 C 
BRANCH  22  23
ATOM     23  C   UNL     1       6.346   3.726  14.787  0.00  0.00    +0.000 C 
BRANCH  23  25
ATOM     24  C   UNL     1       6.017   3.453  12.464  0.00  0.00    +0.000 C 
ATOM     25  O   UNL     1       6.677   4.196  13.481  0.00  0.00    +0.000 OA
ENDBRANCH  23  25
ENDBRANCH  22  23
ENDBRANCH  17  22
ENDBRANCH   1  17
TORSDOF 5
ENDMDL
MODEL 3
REMARK VINA RESULT:      -7.6      1.478      1.481
REMARK  Name = 
REMARK  8 active torsions:
REMARK  status: ('A' for Active; 'I' for Inactive)
REMARK    1  A    between atoms: C_1  and  O_2
REMARK    2  A    between atoms: O_2  and  C_3
REMARK    3  A    between atoms: C_3  and  C_4
REMARK    4  A    between atoms: C_4  and  N_5
REMARK    5  A    between atoms: N_5  and  C_6
REMARK    6  A    between atoms: N_5  and  S_20
REMARK    7  A    between atoms: C_7  and  C_8
REMARK    8  A    between atoms: S_20  and  C_21
REMARK                            x       y       z     vdW  Elec       q    Type
REMARK                         _______ _______ _______ _____ _____    ______ ____
ROOT
ATOM      1  C   UNL     1       4.764   5.269  17.435  0.00  0.00    +0.000 A 
ATOM      2  C   UNL     1       4.322   6.602  17.296  0.00  0.00    +0.000 A 
ATOM      3  C   UNL     1       5.157   7.648  16.610  0.00  0.00    +0.000 C 
ATOM      4  C   UNL     1       3.042   6.940  17.777  0.00  0.00    +0.000 A 
ATOM      5 CL   UNL     1       2.447   8.563  17.703  0.00  0.00    +0.000 Cl
ATOM      6  C   UNL     1       2.195   5.977  18.326  0.00  0.00    +0.000 A 
ATOM      7  C   UNL     1       2.609   4.651  18.386  0.00  0.00    +0.000 A 
ATOM      8  N   UNL     1       1.718   3.689  18.866  0.00  0.00    +0.000 N 
ATOM      9  C   UNL     1       2.010   2.345  18.917  0.00  0.00    +0.000 A 
ATOM     10  O   UNL     1       1.177   1.525  19.284  0.00  0.00    +0.000 OA
ATOM     11  C   UNL     1       3.433   1.931  18.485  0.00  0.00    +0.000 A 
ATOM     12  O   UNL     1       3.801   0.766  18.557  0.00  0.00    +0.000 OA
ATOM     13  N   UNL     1       4.262   2.932  18.024  0.00  0.00    +0.000 N 
ATOM     14  C   UNL     1       3.888   4.285  17.951  0.00  0.00    +0.000 A 
ATOM     15  H   UNL     1       0.779   3.940  19.148  0.00  0.00    +0.000 HD
ATOM     16  H   UNL     1       5.165   2.631  17.675  0.00  0.00    +0.000 HD
ENDROOT
BRANCH   1  17
ATOM     17  N   UNL     1       6.107   4.935  17.009  0.00  0.00    +0.000 N 
BRANCH  17  18
ATOM     18  S   UNL     1       7.293   4.930  18.214  0.00  0.00    +0.000 S 
ATOM     19  C   UNL     1       7.827   6.636  18.194  0.00  0.00    +0.000 C 
ATOM     20  O   UNL     1       6.622   4.667  19.470  0.00  0.00    +0.000 OA
ATOM     21  O   UNL     1       8.412   4.127  17.777  0.00  0.00    +0.000 OA
ENDBRANCH  17  18
BRANCH  17  22
ATOM     22  C   UNL     1       6.498   5.232  15.601  0.00  0.00    +0.000 C 
BRANCH  22  23
ATOM     23  C   UNL     1       5.814   4.263  14.627  0.00  0.00    +0.000 C 
BRANCH  23  25
ATOM     24  C   UNL     1       5.932   3.337  12.457  0.00  0.00    +0.000 C 
ATOM     25  O   UNL     1       6.593   4.127  13.438  0.00  0.00    +0.000 OA
ENDBRANCH  23  25
ENDBRANCH  22  23
ENDBRANCH  17  22
ENDBRANCH   1  17
TORSDOF 5
ENDMDL
MODEL 4
REMARK VINA RESULT:      -7.3      1.026      1.156
REMARK  Name = 
REMARK  8 active torsions:
REMARK  status: ('A' for Active; 'I' for Inactive)
REMARK    1  A    between atoms: C_1  and  O_2
REMARK    2  A    between atoms: O_2  and  C_3
REMARK    3  A    between atoms: C_3  and  C_4
REMARK    4  A    between atoms: C_4  and  N_5
REMARK    5  A    between atoms: N_5  and  C_6
REMARK    6  A    between atoms: N_5  and  S_20
REMARK    7  A    between atoms: C_7  and  C_8
REMARK    8  A    between atoms: S_20  and  C_21
REMARK                            x       y       z     vdW  Elec       q    Type
REMARK                         _______ _______ _______ _____ _____    ______ ____
ROOT
ATOM      1  C   UNL     1       4.225   5.720  18.469  0.00  0.00    +0.000 A 
ATOM      2  C   UNL     1       3.556   6.942  18.239  0.00  0.00    +0.000 A 
ATOM      3  C   UNL     1       3.959   7.870  17.127  0.00  0.00    +0.000 C 
ATOM      4  C   UNL     1       2.453   7.269  19.052  0.00  0.00    +0.000 A 
ATOM      5 CL   UNL     1       1.614   8.773  18.878  0.00  0.00    +0.000 Cl
ATOM      6  C   UNL     1       1.982   6.388  20.026  0.00  0.00    +0.000 A 
ATOM      7  C   UNL     1       2.600   5.153  20.192  0.00  0.00    +0.000 A 
ATOM      8  N   UNL     1       2.066   4.253  21.118  0.00  0.00    +0.000 N 
ATOM      9  C   UNL     1       2.569   2.988  21.320  0.00  0.00    +0.000 A 
ATOM     10  O   UNL     1       2.033   2.206  22.095  0.00  0.00    +0.000 OA
ATOM     11  C   UNL     1       3.834   2.612  20.519  0.00  0.00    +0.000 A 
ATOM     12  O   UNL     1       4.385   1.531  20.681  0.00  0.00    +0.000 OA
ATOM     13  N   UNL     1       4.308   3.548  19.624  0.00  0.00    +0.000 N 
ATOM     14  C   UNL     1       3.721   4.810  19.428  0.00  0.00    +0.000 A 
ATOM     15  H   UNL     1       1.235   4.480  21.647  0.00  0.00    +0.000 HD
ATOM     16  H   UNL     1       5.093   3.255  19.053  0.00  0.00    +0.000 HD
ENDROOT
BRANCH   1  17
ATOM     17  N   UNL     1       5.403   5.416  17.686  0.00  0.00    +0.000 N 
BRANCH  17  18
ATOM     18  S   UNL     1       6.892   5.750  18.415  0.00  0.00    +0.000 S 
ATOM     19  C   UNL     1       7.925   4.470  17.717  0.00  0.00    +0.000 C 
ATOM     20  O   UNL     1       7.334   7.032  17.909  0.00  0.00    +0.000 OA
ATOM     21  O   UNL     1       6.795   5.495  19.834  0.00  0.00    +0.000 OA
ENDBRANCH  17  18
BRANCH  17  22
ATOM     22  C   UNL     1       5.294   5.452  16.199  0.00  0.00    +0.000 C 
BRANCH  22  23
ATOM     23  C   UNL     1       5.036   4.048  15.635  0.00  0.00    +0.000 C 
BRANCH  23  25
ATOM     24  C   UNL     1       6.786   4.711  14.193  0.00  0.00    +0.000 C 
ATOM     25  O   UNL     1       6.146   3.621  14.846  0.00  0.00    +0.000 OA
ENDBRANCH  23  25
ENDBRANCH  22  23
ENDBRANCH  17  22
ENDBRANCH   1  17
TORSDOF 5
ENDMDL
MODEL 5
REMARK VINA RESULT:      -7.3      2.175      5.511
REMARK  Name = 
REMARK  8 active torsions:
REMARK  status: ('A' for Active; 'I' for Inactive)
REMARK    1  A    between atoms: C_1  and  O_2
REMARK    2  A    between atoms: O_2  and  C_3
REMARK    3  A    between atoms: C_3  and  C_4
REMARK    4  A    between atoms: C_4  and  N_5
REMARK    5  A    between atoms: N_5  and  C_6
REMARK    6  A    between atoms: N_5  and  S_20
REMARK    7  A    between atoms: C_7  and  C_8
REMARK    8  A    between atoms: S_20  and  C_21
REMARK                            x       y       z     vdW  Elec       q    Type
REMARK                         _______ _______ _______ _____ _____    ______ ____
ROOT
ATOM      1  C   UNL     1       3.920   4.285  19.240  0.00  0.00    +0.000 A 
ATOM      2  C   UNL     1       2.882   5.051  19.816  0.00  0.00    +0.000 A 
ATOM      3  C   UNL     1       1.884   4.448  20.765  0.00  0.00    +0.000 C 
ATOM      4  C   UNL     1       2.818   6.426  19.520  0.00  0.00    +0.000 A 
ATOM      5 CL   UNL     1       1.545   7.426  20.133  0.00  0.00    +0.000 Cl
ATOM      6  C   UNL     1       3.786   7.045  18.727  0.00  0.00    +0.000 A 
ATOM      7  C   UNL     1       4.848   6.297  18.230  0.00  0.00    +0.000 A 
ATOM      8  N   UNL     1       5.847   6.949  17.504  0.00  0.00    +0.000 N 
ATOM      9  C   UNL     1       6.965   6.311  17.014  0.00  0.00    +0.000 A 
ATOM     10  O   UNL     1       7.851   6.931  16.439  0.00  0.00    +0.000 OA
ATOM     11  C   UNL     1       7.040   4.785  17.233  0.00  0.00    +0.000 A 
ATOM     12  O   UNL     1       7.967   4.128  16.778  0.00  0.00    +0.000 OA
ATOM     13  N   UNL     1       6.018   4.206  17.957  0.00  0.00    +0.000 N 
ATOM     14  C   UNL     1       4.923   4.921  18.473  0.00  0.00    +0.000 A 
ATOM     15  H   UNL     1       5.819   7.949  17.356  0.00  0.00    +0.000 HD
ATOM     16  H   UNL     1       6.123   3.217  18.154  0.00  0.00    +0.000 HD
ENDROOT
BRANCH   1  17
ATOM     17  N   UNL     1       3.945   2.858  19.482  0.00  0.00    +0.000 N 
BRANCH  17  18
ATOM     18  S   UNL     1       2.972   1.912  18.474  0.00  0.00    +0.000 S 
ATOM     19  C   UNL     1       2.507   3.094  17.216  0.00  0.00    +0.000 C 
ATOM     20  O   UNL     1       3.828   0.909  17.876  0.00  0.00    +0.000 OA
ATOM     21  O   UNL     1       1.767   1.546  19.182  0.00  0.00    +0.000 OA
ENDBRANCH  17  18
BRANCH  17  22
ATOM     22  C   UNL     1       4.250   2.378  20.861  0.00  0.00    +0.000 C 
BRANCH  22  23
ATOM     23  C   UNL     1       5.208   1.179  20.823  0.00  0.00    +0.000 C 
BRANCH  23  25
ATOM     24  C   UNL     1       6.432  -0.269  22.232  0.00  0.00    +0.000 C 
ATOM     25  O   UNL     1       5.852   1.022  22.087  0.00  0.00    +0.000 OA
ENDBRANCH  23  25
ENDBRANCH  22  23
ENDBRANCH  17  22
ENDBRANCH   1  17
TORSDOF 5
ENDMDL
MODEL 6
REMARK VINA RESULT:      -7.3      1.523      2.766
REMARK  Name = 
REMARK  8 active torsions:
REMARK  status: ('A' for Active; 'I' for Inactive)
REMARK    1  A    between atoms: C_1  and  O_2
REMARK    2  A    between atoms: O_2  and  C_3
REMARK    3  A    between atoms: C_3  and  C_4
REMARK    4  A    between atoms: C_4  and  N_5
REMARK    5  A    between atoms: N_5  and  C_6
REMARK    6  A    between atoms: N_5  and  S_20
REMARK    7  A    between atoms: C_7  and  C_8
REMARK    8  A    between atoms: S_20  and  C_21
REMARK                            x       y       z     vdW  Elec       q    Type
REMARK                         _______ _______ _______ _____ _____    ______ ____
ROOT
ATOM      1  C   UNL     1       4.277   5.869  18.483  0.00  0.00    +0.000 A 
ATOM      2  C   UNL     1       3.472   7.018  18.320  0.00  0.00    +0.000 A 
ATOM      3  C   UNL     1       3.739   8.026  17.236  0.00  0.00    +0.000 C 
ATOM      4  C   UNL     1       2.364   7.190  19.172  0.00  0.00    +0.000 A 
ATOM      5 CL   UNL     1       1.362   8.597  19.081  0.00  0.00    +0.000 Cl
ATOM      6  C   UNL     1       2.022   6.226  20.121  0.00  0.00    +0.000 A 
ATOM      7  C   UNL     1       2.775   5.061  20.221  0.00  0.00    +0.000 A 
ATOM      8  N   UNL     1       2.371   4.074  21.123  0.00  0.00    +0.000 N 
ATOM      9  C   UNL     1       3.014   2.865  21.260  0.00  0.00    +0.000 A 
ATOM     10  O   UNL     1       2.590   2.000  22.016  0.00  0.00    +0.000 OA
ATOM     11  C   UNL     1       4.288   2.661  20.413  0.00  0.00    +0.000 A 
ATOM     12  O   UNL     1       4.959   1.643  20.517  0.00  0.00    +0.000 OA
ATOM     13  N   UNL     1       4.631   3.677  19.545  0.00  0.00    +0.000 N 
ATOM     14  C   UNL     1       3.904   4.873  19.416  0.00  0.00    +0.000 A 
ATOM     15  H   UNL     1       1.535   4.187  21.682  0.00  0.00    +0.000 HD
ATOM     16  H   UNL     1       5.426   3.494  18.944  0.00  0.00    +0.000 HD
ENDROOT
BRANCH   1  17
ATOM     17  N   UNL     1       5.458   5.726  17.659  0.00  0.00    +0.000 N 
BRANCH  17  18
ATOM     18  S   UNL     1       5.367   4.586  16.415  0.00  0.00    +0.000 S 
ATOM     19  C   UNL     1       5.339   5.637  14.969  0.00  0.00    +0.000 C 
ATOM     20  O   UNL     1       6.611   3.844  16.426  0.00  0.00    +0.000 OA
ATOM     21  O   UNL     1       4.090   3.912  16.478  0.00  0.00    +0.000 OA
ENDBRANCH  17  18
BRANCH  17  22
ATOM     22  C   UNL     1       6.785   6.046  18.260  0.00  0.00    +0.000 C 
BRANCH  22  23
ATOM     23  C   UNL     1       7.446   7.225  17.533  0.00  0.00    +0.000 C 
BRANCH  23  25
ATOM     24  C   UNL     1       8.394   9.294  18.166  0.00  0.00    +0.000 C 
ATOM     25  O   UNL     1       8.360   7.892  18.403  0.00  0.00    +0.000 OA
ENDBRANCH  23  25
ENDBRANCH  22  23
ENDBRANCH  17  22
ENDBRANCH   1  17
TORSDOF 5
ENDMDL
MODEL 7
REMARK VINA RESULT:      -7.3      1.476      2.591
REMARK  Name = 
REMARK  8 active torsions:
REMARK  status: ('A' for Active; 'I' for Inactive)
REMARK    1  A    between atoms: C_1  and  O_2
REMARK    2  A    between atoms: O_2  and  C_3
REMARK    3  A    between atoms: C_3  and  C_4
REMARK    4  A    between atoms: C_4  and  N_5
REMARK    5  A    between atoms: N_5  and  C_6
REMARK    6  A    between atoms: N_5  and  S_20
REMARK    7  A    between atoms: C_7  and  C_8
REMARK    8  A    between atoms: S_20  and  C_21
REMARK                            x       y       z     vdW  Elec       q    Type
REMARK                         _______ _______ _______ _____ _____    ______ ____
ROOT
ATOM      1  C   UNL     1       4.492   5.710  18.378  0.00  0.00    +0.000 A 
ATOM      2  C   UNL     1       3.737   6.888  18.185  0.00  0.00    +0.000 A 
ATOM      3  C   UNL     1       4.052   7.861  17.083  0.00  0.00    +0.000 C 
ATOM      4  C   UNL     1       2.633   7.124  19.027  0.00  0.00    +0.000 A 
ATOM      5 CL   UNL     1       1.692   8.571  18.901  0.00  0.00    +0.000 Cl
ATOM      6  C   UNL     1       2.245   6.196  19.994  0.00  0.00    +0.000 A 
ATOM      7  C   UNL     1       2.947   5.003  20.122  0.00  0.00    +0.000 A 
ATOM      8  N   UNL     1       2.497   4.053  21.042  0.00  0.00    +0.000 N 
ATOM      9  C   UNL     1       3.088   2.821  21.209  0.00  0.00    +0.000 A 
ATOM     10  O   UNL     1       2.623   1.991  21.980  0.00  0.00    +0.000 OA
ATOM     11  C   UNL     1       4.357   2.546  20.375  0.00  0.00    +0.000 A 
ATOM     12  O   UNL     1       4.983   1.502  20.504  0.00  0.00    +0.000 OA
ATOM     13  N   UNL     1       4.747   3.528  19.488  0.00  0.00    +0.000 N 
ATOM     14  C   UNL     1       4.072   4.751  19.329  0.00  0.00    +0.000 A 
ATOM     15  H   UNL     1       1.664   4.213  21.594  0.00  0.00    +0.000 HD
ATOM     16  H   UNL     1       5.537   3.299  18.895  0.00  0.00    +0.000 HD
ENDROOT
BRANCH   1  17
ATOM     17  N   UNL     1       5.670   5.500  17.564  0.00  0.00    +0.000 N 
BRANCH  17  18
ATOM     18  S   UNL     1       5.414   4.815  16.040  0.00  0.00    +0.000 S 
ATOM     19  C   UNL     1       7.015   4.100  15.698  0.00  0.00    +0.000 C 
ATOM     20  O   UNL     1       4.453   3.745  16.211  0.00  0.00    +0.000 OA
ATOM     21  O   UNL     1       5.201   5.869  15.074  0.00  0.00    +0.000 OA
ENDBRANCH  17  18
BRANCH  17  22
ATOM     22  C   UNL     1       6.976   5.282  18.251  0.00  0.00    +0.000 C 
BRANCH  22  23
ATOM     23  C   UNL     1       7.699   6.616  18.486  0.00  0.00    +0.000 C 
BRANCH  23  25
ATOM     24  C   UNL     1       7.812   8.795  17.581  0.00  0.00    +0.000 C 
ATOM     25  O   UNL     1       7.671   7.408  17.299  0.00  0.00    +0.000 OA
ENDBRANCH  23  25
ENDBRANCH  22  23
ENDBRANCH  17  22
ENDBRANCH   1  17
TORSDOF 5
ENDMDL
MODEL 8
REMARK VINA RESULT:      -6.9      2.773      3.989
REMARK  Name = 
REMARK  8 active torsions:
REMARK  status: ('A' for Active; 'I' for Inactive)
REMARK    1  A    between atoms: C_1  and  O_2
REMARK    2  A    between atoms: O_2  and  C_3
REMARK    3  A    between atoms: C_3  and  C_4
REMARK    4  A    between atoms: C_4  and  N_5
REMARK    5  A    between atoms: N_5  and  C_6
REMARK    6  A    between atoms: N_5  and  S_20
REMARK    7  A    between atoms: C_7  and  C_8
REMARK    8  A    between atoms: S_20  and  C_21
REMARK                            x       y       z     vdW  Elec       q    Type
REMARK                         _______ _______ _______ _____ _____    ______ ____
ROOT
ATOM      1  C   UNL     1       4.036   4.775  18.865  0.00  0.00    +0.000 A 
ATOM      2  C   UNL     1       3.805   3.707  19.760  0.00  0.00    +0.000 A 
ATOM      3  C   UNL     1       4.705   2.504  19.809  0.00  0.00    +0.000 C 
ATOM      4  C   UNL     1       2.724   3.804  20.658  0.00  0.00    +0.000 A 
ATOM      5 CL   UNL     1       2.333   2.516  21.746  0.00  0.00    +0.000 Cl
ATOM      6  C   UNL     1       1.928   4.949  20.716  0.00  0.00    +0.000 A 
ATOM      7  C   UNL     1       2.213   6.027  19.885  0.00  0.00    +0.000 A 
ATOM      8  N   UNL     1       1.454   7.193  20.012  0.00  0.00    +0.000 N 
ATOM      9  C   UNL     1       1.688   8.332  19.276  0.00  0.00    +0.000 A 
ATOM     10  O   UNL     1       1.042   9.355  19.463  0.00  0.00    +0.000 OA
ATOM     11  C   UNL     1       2.804   8.249  18.213  0.00  0.00    +0.000 A 
ATOM     12  O   UNL     1       3.039   9.194  17.470  0.00  0.00    +0.000 OA
ATOM     13  N   UNL     1       3.512   7.068  18.140  0.00  0.00    +0.000 N 
ATOM     14  C   UNL     1       3.255   5.951  18.955  0.00  0.00    +0.000 A 
ATOM     15  H   UNL     1       0.723   7.268  20.707  0.00  0.00    +0.000 HD
ATOM     16  H   UNL     1       4.289   7.058  17.489  0.00  0.00    +0.000 HD
ENDROOT
BRANCH   1  17
ATOM     17  N   UNL     1       5.098   4.647  17.891  0.00  0.00    +0.000 N 
BRANCH  17  18
ATOM     18  S   UNL     1       6.628   5.173  18.381  0.00  0.00    +0.000 S 
ATOM     19  C   UNL     1       6.783   6.706  17.475  0.00  0.00    +0.000 C 
ATOM     20  O   UNL     1       6.542   5.475  19.794  0.00  0.00    +0.000 OA
ATOM     21  O   UNL     1       7.631   4.269  17.866  0.00  0.00    +0.000 OA
ENDBRANCH  17  18
BRANCH  17  22
ATOM     22  C   UNL     1       4.742   4.687  16.444  0.00  0.00    +0.000 C 
BRANCH  22  23
ATOM     23  C   UNL     1       5.477   3.586  15.668  0.00  0.00    +0.000 C 
BRANCH  23  25
ATOM     24  C   UNL     1       6.941   4.835  14.297  0.00  0.00    +0.000 C 
ATOM     25  O   UNL     1       5.771   4.027  14.343  0.00  0.00    +0.000 OA
ENDBRANCH  23  25
ENDBRANCH  22  23
ENDBRANCH  17  22
ENDBRANCH   1  17
TORSDOF 5
ENDMDL
MODEL 9
REMARK VINA RESULT:      -6.7      1.596      2.614
REMARK  Name = 
REMARK  8 active torsions:
REMARK  status: ('A' for Active; 'I' for Inactive)
REMARK    1  A    between atoms: C_1  and  O_2
REMARK    2  A    between atoms: O_2  and  C_3
REMARK    3  A    between atoms: C_3  and  C_4
REMARK    4  A    between atoms: C_4  and  N_5
REMARK    5  A    between atoms: N_5  and  C_6
REMARK    6  A    between atoms: N_5  and  S_20
REMARK    7  A    between atoms: C_7  and  C_8
REMARK    8  A    between atoms: S_20  and  C_21
REMARK                            x       y       z     vdW  Elec       q    Type
REMARK                         _______ _______ _______ _____ _____    ______ ____
ROOT
ATOM      1  C   UNL     1       4.687   5.663  18.199  0.00  0.00    +0.000 A 
ATOM      2  C   UNL     1       3.933   6.823  17.913  0.00  0.00    +0.000 A 
ATOM      3  C   UNL     1       4.288   7.739  16.775  0.00  0.00    +0.000 C 
ATOM      4  C   UNL     1       2.793   7.093  18.695  0.00  0.00    +0.000 A 
ATOM      5 CL   UNL     1       1.848   8.523  18.452  0.00  0.00    +0.000 Cl
ATOM      6  C   UNL     1       2.370   6.214  19.692  0.00  0.00    +0.000 A 
ATOM      7  C   UNL     1       3.075   5.035  19.913  0.00  0.00    +0.000 A 
ATOM      8  N   UNL     1       2.592   4.131  20.862  0.00  0.00    +0.000 N 
ATOM      9  C   UNL     1       3.184   2.915  21.118  0.00  0.00    +0.000 A 
ATOM     10  O   UNL     1       2.692   2.122  21.911  0.00  0.00    +0.000 OA
ATOM     11  C   UNL     1       4.489   2.607  20.353  0.00  0.00    +0.000 A 
ATOM     12  O   UNL     1       5.116   1.578  20.563  0.00  0.00    +0.000 OA
ATOM     13  N   UNL     1       4.910   3.545  19.433  0.00  0.00    +0.000 N 
ATOM     14  C   UNL     1       4.233   4.752  19.181  0.00  0.00    +0.000 A 
ATOM     15  H   UNL     1       1.735   4.312  21.368  0.00  0.00    +0.000 HD
ATOM     16  H   UNL     1       5.725   3.292  18.887  0.00  0.00    +0.000 HD
ENDROOT
BRANCH   1  17
ATOM     17  N   UNL     1       5.900   5.422  17.448  0.00  0.00    +0.000 N 
BRANCH  17  18
ATOM     18  S   UNL     1       5.711   4.670  15.946  0.00  0.00    +0.000 S 
ATOM     19  C   UNL     1       4.107   3.903  16.131  0.00  0.00    +0.000 C 
ATOM     20  O   UNL     1       5.614   5.720  14.954  0.00  0.00    +0.000 OA
ATOM     21  O   UNL     1       6.681   3.606  15.821  0.00  0.00    +0.000 OA
ENDBRANCH  17  18
BRANCH  17  22
ATOM     22  C   UNL     1       7.175   5.238  18.200  0.00  0.00    +0.000 C 
BRANCH  22  23
ATOM     23  C   UNL     1       7.847   6.591  18.475  0.00  0.00    +0.000 C 
BRANCH  23  25
ATOM     24  C   UNL     1       7.859   8.807  17.656  0.00  0.00    +0.000 C 
ATOM     25  O   UNL     1       7.763   7.428  17.322  0.00  0.00    +0.000 OA
ENDBRANCH  23  25
ENDBRANCH  22  23
ENDBRANCH  17  22
ENDBRANCH   1  17
TORSDOF 5
ENDMDL
