MODEL 1
REMARK VINA RESULT:      -7.9      0.000      0.000
REMARK  Name = 
REMARK  2 active torsions:
REMARK  status: ('A' for Active; 'I' for Inactive)
REMARK    1  A    between atoms: C_4  and  C_5
REMARK    2  A    between atoms: C_14  and  N_15
REMARK                            x       y       z     vdW  Elec       q    Type
REMARK                         _______ _______ _______ _____ _____    ______ ____
ROOT
ATOM      1  C   UNL     1      -1.071  11.902  22.200  0.00  0.00    +0.000 A 
ATOM      2  C   UNL     1      -0.640  12.412  20.971  0.00  0.00    +0.000 A 
ATOM      3  N   UNL     1       0.106  11.770  20.056  0.00  0.00    +0.000 NA
ATOM      4  C   UNL     1       0.462  10.511  20.390  0.00  0.00    +0.000 A 
ATOM      5  N   UNL     1       1.217   9.756  19.550  0.00  0.00    +0.000 NA
ATOM      6  C   UNL     1       1.436   8.561  20.048  0.00  0.00    +0.000 A 
ATOM      7  N   UNL     1       2.130   7.617  19.345  0.00  0.00    +0.000 N 
ATOM      8  C   UNL     1       2.912   8.133  18.212  0.00  0.00    +0.000 C 
ATOM      9  C   UNL     1       3.058   7.058  17.157  0.00  0.00    +0.000 C 
ATOM     10  C   UNL     1       3.655   5.747  17.693  0.00  0.00    +0.000 C 
ATOM     11  C   UNL     1       2.852   5.302  18.930  0.00  0.00    +0.000 C 
ATOM     12  C   UNL     1       2.610   6.390  19.974  0.00  0.00    +0.000 C 
ATOM     13  S   UNL     1       0.742   8.319  21.615  0.00  0.00    +0.000 S 
ATOM     14  C   UNL     1       0.096   9.904  21.585  0.00  0.00    +0.000 A 
ATOM     15  C   UNL     1      -0.681  10.592  22.520  0.00  0.00    +0.000 A 
ENDROOT
BRANCH   1  19
ATOM     16  C   UNL     1      -3.462  14.191  24.763  0.00  0.00    +0.000 A 
ATOM     17  N   UNL     1      -3.954  13.012  24.358  0.00  0.00    +0.000 NA
ATOM     18  C   UNL     1      -3.152  12.297  23.543  0.00  0.00    +0.000 A 
ATOM     19  C   UNL     1      -1.896  12.703  23.107  0.00  0.00    +0.000 A 
ATOM     20  C   UNL     1      -1.519  13.940  23.604  0.00  0.00    +0.000 A 
ATOM     21  N   UNL     1      -2.272  14.699  24.430  0.00  0.00    +0.000 NA
ENDBRANCH   1  19
BRANCH  10  22
ATOM     22  N   UNL     1       5.133   5.666  17.833  0.00  0.00    +0.000 NA
ATOM     23  C   UNL     1       5.801   6.761  17.110  0.00  0.00    +0.000 C 
ATOM     24  C   UNL     1       7.324   6.653  17.139  0.00  0.00    +0.000 C 
ATOM     25  C   UNL     1       7.827   6.587  18.572  0.00  0.00    +0.000 C 
ATOM     26  C   UNL     1       7.178   5.403  19.269  0.00  0.00    +0.000 C 
ATOM     27  C   UNL     1       5.652   5.486  19.189  0.00  0.00    +0.000 C 
ENDBRANCH  10  22
TORSDOF 2
ENDMDL
MODEL 2
REMARK VINA RESULT:      -7.9      1.749     10.328
REMARK  Name = 
REMARK  2 active torsions:
REMARK  status: ('A' for Active; 'I' for Inactive)
REMARK    1  A    between atoms: C_4  and  C_5
REMARK    2  A    between atoms: C_14  and  N_15
REMARK                            x       y       z     vdW  Elec       q    Type
REMARK                         _______ _______ _______ _____ _____    ______ ____
ROOT
ATOM      1  C   UNL     1       3.005   7.251  18.319  0.00  0.00    +0.000 A 
ATOM      2  C   UNL     1       2.489   8.207  17.438  0.00  0.00    +0.000 A 
ATOM      3  N   UNL     1       1.614   9.181  17.739  0.00  0.00    +0.000 NA
ATOM      4  C   UNL     1       1.211   9.210  19.027  0.00  0.00    +0.000 A 
ATOM      5  N   UNL     1       0.327  10.148  19.458  0.00  0.00    +0.000 NA
ATOM      6  C   UNL     1       0.080  10.018  20.741  0.00  0.00    +0.000 A 
ATOM      7  N   UNL     1      -0.742  10.891  21.396  0.00  0.00    +0.000 N 
ATOM      8  C   UNL     1      -1.596  11.714  20.528  0.00  0.00    +0.000 C 
ATOM      9  C   UNL     1      -1.917  13.023  21.216  0.00  0.00    +0.000 C 
ATOM     10  C   UNL     1      -2.545  12.849  22.609  0.00  0.00    +0.000 C 
ATOM     11  C   UNL     1      -1.653  11.908  23.442  0.00  0.00    +0.000 C 
ATOM     12  C   UNL     1      -1.237  10.616  22.742  0.00  0.00    +0.000 C 
ATOM     13  S   UNL     1       0.909   8.690  21.481  0.00  0.00    +0.000 S 
ATOM     14  C   UNL     1       1.653   8.309  19.987  0.00  0.00    +0.000 A 
ATOM     15  C   UNL     1       2.563   7.304  19.650  0.00  0.00    +0.000 A 
ENDROOT
BRANCH   1  19
ATOM     16  C   UNL     1       5.738   4.372  16.989  0.00  0.00    +0.000 A 
ATOM     17  N   UNL     1       5.654   5.507  16.283  0.00  0.00    +0.000 NA
ATOM     18  C   UNL     1       4.772   6.416  16.746  0.00  0.00    +0.000 A 
ATOM     19  C   UNL     1       3.968   6.243  17.867  0.00  0.00    +0.000 A 
ATOM     20  C   UNL     1       4.161   5.024  18.496  0.00  0.00    +0.000 A 
ATOM     21  N   UNL     1       5.034   4.078  18.087  0.00  0.00    +0.000 NA
ENDBRANCH   1  19
BRANCH  10  22
ATOM     22  N   UNL     1      -4.003  12.570  22.682  0.00  0.00    +0.000 NA
ATOM     23  C   UNL     1      -4.562  12.977  23.981  0.00  0.00    +0.000 C 
ATOM     24  C   UNL     1      -6.036  12.608  24.139  0.00  0.00    +0.000 C 
ATOM     25  C   UNL     1      -6.857  13.202  23.006  0.00  0.00    +0.000 C 
ATOM     26  C   UNL     1      -6.304  12.704  21.681  0.00  0.00    +0.000 C 
ATOM     27  C   UNL     1      -4.814  13.026  21.552  0.00  0.00    +0.000 C 
ENDBRANCH  10  22
TORSDOF 2
ENDMDL
MODEL 3
REMARK VINA RESULT:      -7.8      1.694     10.331
REMARK  Name = 
REMARK  2 active torsions:
REMARK  status: ('A' for Active; 'I' for Inactive)
REMARK    1  A    between atoms: C_4  and  C_5
REMARK    2  A    between atoms: C_14  and  N_15
REMARK                            x       y       z     vdW  Elec       q    Type
REMARK                         _______ _______ _______ _____ _____    ______ ____
ROOT
ATOM      1  C   UNL     1       2.654   7.238  18.533  0.00  0.00    +0.000 A 
ATOM      2  C   UNL     1       2.221   8.200  17.615  0.00  0.00    +0.000 A 
ATOM      3  N   UNL     1       1.433   9.257  17.875  0.00  0.00    +0.000 NA
ATOM      4  C   UNL     1       1.034   9.370  19.160  0.00  0.00    +0.000 A 
ATOM      5  N   UNL     1       0.234  10.396  19.552  0.00  0.00    +0.000 NA
ATOM      6  C   UNL     1      -0.023  10.337  20.838  0.00  0.00    +0.000 A 
ATOM      7  N   UNL     1      -0.767  11.302  21.456  0.00  0.00    +0.000 N 
ATOM      8  C   UNL     1      -1.548  12.160  20.555  0.00  0.00    +0.000 C 
ATOM      9  C   UNL     1      -1.756  13.518  21.191  0.00  0.00    +0.000 C 
ATOM     10  C   UNL     1      -2.395  13.452  22.587  0.00  0.00    +0.000 C 
ATOM     11  C   UNL     1      -1.587  12.472  23.459  0.00  0.00    +0.000 C 
ATOM     12  C   UNL     1      -1.283  11.122  22.811  0.00  0.00    +0.000 C 
ATOM     13  S   UNL     1       0.689   8.973  21.631  0.00  0.00    +0.000 S 
ATOM     14  C   UNL     1       1.397   8.472  20.155  0.00  0.00    +0.000 A 
ATOM     15  C   UNL     1       2.218   7.381  19.859  0.00  0.00    +0.000 A 
ENDROOT
BRANCH   1  19
ATOM     16  C   UNL     1       5.164   4.084  17.403  0.00  0.00    +0.000 A 
ATOM     17  N   UNL     1       4.289   3.846  18.389  0.00  0.00    +0.000 NA
ATOM     18  C   UNL     1       3.489   4.881  18.720  0.00  0.00    +0.000 A 
ATOM     19  C   UNL     1       3.527   6.136  18.123  0.00  0.00    +0.000 A 
ATOM     20  C   UNL     1       4.478   6.237  17.122  0.00  0.00    +0.000 A 
ATOM     21  N   UNL     1       5.302   5.236  16.740  0.00  0.00    +0.000 NA
ENDBRANCH   1  19
BRANCH  10  22
ATOM     22  N   UNL     1      -3.872  13.303  22.667  0.00  0.00    +0.000 NA
ATOM     23  C   UNL     1      -4.299  12.911  24.020  0.00  0.00    +0.000 C 
ATOM     24  C   UNL     1      -5.799  12.641  24.117  0.00  0.00    +0.000 C 
ATOM     25  C   UNL     1      -6.591  13.851  23.647  0.00  0.00    +0.000 C 
ATOM     26  C   UNL     1      -6.183  14.183  22.222  0.00  0.00    +0.000 C 
ATOM     27  C   UNL     1      -4.671  14.398  22.117  0.00  0.00    +0.000 C 
ENDBRANCH  10  22
TORSDOF 2
ENDMDL
MODEL 4
REMARK VINA RESULT:      -7.7      1.839     10.181
REMARK  Name = 
REMARK  2 active torsions:
REMARK  status: ('A' for Active; 'I' for Inactive)
REMARK    1  A    between atoms: C_4  and  C_5
REMARK    2  A    between atoms: C_14  and  N_15
REMARK                            x       y       z     vdW  Elec       q    Type
REMARK                         _______ _______ _______ _____ _____    ______ ____
ROOT
ATOM      1  C   UNL     1       2.603   7.223  18.692  0.00  0.00    +0.000 A 
ATOM      2  C   UNL     1       2.269   6.821  19.990  0.00  0.00    +0.000 A 
ATOM      3  N   UNL     1       1.519   7.504  20.871  0.00  0.00    +0.000 NA
ATOM      4  C   UNL     1       1.060   8.695  20.429  0.00  0.00    +0.000 A 
ATOM      5  N   UNL     1       0.290   9.482  21.225  0.00  0.00    +0.000 NA
ATOM      6  C   UNL     1      -0.068  10.583  20.606  0.00  0.00    +0.000 A 
ATOM      7  N   UNL     1      -0.891  11.495  21.203  0.00  0.00    +0.000 N 
ATOM      8  C   UNL     1      -1.027  11.353  22.660  0.00  0.00    +0.000 C 
ATOM      9  C   UNL     1      -2.373  11.885  23.104  0.00  0.00    +0.000 C 
ATOM     10  C   UNL     1      -2.640  13.332  22.660  0.00  0.00    +0.000 C 
ATOM     11  C   UNL     1      -2.396  13.440  21.142  0.00  0.00    +0.000 C 
ATOM     12  C   UNL     1      -1.085  12.832  20.649  0.00  0.00    +0.000 C 
ATOM     13  S   UNL     1       0.569  10.721  19.002  0.00  0.00    +0.000 S 
ATOM     14  C   UNL     1       1.332   9.197  19.163  0.00  0.00    +0.000 A 
ATOM     15  C   UNL     1       2.115   8.468  18.265  0.00  0.00    +0.000 A 
ENDROOT
BRANCH   1  19
ATOM     16  C   UNL     1       4.955   4.779  16.239  0.00  0.00    +0.000 A 
ATOM     17  N   UNL     1       4.000   4.181  16.962  0.00  0.00    +0.000 NA
ATOM     18  C   UNL     1       3.254   5.000  17.733  0.00  0.00    +0.000 A 
ATOM     19  C   UNL     1       3.422   6.377  17.822  0.00  0.00    +0.000 A 
ATOM     20  C   UNL     1       4.445   6.856  17.021  0.00  0.00    +0.000 A 
ATOM     21  N   UNL     1       5.220   6.089  16.222  0.00  0.00    +0.000 NA
ENDBRANCH   1  19
BRANCH  10  22
ATOM     22  N   UNL     1      -2.053  14.427  23.476  0.00  0.00    +0.000 NA
ATOM     23  C   UNL     1      -2.014  15.693  22.726  0.00  0.00    +0.000 C 
ATOM     24  C   UNL     1      -1.318  16.818  23.490  0.00  0.00    +0.000 C 
ATOM     25  C   UNL     1      -1.977  17.030  24.843  0.00  0.00    +0.000 C 
ATOM     26  C   UNL     1      -1.934  15.727  25.623  0.00  0.00    +0.000 C 
ATOM     27  C   UNL     1      -2.582  14.590  24.830  0.00  0.00    +0.000 C 
ENDBRANCH  10  22
TORSDOF 2
ENDMDL
MODEL 5
REMARK VINA RESULT:      -7.7      0.687      1.152
REMARK  Name = 
REMARK  2 active torsions:
REMARK  status: ('A' for Active; 'I' for Inactive)
REMARK    1  A    between atoms: C_4  and  C_5
REMARK    2  A    between atoms: C_14  and  N_15
REMARK                            x       y       z     vdW  Elec       q    Type
REMARK                         _______ _______ _______ _____ _____    ______ ____
ROOT
ATOM      1  C   UNL     1      -1.327  12.373  22.349  0.00  0.00    +0.000 A 
ATOM      2  C   UNL     1      -0.984  12.839  21.076  0.00  0.00    +0.000 A 
ATOM      3  N   UNL     1      -0.275  12.178  20.145  0.00  0.00    +0.000 NA
ATOM      4  C   UNL     1       0.134  10.943  20.510  0.00  0.00    +0.000 A 
ATOM      5  N   UNL     1       0.860  10.172  19.658  0.00  0.00    +0.000 NA
ATOM      6  C   UNL     1       1.141   9.006  20.192  0.00  0.00    +0.000 A 
ATOM      7  N   UNL     1       1.819   8.051  19.489  0.00  0.00    +0.000 N 
ATOM      8  C   UNL     1       2.517   8.536  18.290  0.00  0.00    +0.000 C 
ATOM      9  C   UNL     1       2.631   7.420  17.274  0.00  0.00    +0.000 C 
ATOM     10  C   UNL     1       3.296   6.149  17.827  0.00  0.00    +0.000 C 
ATOM     11  C   UNL     1       2.579   5.739  19.128  0.00  0.00    +0.000 C 
ATOM     12  C   UNL     1       2.369   6.865  20.139  0.00  0.00    +0.000 C 
ATOM     13  S   UNL     1       0.548   8.815  21.807  0.00  0.00    +0.000 S 
ATOM     14  C   UNL     1      -0.143  10.380  21.749  0.00  0.00    +0.000 A 
ATOM     15  C   UNL     1      -0.882  11.089  22.699  0.00  0.00    +0.000 A 
ENDROOT
BRANCH   1  19
ATOM     16  C   UNL     1      -3.625  14.713  24.951  0.00  0.00    +0.000 A 
ATOM     17  N   UNL     1      -4.156  13.555  24.540  0.00  0.00    +0.000 NA
ATOM     18  C   UNL     1      -3.384  12.822  23.711  0.00  0.00    +0.000 A 
ATOM     19  C   UNL     1      -2.120  13.191  23.270  0.00  0.00    +0.000 A 
ATOM     20  C   UNL     1      -1.699  14.411  23.774  0.00  0.00    +0.000 A 
ATOM     21  N   UNL     1      -2.421  15.186  24.613  0.00  0.00    +0.000 NA
ENDBRANCH   1  19
BRANCH  10  22
ATOM     22  N   UNL     1       4.781   6.112  17.882  0.00  0.00    +0.000 NA
ATOM     23  C   UNL     1       5.255   5.316  19.026  0.00  0.00    +0.000 C 
ATOM     24  C   UNL     1       6.774   5.342  19.182  0.00  0.00    +0.000 C 
ATOM     25  C   UNL     1       7.450   4.876  17.902  0.00  0.00    +0.000 C 
ATOM     26  C   UNL     1       6.999   5.764  16.755  0.00  0.00    +0.000 C 
ATOM     27  C   UNL     1       5.474   5.780  16.637  0.00  0.00    +0.000 C 
ENDBRANCH  10  22
TORSDOF 2
ENDMDL
MODEL 6
REMARK VINA RESULT:      -7.6      1.833     10.113
REMARK  Name = 
REMARK  2 active torsions:
REMARK  status: ('A' for Active; 'I' for Inactive)
REMARK    1  A    between atoms: C_4  and  C_5
REMARK    2  A    between atoms: C_14  and  N_15
REMARK                            x       y       z     vdW  Elec       q    Type
REMARK                         _______ _______ _______ _____ _____    ______ ____
ROOT
ATOM      1  C   UNL     1       2.934   6.873  18.430  0.00  0.00    +0.000 A 
ATOM      2  C   UNL     1       2.558   6.438  19.705  0.00  0.00    +0.000 A 
ATOM      3  N   UNL     1       1.828   7.123  20.601  0.00  0.00    +0.000 NA
ATOM      4  C   UNL     1       1.439   8.353  20.201  0.00  0.00    +0.000 A 
ATOM      5  N   UNL     1       0.696   9.147  21.017  0.00  0.00    +0.000 NA
ATOM      6  C   UNL     1       0.406  10.288  20.437  0.00  0.00    +0.000 A 
ATOM      7  N   UNL     1      -0.379  11.218  21.058  0.00  0.00    +0.000 N 
ATOM      8  C   UNL     1      -0.547  11.026  22.505  0.00  0.00    +0.000 C 
ATOM      9  C   UNL     1      -1.872  11.608  22.950  0.00  0.00    +0.000 C 
ATOM     10  C   UNL     1      -2.057  13.084  22.561  0.00  0.00    +0.000 C 
ATOM     11  C   UNL     1      -1.782  13.239  21.053  0.00  0.00    +0.000 C 
ATOM     12  C   UNL     1      -0.495  12.584  20.555  0.00  0.00    +0.000 C 
ATOM     13  S   UNL     1       1.077  10.456  18.850  0.00  0.00    +0.000 S 
ATOM     14  C   UNL     1       1.758   8.890  18.961  0.00  0.00    +0.000 A 
ATOM     15  C   UNL     1       2.519   8.157  18.046  0.00  0.00    +0.000 A 
ENDROOT
BRANCH   1  19
ATOM     16  C   UNL     1       5.175   4.458  15.848  0.00  0.00    +0.000 A 
ATOM     17  N   UNL     1       5.399   5.777  15.799  0.00  0.00    +0.000 NA
ATOM     18  C   UNL     1       4.667   6.524  16.651  0.00  0.00    +0.000 A 
ATOM     19  C   UNL     1       3.724   6.020  17.539  0.00  0.00    +0.000 A 
ATOM     20  C   UNL     1       3.598   4.642  17.480  0.00  0.00    +0.000 A 
ATOM     21  N   UNL     1       4.307   3.840  16.655  0.00  0.00    +0.000 NA
ENDBRANCH   1  19
BRANCH  10  22
ATOM     22  N   UNL     1      -1.428  14.114  23.429  0.00  0.00    +0.000 NA
ATOM     23  C   UNL     1      -0.914  15.242  22.636  0.00  0.00    +0.000 C 
ATOM     24  C   UNL     1      -0.163  16.271  23.480  0.00  0.00    +0.000 C 
ATOM     25  C   UNL     1      -1.046  16.782  24.607  0.00  0.00    +0.000 C 
ATOM     26  C   UNL     1      -1.500  15.603  25.452  0.00  0.00    +0.000 C 
ATOM     27  C   UNL     1      -2.201  14.548  24.593  0.00  0.00    +0.000 C 
ENDBRANCH  10  22
TORSDOF 2
ENDMDL
MODEL 7
REMARK VINA RESULT:      -7.6      1.088      1.652
REMARK  Name = 
REMARK  2 active torsions:
REMARK  status: ('A' for Active; 'I' for Inactive)
REMARK    1  A    between atoms: C_4  and  C_5
REMARK    2  A    between atoms: C_14  and  N_15
REMARK                            x       y       z     vdW  Elec       q    Type
REMARK                         _______ _______ _______ _____ _____    ______ ____
ROOT
ATOM      1  C   UNL     1      -1.695  12.857  22.132  0.00  0.00    +0.000 A 
ATOM      2  C   UNL     1      -1.385  13.199  20.812  0.00  0.00    +0.000 A 
ATOM      3  N   UNL     1      -0.671  12.465  19.943  0.00  0.00    +0.000 NA
ATOM      4  C   UNL     1      -0.220  11.287  20.425  0.00  0.00    +0.000 A 
ATOM      5  N   UNL     1       0.515  10.451  19.644  0.00  0.00    +0.000 NA
ATOM      6  C   UNL     1       0.838   9.355  20.290  0.00  0.00    +0.000 A 
ATOM      7  N   UNL     1       1.533   8.351  19.677  0.00  0.00    +0.000 N 
ATOM      8  C   UNL     1       2.200   8.730  18.423  0.00  0.00    +0.000 C 
ATOM      9  C   UNL     1       2.331   7.518  17.525  0.00  0.00    +0.000 C 
ATOM     10  C   UNL     1       3.040   6.330  18.195  0.00  0.00    +0.000 C 
ATOM     11  C   UNL     1       2.355   6.037  19.543  0.00  0.00    +0.000 C 
ATOM     12  C   UNL     1       2.127   7.254  20.436  0.00  0.00    +0.000 C 
ATOM     13  S   UNL     1       0.274   9.316  21.926  0.00  0.00    +0.000 S 
ATOM     14  C   UNL     1      -0.463  10.847  21.720  0.00  0.00    +0.000 A 
ATOM     15  C   UNL     1      -1.208  11.629  22.605  0.00  0.00    +0.000 A 
ENDROOT
BRANCH   1  19
ATOM     16  C   UNL     1      -3.982  15.366  24.582  0.00  0.00    +0.000 A 
ATOM     17  N   UNL     1      -2.719  15.130  24.959  0.00  0.00    +0.000 NA
ATOM     18  C   UNL     1      -2.008  14.327  24.141  0.00  0.00    +0.000 A 
ATOM     19  C   UNL     1      -2.498  13.745  22.978  0.00  0.00    +0.000 A 
ATOM     20  C   UNL     1      -3.817  14.076  22.714  0.00  0.00    +0.000 A 
ATOM     21  N   UNL     1      -4.577  14.881  23.488  0.00  0.00    +0.000 NA
ENDBRANCH   1  19
BRANCH  10  22
ATOM     22  N   UNL     1       4.527   6.340  18.227  0.00  0.00    +0.000 NA
ATOM     23  C   UNL     1       5.049   5.319  19.150  0.00  0.00    +0.000 C 
ATOM     24  C   UNL     1       6.569   5.368  19.296  0.00  0.00    +0.000 C 
ATOM     25  C   UNL     1       7.239   5.239  17.937  0.00  0.00    +0.000 C 
ATOM     26  C   UNL     1       6.736   6.350  17.031  0.00  0.00    +0.000 C 
ATOM     27  C   UNL     1       5.210   6.332  16.933  0.00  0.00    +0.000 C 
ENDBRANCH  10  22
TORSDOF 2
ENDMDL
MODEL 8
REMARK VINA RESULT:      -7.6      1.816     10.038
REMARK  Name = 
REMARK  2 active torsions:
REMARK  status: ('A' for Active; 'I' for Inactive)
REMARK    1  A    between atoms: C_4  and  C_5
REMARK    2  A    between atoms: C_14  and  N_15
REMARK                            x       y       z     vdW  Elec       q    Type
REMARK                         _______ _______ _______ _____ _____    ______ ____
ROOT
ATOM      1  C   UNL     1       2.720   6.946  18.912  0.00  0.00    +0.000 A 
ATOM      2  C   UNL     1       2.510   7.922  17.933  0.00  0.00    +0.000 A 
ATOM      3  N   UNL     1       1.812   9.061  18.075  0.00  0.00    +0.000 NA
ATOM      4  C   UNL     1       1.270   9.250  19.298  0.00  0.00    +0.000 A 
ATOM      5  N   UNL     1       0.540  10.364  19.570  0.00  0.00    +0.000 NA
ATOM      6  C   UNL     1       0.120  10.367  20.814  0.00  0.00    +0.000 A 
ATOM      7  N   UNL     1      -0.589  11.420  21.319  0.00  0.00    +0.000 N 
ATOM      8  C   UNL     1      -1.156  12.330  20.313  0.00  0.00    +0.000 C 
ATOM      9  C   UNL     1      -1.297  13.718  20.899  0.00  0.00    +0.000 C 
ATOM     10  C   UNL     1      -2.109  13.757  22.203  0.00  0.00    +0.000 C 
ATOM     11  C   UNL     1      -1.525  12.722  23.184  0.00  0.00    +0.000 C 
ATOM     12  C   UNL     1      -1.288  11.332  22.599  0.00  0.00    +0.000 C 
ATOM     13  S   UNL     1       0.578   8.958  21.710  0.00  0.00    +0.000 S 
ATOM     14  C   UNL     1       1.408   8.347  20.344  0.00  0.00    +0.000 A 
ATOM     15  C   UNL     1       2.139   7.169  20.170  0.00  0.00    +0.000 A 
ENDROOT
BRANCH   1  19
ATOM     16  C   UNL     1       4.957   3.499  18.115  0.00  0.00    +0.000 A 
ATOM     17  N   UNL     1       3.935   3.768  17.292  0.00  0.00    +0.000 NA
ATOM     18  C   UNL     1       3.243   4.891  17.572  0.00  0.00    +0.000 A 
ATOM     19  C   UNL     1       3.515   5.748  18.632  0.00  0.00    +0.000 A 
ATOM     20  C   UNL     1       4.597   5.345  19.398  0.00  0.00    +0.000 A 
ATOM     21  N   UNL     1       5.335   4.237  19.163  0.00  0.00    +0.000 NA
ENDBRANCH   1  19
BRANCH  10  22
ATOM     22  N   UNL     1      -3.592  13.763  22.096  0.00  0.00    +0.000 NA
ATOM     23  C   UNL     1      -4.033  13.358  20.751  0.00  0.00    +0.000 C 
ATOM     24  C   UNL     1      -5.546  13.455  20.565  0.00  0.00    +0.000 C 
ATOM     25  C   UNL     1      -6.267  12.636  21.623  0.00  0.00    +0.000 C 
ATOM     26  C   UNL     1      -5.849  13.127  22.998  0.00  0.00    +0.000 C 
ATOM     27  C   UNL     1      -4.328  13.081  23.160  0.00  0.00    +0.000 C 
ENDBRANCH  10  22
TORSDOF 2
ENDMDL
MODEL 9
REMARK VINA RESULT:      -7.5      1.894     10.154
REMARK  Name = 
REMARK  2 active torsions:
REMARK  status: ('A' for Active; 'I' for Inactive)
REMARK    1  A    between atoms: C_4  and  C_5
REMARK    2  A    between atoms: C_14  and  N_15
REMARK                            x       y       z     vdW  Elec       q    Type
REMARK                         _______ _______ _______ _____ _____    ______ ____
ROOT
ATOM      1  C   UNL     1       2.366   7.616  18.799  0.00  0.00    +0.000 A 
ATOM      2  C   UNL     1       1.957   8.531  17.823  0.00  0.00    +0.000 A 
ATOM      3  N   UNL     1       1.165   9.600  18.011  0.00  0.00    +0.000 NA
ATOM      4  C   UNL     1       0.736   9.778  19.279  0.00  0.00    +0.000 A 
ATOM      5  N   UNL     1      -0.071  10.824  19.600  0.00  0.00    +0.000 NA
ATOM      6  C   UNL     1      -0.358  10.830  20.881  0.00  0.00    +0.000 A 
ATOM      7  N   UNL     1      -1.115  11.825  21.432  0.00  0.00    +0.000 N 
ATOM      8  C   UNL     1      -1.873  12.637  20.470  0.00  0.00    +0.000 C 
ATOM      9  C   UNL     1      -2.093  14.026  21.032  0.00  0.00    +0.000 C 
ATOM     10  C   UNL     1      -2.765  14.031  22.414  0.00  0.00    +0.000 C 
ATOM     11  C   UNL     1      -1.980  13.095  23.353  0.00  0.00    +0.000 C 
ATOM     12  C   UNL     1      -1.663  11.714  22.781  0.00  0.00    +0.000 C 
ATOM     13  S   UNL     1       0.332   9.507  21.758  0.00  0.00    +0.000 S 
ATOM     14  C   UNL     1       1.074   8.931  20.327  0.00  0.00    +0.000 A 
ATOM     15  C   UNL     1       1.899   7.826  20.106  0.00  0.00    +0.000 A 
ENDROOT
BRANCH   1  19
ATOM     16  C   UNL     1       4.895   4.407  17.889  0.00  0.00    +0.000 A 
ATOM     17  N   UNL     1       3.995   4.219  18.862  0.00  0.00    +0.000 NA
ATOM     18  C   UNL     1       3.190   5.269  19.122  0.00  0.00    +0.000 A 
ATOM     19  C   UNL     1       3.246   6.494  18.466  0.00  0.00    +0.000 A 
ATOM     20  C   UNL     1       4.224   6.545  17.486  0.00  0.00    +0.000 A 
ATOM     21  N   UNL     1       5.054   5.525  17.174  0.00  0.00    +0.000 NA
ENDBRANCH   1  19
BRANCH  10  22
ATOM     22  N   UNL     1      -4.244  13.886  22.466  0.00  0.00    +0.000 NA
ATOM     23  C   UNL     1      -4.798  13.569  21.140  0.00  0.00    +0.000 C 
ATOM     24  C   UNL     1      -6.324  13.520  21.127  0.00  0.00    +0.000 C 
ATOM     25  C   UNL     1      -6.834  12.527  22.160  0.00  0.00    +0.000 C 
ATOM     26  C   UNL     1      -6.307  12.924  23.528  0.00  0.00    +0.000 C 
ATOM     27  C   UNL     1      -4.781  13.028  23.522  0.00  0.00    +0.000 C 
ENDBRANCH  10  22
TORSDOF 2
ENDMDL
