MODEL 1
REMARK VINA RESULT:      -8.9      0.000      0.000
REMARK  Name = 
REMARK  4 active torsions:
REMARK  status: ('A' for Active; 'I' for Inactive)
REMARK    1  A    between atoms: C_2  and  C_11
REMARK    2  A    between atoms: N_3  and  C_4
REMARK    3  A    between atoms: C_4  and  C_5
REMARK    4  A    between atoms: C_13  and  C_14
REMARK                            x       y       z     vdW  Elec       q    Type
REMARK                         _______ _______ _______ _____ _____    ______ ____
ROOT
ATOM      1  C   UNL     1       4.213   5.254  18.952  0.00  0.00    +0.000 A 
ATOM      2  C   UNL     1       3.751   6.549  18.701  0.00  0.00    +0.000 A 
ATOM      3  C   UNL     1       2.502   6.924  19.165  0.00  0.00    +0.000 A 
ATOM      4  N   UNL     1       1.682   6.028  19.759  0.00  0.00    +0.000 NA
ATOM      5  C   UNL     1       2.116   4.777  19.999  0.00  0.00    +0.000 A 
ATOM      6  C   UNL     1       1.239   3.888  20.606  0.00  0.00    +0.000 A 
ATOM      7  C   UNL     1       1.614   2.582  20.936  0.00  0.00    +0.000 A 
ATOM      8  C   UNL     1       2.916   2.169  20.710  0.00  0.00    +0.000 A 
ATOM      9  C   UNL     1       3.814   3.043  20.103  0.00  0.00    +0.000 A 
ATOM     10  C   UNL     1       3.414   4.337  19.675  0.00  0.00    +0.000 A 
ENDROOT
BRANCH   3  11
ATOM     11  C   UNL     1       1.995   8.309  19.069  0.00  0.00    +0.000 A 
ATOM     12  C   UNL     1       2.230   9.092  17.929  0.00  0.00    +0.000 A 
ATOM     13  C   UNL     1       1.723  10.381  17.873  0.00  0.00    +0.000 A 
ATOM     14  N   UNL     1       1.003  10.951  18.859  0.00  0.00    +0.000 NA
ATOM     15  C   UNL     1       0.767  10.188  19.945  0.00  0.00    +0.000 A 
ATOM     16  C   UNL     1       1.229   8.891  20.093  0.00  0.00    +0.000 A 
ENDBRANCH   3  11
BRANCH   1  18
ATOM     17  O   UNL     1       6.459   4.606  19.202  0.00  0.00    +0.000 OA
ATOM     18  C   UNL     1       5.572   4.955  18.428  0.00  0.00    +0.000 C 
ATOM     19  N   UNL     1       5.781   5.148  17.085  0.00  0.00    +0.000 N 
ATOM     20  H   UNL     1       5.121   5.695  16.545  0.00  0.00    +0.000 HD
BRANCH  19  21
ATOM     21  C   UNL     1       7.083   4.940  16.485  0.00  0.00    +0.000 C 
BRANCH  21  22
ATOM     22  C   UNL     1       6.969   4.722  14.997  0.00  0.00    +0.000 A 
ATOM     23  C   UNL     1       6.042   3.813  14.492  0.00  0.00    +0.000 A 
ATOM     24  C   UNL     1       5.990   3.606  13.117  0.00  0.00    +0.000 A 
ATOM     25  C   UNL     1       6.860   4.302  12.290  0.00  0.00    +0.000 A 
ATOM     26  C   UNL     1       7.762   5.178  12.874  0.00  0.00    +0.000 A 
ATOM     27  N   UNL     1       7.841   5.398  14.205  0.00  0.00    +0.000 NA
ENDBRANCH  21  22
ENDBRANCH  19  21
ENDBRANCH   1  18
TORSDOF 4
ENDMDL
MODEL 2
REMARK VINA RESULT:      -8.8      0.984      1.085
REMARK  Name = 
REMARK  4 active torsions:
REMARK  status: ('A' for Active; 'I' for Inactive)
REMARK    1  A    between atoms: C_2  and  C_11
REMARK    2  A    between atoms: N_3  and  C_4
REMARK    3  A    between atoms: C_4  and  C_5
REMARK    4  A    between atoms: C_13  and  C_14
REMARK                            x       y       z     vdW  Elec       q    Type
REMARK                         _______ _______ _______ _____ _____    ______ ____
ROOT
ATOM      1  C   UNL     1       4.146   5.304  18.739  0.00  0.00    +0.000 A 
ATOM      2  C   UNL     1       3.634   6.569  19.036  0.00  0.00    +0.000 A 
ATOM      3  C   UNL     1       2.342   6.679  19.522  0.00  0.00    +0.000 A 
ATOM      4  N   UNL     1       1.536   5.597  19.608  0.00  0.00    +0.000 NA
ATOM      5  C   UNL     1       2.019   4.375  19.318  0.00  0.00    +0.000 A 
ATOM      6  C   UNL     1       1.156   3.292  19.415  0.00  0.00    +0.000 A 
ATOM      7  C   UNL     1       1.578   1.981  19.178  0.00  0.00    +0.000 A 
ATOM      8  C   UNL     1       2.911   1.734  18.895  0.00  0.00    +0.000 A 
ATOM      9  C   UNL     1       3.796   2.804  18.792  0.00  0.00    +0.000 A 
ATOM     10  C   UNL     1       3.355   4.147  18.934  0.00  0.00    +0.000 A 
ENDROOT
BRANCH   3  11
ATOM     11  C   UNL     1       1.771   7.959  19.993  0.00  0.00    +0.000 A 
ATOM     12  C   UNL     1       1.497   9.006  19.102  0.00  0.00    +0.000 A 
ATOM     13  C   UNL     1       0.947  10.183  19.584  0.00  0.00    +0.000 A 
ATOM     14  N   UNL     1       0.648  10.400  20.880  0.00  0.00    +0.000 NA
ATOM     15  C   UNL     1       0.898   9.384  21.729  0.00  0.00    +0.000 A 
ATOM     16  C   UNL     1       1.443   8.170  21.343  0.00  0.00    +0.000 A 
ENDBRANCH   3  11
BRANCH   1  18
ATOM     17  O   UNL     1       6.476   5.428  19.032  0.00  0.00    +0.000 OA
ATOM     18  C   UNL     1       5.548   5.291  18.240  0.00  0.00    +0.000 C 
ATOM     19  N   UNL     1       5.729   5.183  16.884  0.00  0.00    +0.000 N 
ATOM     20  H   UNL     1       4.952   5.354  16.257  0.00  0.00    +0.000 HD
BRANCH  19  21
ATOM     21  C   UNL     1       7.049   5.218  16.292  0.00  0.00    +0.000 C 
BRANCH  21  22
ATOM     22  C   UNL     1       6.998   4.878  14.824  0.00  0.00    +0.000 A 
ATOM     23  C   UNL     1       6.115   3.906  14.360  0.00  0.00    +0.000 A 
ATOM     24  C   UNL     1       6.121   3.589  13.006  0.00  0.00    +0.000 A 
ATOM     25  C   UNL     1       7.004   4.240  12.157  0.00  0.00    +0.000 A 
ATOM     26  C   UNL     1       7.860   5.186  12.701  0.00  0.00    +0.000 A 
ATOM     27  N   UNL     1       7.883   5.514  14.011  0.00  0.00    +0.000 NA
ENDBRANCH  21  22
ENDBRANCH  19  21
ENDBRANCH   1  18
TORSDOF 4
ENDMDL
MODEL 3
REMARK VINA RESULT:      -8.6      1.617      1.735
REMARK  Name = 
REMARK  4 active torsions:
REMARK  status: ('A' for Active; 'I' for Inactive)
REMARK    1  A    between atoms: C_2  and  C_11
REMARK    2  A    between atoms: N_3  and  C_4
REMARK    3  A    between atoms: C_4  and  C_5
REMARK    4  A    between atoms: C_13  and  C_14
REMARK                            x       y       z     vdW  Elec       q    Type
REMARK                         _______ _______ _______ _____ _____    ______ ____
ROOT
ATOM      1  C   UNL     1       3.955   5.872  17.509  0.00  0.00    +0.000 A 
ATOM      2  C   UNL     1       3.417   7.044  18.047  0.00  0.00    +0.000 A 
ATOM      3  C   UNL     1       2.290   6.965  18.848  0.00  0.00    +0.000 A 
ATOM      4  N   UNL     1       1.643   5.792  19.025  0.00  0.00    +0.000 NA
ATOM      5  C   UNL     1       2.151   4.659  18.506  0.00  0.00    +0.000 A 
ATOM      6  C   UNL     1       1.451   3.477  18.709  0.00  0.00    +0.000 A 
ATOM      7  C   UNL     1       1.923   2.246  18.246  0.00  0.00    +0.000 A 
ATOM      8  C   UNL     1       3.154   2.179  17.617  0.00  0.00    +0.000 A 
ATOM      9  C   UNL     1       3.874   3.351  17.402  0.00  0.00    +0.000 A 
ATOM     10  C   UNL     1       3.358   4.618  17.780  0.00  0.00    +0.000 A 
ENDROOT
BRANCH   3  11
ATOM     11  C   UNL     1       1.739   8.132  19.570  0.00  0.00    +0.000 A 
ATOM     12  C   UNL     1       1.411   9.317  18.896  0.00  0.00    +0.000 A 
ATOM     13  C   UNL     1       0.882  10.380  19.609  0.00  0.00    +0.000 A 
ATOM     14  N   UNL     1       0.654  10.359  20.936  0.00  0.00    +0.000 NA
ATOM     15  C   UNL     1       0.956   9.212  21.576  0.00  0.00    +0.000 A 
ATOM     16  C   UNL     1       1.485   8.095  20.951  0.00  0.00    +0.000 A 
ENDBRANCH   3  11
BRANCH   1  18
ATOM     17  O   UNL     1       5.199   6.946  15.827  0.00  0.00    +0.000 OA
ATOM     18  C   UNL     1       5.174   6.060  16.677  0.00  0.00    +0.000 C 
ATOM     19  N   UNL     1       6.206   5.175  16.869  0.00  0.00    +0.000 N 
ATOM     20  H   UNL     1       6.040   4.307  17.364  0.00  0.00    +0.000 HD
BRANCH  19  21
ATOM     21  C   UNL     1       7.412   5.236  16.071  0.00  0.00    +0.000 C 
BRANCH  21  22
ATOM     22  C   UNL     1       7.143   4.834  14.643  0.00  0.00    +0.000 A 
ATOM     23  C   UNL     1       6.231   3.820  14.361  0.00  0.00    +0.000 A 
ATOM     24  C   UNL     1       6.036   3.446  13.036  0.00  0.00    +0.000 A 
ATOM     25  C   UNL     1       6.754   4.085  12.034  0.00  0.00    +0.000 A 
ATOM     26  C   UNL     1       7.652   5.075  12.401  0.00  0.00    +0.000 A 
ATOM     27  N   UNL     1       7.869   5.458  13.678  0.00  0.00    +0.000 NA
ENDBRANCH  21  22
ENDBRANCH  19  21
ENDBRANCH   1  18
TORSDOF 4
ENDMDL
MODEL 4
REMARK VINA RESULT:      -8.5      0.669      1.126
REMARK  Name = 
REMARK  4 active torsions:
REMARK  status: ('A' for Active; 'I' for Inactive)
REMARK    1  A    between atoms: C_2  and  C_11
REMARK    2  A    between atoms: N_3  and  C_4
REMARK    3  A    between atoms: C_4  and  C_5
REMARK    4  A    between atoms: C_13  and  C_14
REMARK                            x       y       z     vdW  Elec       q    Type
REMARK                         _______ _______ _______ _____ _____    ______ ____
ROOT
ATOM      1  C   UNL     1       4.035   5.523  19.233  0.00  0.00    +0.000 A 
ATOM      2  C   UNL     1       3.493   6.810  19.183  0.00  0.00    +0.000 A 
ATOM      3  C   UNL     1       2.234   7.035  19.714  0.00  0.00    +0.000 A 
ATOM      4  N   UNL     1       1.481   6.012  20.177  0.00  0.00    +0.000 NA
ATOM      5  C   UNL     1       1.992   4.769  20.224  0.00  0.00    +0.000 A 
ATOM      6  C   UNL     1       1.183   3.747  20.702  0.00  0.00    +0.000 A 
ATOM      7  C   UNL     1       1.642   2.433  20.829  0.00  0.00    +0.000 A 
ATOM      8  C   UNL     1       2.960   2.138  20.529  0.00  0.00    +0.000 A 
ATOM      9  C   UNL     1       3.792   3.146  20.047  0.00  0.00    +0.000 A 
ATOM     10  C   UNL     1       3.307   4.462  19.820  0.00  0.00    +0.000 A 
ENDROOT
BRANCH   3  11
ATOM     11  C   UNL     1       1.644   8.386  19.831  0.00  0.00    +0.000 A 
ATOM     12  C   UNL     1       1.249   8.902  21.073  0.00  0.00    +0.000 A 
ATOM     13  C   UNL     1       0.715  10.179  21.140  0.00  0.00    +0.000 A 
ATOM     14  N   UNL     1       0.545  10.981  20.071  0.00  0.00    +0.000 NA
ATOM     15  C   UNL     1       0.942  10.486  18.882  0.00  0.00    +0.000 A 
ATOM     16  C   UNL     1       1.487   9.224  18.714  0.00  0.00    +0.000 A 
ENDBRANCH   3  11
BRANCH   1  18
ATOM     17  O   UNL     1       6.339   5.078  19.377  0.00  0.00    +0.000 OA
ATOM     18  C   UNL     1       5.397   5.389  18.652  0.00  0.00    +0.000 C 
ATOM     19  N   UNL     1       5.543   5.686  17.320  0.00  0.00    +0.000 N 
ATOM     20  H   UNL     1       4.816   6.200  16.836  0.00  0.00    +0.000 HD
BRANCH  19  21
ATOM     21  C   UNL     1       6.836   5.642  16.672  0.00  0.00    +0.000 C 
BRANCH  21  22
ATOM     22  C   UNL     1       6.726   5.099  15.269  0.00  0.00    +0.000 A 
ATOM     23  C   UNL     1       5.677   4.248  14.928  0.00  0.00    +0.000 A 
ATOM     24  C   UNL     1       5.627   3.734  13.637  0.00  0.00    +0.000 A 
ATOM     25  C   UNL     1       6.618   4.076  12.727  0.00  0.00    +0.000 A 
ATOM     26  C   UNL     1       7.634   4.918  13.151  0.00  0.00    +0.000 A 
ATOM     27  N   UNL     1       7.715   5.431  14.399  0.00  0.00    +0.000 NA
ENDBRANCH  21  22
ENDBRANCH  19  21
ENDBRANCH   1  18
TORSDOF 4
ENDMDL
MODEL 5
REMARK VINA RESULT:      -8.2      1.039      1.592
REMARK  Name = 
REMARK  4 active torsions:
REMARK  status: ('A' for Active; 'I' for Inactive)
REMARK    1  A    between atoms: C_2  and  C_11
REMARK    2  A    between atoms: N_3  and  C_4
REMARK    3  A    between atoms: C_4  and  C_5
REMARK    4  A    between atoms: C_13  and  C_14
REMARK                            x       y       z     vdW  Elec       q    Type
REMARK                         _______ _______ _______ _____ _____    ______ ____
ROOT
ATOM      1  C   UNL     1       4.222   5.064  18.159  0.00  0.00    +0.000 A 
ATOM      2  C   UNL     1       3.761   6.381  18.239  0.00  0.00    +0.000 A 
ATOM      3  C   UNL     1       2.501   6.627  18.757  0.00  0.00    +0.000 A 
ATOM      4  N   UNL     1       1.671   5.610  19.081  0.00  0.00    +0.000 NA
ATOM      5  C   UNL     1       2.103   4.339  19.002  0.00  0.00    +0.000 A 
ATOM      6  C   UNL     1       1.217   3.325  19.340  0.00  0.00    +0.000 A 
ATOM      7  C   UNL     1       1.589   1.978  19.331  0.00  0.00    +0.000 A 
ATOM      8  C   UNL     1       2.897   1.634  19.036  0.00  0.00    +0.000 A 
ATOM      9  C   UNL     1       3.805   2.632  18.694  0.00  0.00    +0.000 A 
ATOM     10  C   UNL     1       3.410   3.993  18.603  0.00  0.00    +0.000 A 
ENDROOT
BRANCH   3  11
ATOM     11  C   UNL     1       1.992   7.992  19.008  0.00  0.00    +0.000 A 
ATOM     12  C   UNL     1       1.484   8.360  20.263  0.00  0.00    +0.000 A 
ATOM     13  C   UNL     1       1.032   9.654  20.460  0.00  0.00    +0.000 A 
ATOM     14  N   UNL     1       1.045  10.610  19.511  0.00  0.00    +0.000 NA
ATOM     15  C   UNL     1       1.549  10.256  18.313  0.00  0.00    +0.000 A 
ATOM     16  C   UNL     1       2.027   8.989  18.019  0.00  0.00    +0.000 A 
ENDBRANCH   3  11
BRANCH   1  18
ATOM     17  O   UNL     1       6.486   4.453  18.315  0.00  0.00    +0.000 OA
ATOM     18  C   UNL     1       5.593   4.906  17.605  0.00  0.00    +0.000 C 
ATOM     19  N   UNL     1       5.803   5.342  16.320  0.00  0.00    +0.000 N 
ATOM     20  H   UNL     1       5.128   5.955  15.879  0.00  0.00    +0.000 HD
BRANCH  19  21
ATOM     21  C   UNL     1       7.114   5.286  15.708  0.00  0.00    +0.000 C 
BRANCH  21  22
ATOM     22  C   UNL     1       7.034   4.768  14.294  0.00  0.00    +0.000 A 
ATOM     23  C   UNL     1       7.797   5.356  13.288  0.00  0.00    +0.000 A 
ATOM     24  C   UNL     1       7.669   4.881  11.988  0.00  0.00    +0.000 A 
ATOM     25  C   UNL     1       6.788   3.842  11.725  0.00  0.00    +0.000 A 
ATOM     26  C   UNL     1       6.056   3.320  12.780  0.00  0.00    +0.000 A 
ATOM     27  N   UNL     1       6.152   3.762  14.053  0.00  0.00    +0.000 NA
ENDBRANCH  21  22
ENDBRANCH  19  21
ENDBRANCH   1  18
TORSDOF 4
ENDMDL
MODEL 6
REMARK VINA RESULT:      -8.1      1.155      1.426
REMARK  Name = 
REMARK  4 active torsions:
REMARK  status: ('A' for Active; 'I' for Inactive)
REMARK    1  A    between atoms: C_2  and  C_11
REMARK    2  A    between atoms: N_3  and  C_4
REMARK    3  A    between atoms: C_4  and  C_5
REMARK    4  A    between atoms: C_13  and  C_14
REMARK                            x       y       z     vdW  Elec       q    Type
REMARK                         _______ _______ _______ _____ _____    ______ ____
ROOT
ATOM      1  C   UNL     1       4.178   5.223  18.325  0.00  0.00    +0.000 A 
ATOM      2  C   UNL     1       3.667   6.499  18.579  0.00  0.00    +0.000 A 
ATOM      3  C   UNL     1       2.410   6.623  19.147  0.00  0.00    +0.000 A 
ATOM      4  N   UNL     1       1.630   5.539  19.355  0.00  0.00    +0.000 NA
ATOM      5  C   UNL     1       2.111   4.308  19.107  0.00  0.00    +0.000 A 
ATOM      6  C   UNL     1       1.274   3.223  19.330  0.00  0.00    +0.000 A 
ATOM      7  C   UNL     1       1.700   1.905  19.145  0.00  0.00    +0.000 A 
ATOM      8  C   UNL     1       3.013   1.656  18.784  0.00  0.00    +0.000 A 
ATOM      9  C   UNL     1       3.872   2.728  18.555  0.00  0.00    +0.000 A 
ATOM     10  C   UNL     1       3.421   4.071  18.645  0.00  0.00    +0.000 A 
ENDROOT
BRANCH   3  11
ATOM     11  C   UNL     1       1.853   7.923  19.578  0.00  0.00    +0.000 A 
ATOM     12  C   UNL     1       1.683   8.979  18.672  0.00  0.00    +0.000 A 
ATOM     13  C   UNL     1       1.143  10.175  19.115  0.00  0.00    +0.000 A 
ATOM     14  N   UNL     1       0.758  10.403  20.386  0.00  0.00    +0.000 NA
ATOM     15  C   UNL     1       0.907   9.379  21.249  0.00  0.00    +0.000 A 
ATOM     16  C   UNL     1       1.435   8.147  20.901  0.00  0.00    +0.000 A 
ENDBRANCH   3  11
BRANCH   1  18
ATOM     17  O   UNL     1       6.517   5.031  18.456  0.00  0.00    +0.000 OA
ATOM     18  C   UNL     1       5.541   5.195  17.730  0.00  0.00    +0.000 C 
ATOM     19  N   UNL     1       5.640   5.420  16.380  0.00  0.00    +0.000 N 
ATOM     20  H   UNL     1       4.859   5.825  15.877  0.00  0.00    +0.000 HD
BRANCH  19  21
ATOM     21  C   UNL     1       6.924   5.471  15.714  0.00  0.00    +0.000 C 
BRANCH  21  22
ATOM     22  C   UNL     1       6.856   4.834  14.348  0.00  0.00    +0.000 A 
ATOM     23  C   UNL     1       7.733   5.237  13.344  0.00  0.00    +0.000 A 
ATOM     24  C   UNL     1       7.617   4.659  12.084  0.00  0.00    +0.000 A 
ATOM     25  C   UNL     1       6.635   3.703  11.860  0.00  0.00    +0.000 A 
ATOM     26  C   UNL     1       5.795   3.368  12.911  0.00  0.00    +0.000 A 
ATOM     27  N   UNL     1       5.877   3.914  14.144  0.00  0.00    +0.000 NA
ENDBRANCH  21  22
ENDBRANCH  19  21
ENDBRANCH   1  18
TORSDOF 4
ENDMDL
MODEL 7
REMARK VINA RESULT:      -7.9      1.502      1.721
REMARK  Name = 
REMARK  4 active torsions:
REMARK  status: ('A' for Active; 'I' for Inactive)
REMARK    1  A    between atoms: C_2  and  C_11
REMARK    2  A    between atoms: N_3  and  C_4
REMARK    3  A    between atoms: C_4  and  C_5
REMARK    4  A    between atoms: C_13  and  C_14
REMARK                            x       y       z     vdW  Elec       q    Type
REMARK                         _______ _______ _______ _____ _____    ______ ____
ROOT
ATOM      1  C   UNL     1       4.241   5.216  17.471  0.00  0.00    +0.000 A 
ATOM      2  C   UNL     1       3.746   6.508  17.667  0.00  0.00    +0.000 A 
ATOM      3  C   UNL     1       2.594   6.685  18.414  0.00  0.00    +0.000 A 
ATOM      4  N   UNL     1       1.884   5.625  18.861  0.00  0.00    +0.000 NA
ATOM      5  C   UNL     1       2.350   4.377  18.671  0.00  0.00    +0.000 A 
ATOM      6  C   UNL     1       1.586   3.317  19.142  0.00  0.00    +0.000 A 
ATOM      7  C   UNL     1       2.009   1.990  19.031  0.00  0.00    +0.000 A 
ATOM      8  C   UNL     1       3.254   1.713  18.492  0.00  0.00    +0.000 A 
ATOM      9  C   UNL     1       4.038   2.759  18.013  0.00  0.00    +0.000 A 
ATOM     10  C   UNL     1       3.574   4.101  18.030  0.00  0.00    +0.000 A 
ENDROOT
BRANCH   3  11
ATOM     11  C   UNL     1       2.080   8.020  18.789  0.00  0.00    +0.000 A 
ATOM     12  C   UNL     1       2.082   9.083  17.875  0.00  0.00    +0.000 A 
ATOM     13  C   UNL     1       1.577  10.314  18.263  0.00  0.00    +0.000 A 
ATOM     14  N   UNL     1       1.071  10.570  19.485  0.00  0.00    +0.000 NA
ATOM     15  C   UNL     1       1.057   9.540  20.354  0.00  0.00    +0.000 A 
ATOM     16  C   UNL     1       1.537   8.274  20.060  0.00  0.00    +0.000 A 
ENDBRANCH   3  11
BRANCH   1  18
ATOM     17  O   UNL     1       6.575   5.328  17.213  0.00  0.00    +0.000 OA
ATOM     18  C   UNL     1       5.491   5.134  16.670  0.00  0.00    +0.000 C 
ATOM     19  N   UNL     1       5.358   4.899  15.324  0.00  0.00    +0.000 N 
ATOM     20  H   UNL     1       4.458   5.025  14.876  0.00  0.00    +0.000 HD
BRANCH  19  21
ATOM     21  C   UNL     1       6.509   4.857  14.446  0.00  0.00    +0.000 C 
BRANCH  21  22
ATOM     22  C   UNL     1       6.241   3.999  13.236  0.00  0.00    +0.000 A 
ATOM     23  C   UNL     1       4.932   3.708  12.860  0.00  0.00    +0.000 A 
ATOM     24  C   UNL     1       4.719   2.880  11.763  0.00  0.00    +0.000 A 
ATOM     25  C   UNL     1       5.810   2.366  11.075  0.00  0.00    +0.000 A 
ATOM     26  C   UNL     1       7.080   2.694  11.523  0.00  0.00    +0.000 A 
ATOM     27  N   UNL     1       7.321   3.490  12.588  0.00  0.00    +0.000 NA
ENDBRANCH  21  22
ENDBRANCH  19  21
ENDBRANCH   1  18
TORSDOF 4
ENDMDL
MODEL 8
REMARK VINA RESULT:      -7.8      1.397      1.660
REMARK  Name = 
REMARK  4 active torsions:
REMARK  status: ('A' for Active; 'I' for Inactive)
REMARK    1  A    between atoms: C_2  and  C_11
REMARK    2  A    between atoms: N_3  and  C_4
REMARK    3  A    between atoms: C_4  and  C_5
REMARK    4  A    between atoms: C_13  and  C_14
REMARK                            x       y       z     vdW  Elec       q    Type
REMARK                         _______ _______ _______ _____ _____    ______ ____
ROOT
ATOM      1  C   UNL     1       3.597   6.041  18.986  0.00  0.00    +0.000 A 
ATOM      2  C   UNL     1       2.973   7.248  19.313  0.00  0.00    +0.000 A 
ATOM      3  C   UNL     1       1.857   7.233  20.133  0.00  0.00    +0.000 A 
ATOM      4  N   UNL     1       1.301   6.066  20.529  0.00  0.00    +0.000 NA
ATOM      5  C   UNL     1       1.891   4.899  20.214  0.00  0.00    +0.000 A 
ATOM      6  C   UNL     1       1.283   3.725  20.636  0.00  0.00    +0.000 A 
ATOM      7  C   UNL     1       1.845   2.468  20.395  0.00  0.00    +0.000 A 
ATOM      8  C   UNL     1       3.076   2.380  19.769  0.00  0.00    +0.000 A 
ATOM      9  C   UNL     1       3.706   3.543  19.336  0.00  0.00    +0.000 A 
ATOM     10  C   UNL     1       3.096   4.817  19.488  0.00  0.00    +0.000 A 
ENDROOT
BRANCH   3  11
ATOM     11  C   UNL     1       1.222   8.466  20.642  0.00  0.00    +0.000 A 
ATOM     12  C   UNL     1       0.912   9.532  19.785  0.00  0.00    +0.000 A 
ATOM     13  C   UNL     1       0.302  10.664  20.302  0.00  0.00    +0.000 A 
ATOM     14  N   UNL     1      -0.023  10.819  21.600  0.00  0.00    +0.000 NA
ATOM     15  C   UNL     1       0.262   9.785  22.415  0.00  0.00    +0.000 A 
ATOM     16  C   UNL     1       0.868   8.613  21.994  0.00  0.00    +0.000 A 
ENDBRANCH   3  11
BRANCH   1  18
ATOM     17  O   UNL     1       4.770   6.924  17.150  0.00  0.00    +0.000 OA
ATOM     18  C   UNL     1       4.796   6.166  18.115  0.00  0.00    +0.000 C 
ATOM     19  N   UNL     1       5.870   5.363  18.409  0.00  0.00    +0.000 N 
ATOM     20  H   UNL     1       5.751   4.567  19.024  0.00  0.00    +0.000 HD
BRANCH  19  21
ATOM     21  C   UNL     1       7.064   5.366  17.590  0.00  0.00    +0.000 C 
BRANCH  21  22
ATOM     22  C   UNL     1       6.767   4.885  16.192  0.00  0.00    +0.000 A 
ATOM     23  C   UNL     1       5.843   3.864  15.985  0.00  0.00    +0.000 A 
ATOM     24  C   UNL     1       5.622   3.416  14.687  0.00  0.00    +0.000 A 
ATOM     25  C   UNL     1       6.326   3.991  13.638  0.00  0.00    +0.000 A 
ATOM     26  C   UNL     1       7.238   4.993  13.932  0.00  0.00    +0.000 A 
ATOM     27  N   UNL     1       7.480   5.447  15.181  0.00  0.00    +0.000 NA
ENDBRANCH  21  22
ENDBRANCH  19  21
ENDBRANCH   1  18
TORSDOF 4
ENDMDL
MODEL 9
REMARK VINA RESULT:      -7.8      2.102      7.806
REMARK  Name = 
REMARK  4 active torsions:
REMARK  status: ('A' for Active; 'I' for Inactive)
REMARK    1  A    between atoms: C_2  and  C_11
REMARK    2  A    between atoms: N_3  and  C_4
REMARK    3  A    between atoms: C_4  and  C_5
REMARK    4  A    between atoms: C_13  and  C_14
REMARK                            x       y       z     vdW  Elec       q    Type
REMARK                         _______ _______ _______ _____ _____    ______ ____
ROOT
ATOM      1  C   UNL     1       2.949   6.846  18.200  0.00  0.00    +0.000 A 
ATOM      2  C   UNL     1       3.890   6.652  17.185  0.00  0.00    +0.000 A 
ATOM      3  C   UNL     1       4.547   5.437  17.094  0.00  0.00    +0.000 A 
ATOM      4  N   UNL     1       4.373   4.480  18.032  0.00  0.00    +0.000 NA
ATOM      5  C   UNL     1       3.474   4.659  19.017  0.00  0.00    +0.000 A 
ATOM      6  C   UNL     1       3.331   3.653  19.962  0.00  0.00    +0.000 A 
ATOM      7  C   UNL     1       2.392   3.730  20.994  0.00  0.00    +0.000 A 
ATOM      8  C   UNL     1       1.529   4.812  21.052  0.00  0.00    +0.000 A 
ATOM      9  C   UNL     1       1.653   5.834  20.115  0.00  0.00    +0.000 A 
ATOM     10  C   UNL     1       2.669   5.811  19.123  0.00  0.00    +0.000 A 
ENDROOT
BRANCH   3  11
ATOM     11  C   UNL     1       5.449   5.097  15.973  0.00  0.00    +0.000 A 
ATOM     12  C   UNL     1       6.793   5.500  15.972  0.00  0.00    +0.000 A 
ATOM     13  C   UNL     1       7.608   5.147  14.909  0.00  0.00    +0.000 A 
ATOM     14  N   UNL     1       7.194   4.426  13.849  0.00  0.00    +0.000 NA
ATOM     15  C   UNL     1       5.907   4.027  13.863  0.00  0.00    +0.000 A 
ATOM     16  C   UNL     1       5.016   4.328  14.880  0.00  0.00    +0.000 A 
ENDBRANCH   3  11
BRANCH   1  18
ATOM     17  O   UNL     1       2.310   8.869  17.188  0.00  0.00    +0.000 OA
ATOM     18  C   UNL     1       2.287   8.177  18.202  0.00  0.00    +0.000 C 
ATOM     19  N   UNL     1       1.725   8.595  19.382  0.00  0.00    +0.000 N 
ATOM     20  H   UNL     1       1.970   8.132  20.249  0.00  0.00    +0.000 HD
BRANCH  19  21
ATOM     21  C   UNL     1       1.106   9.899  19.506  0.00  0.00    +0.000 C 
BRANCH  21  22
ATOM     22  C   UNL     1       0.419  10.052  20.839  0.00  0.00    +0.000 A 
ATOM     23  C   UNL     1       0.393   8.990  21.740  0.00  0.00    +0.000 A 
ATOM     24  C   UNL     1      -0.284   9.151  22.944  0.00  0.00    +0.000 A 
ATOM     25  C   UNL     1      -0.915  10.357  23.215  0.00  0.00    +0.000 A 
ATOM     26  C   UNL     1      -0.851  11.360  22.260  0.00  0.00    +0.000 A 
ATOM     27  N   UNL     1      -0.208  11.234  21.079  0.00  0.00    +0.000 NA
ENDBRANCH  21  22
ENDBRANCH  19  21
ENDBRANCH   1  18
TORSDOF 4
ENDMDL
