MODEL 1
REMARK VINA RESULT:      -7.3      0.000      0.000
REMARK  Name = 
REMARK  6 active torsions:
REMARK  status: ('A' for Active; 'I' for Inactive)
REMARK    1  A    between atoms: C_1  and  C_2
REMARK    2  A    between atoms: N_4  and  C_5
REMARK    3  A    between atoms: C_10  and  C_11
REMARK    4  A    between atoms: C_15  and  C_16
REMARK    5  A    between atoms: C_20  and  C_21
REMARK    6  A    between atoms: C_20  and  C_22
REMARK                            x       y       z     vdW  Elec       q    Type
REMARK                         _______ _______ _______ _____ _____    ______ ____
ROOT
ATOM      1  C   UNL     1       6.268   4.410  17.637  0.00  0.00    +0.000 C 
ATOM      2  O   UNL     1       7.347   4.177  18.168  0.00  0.00    +0.000 OA
ATOM      3  N   UNL     1       5.039   4.510  18.382  0.00  0.00    +0.000 N 
ATOM      4  C   UNL     1       5.261   3.901  19.697  0.00  0.00    +0.000 C 
ATOM      5  C   UNL     1       3.996   3.077  19.908  0.00  0.00    +0.000 C 
ATOM      6  C   UNL     1       4.166   1.765  20.661  0.00  0.00    +0.000 C 
ATOM      7  C   UNL     1       3.692   2.684  18.426  0.00  0.00    +0.000 C 
ATOM      8  C   UNL     1       3.725   4.038  17.806  0.00  0.00    +0.000 C 
ATOM      9  C   UNL     1       2.317   4.633  18.238  0.00  0.00    +0.000 C 
ATOM     10  C   UNL     1       1.842   4.452  19.734  0.00  0.00    +0.000 C 
ATOM     11  C   UNL     1       1.169   5.771  20.181  0.00  0.00    +0.000 C 
ATOM     12  C   UNL     1       0.812   3.333  20.040  0.00  0.00    +0.000 C 
ATOM     13  C   UNL     1       3.044   4.106  20.595  0.00  0.00    +0.000 C 
ENDROOT
BRANCH   1  19
ATOM     14  C   UNL     1       7.106   5.548  15.572  0.00  0.00    +0.000 A 
ATOM     15  C   UNL     1       7.264   5.481  14.188  0.00  0.00    +0.000 A 
ATOM     16  C   UNL     1       6.675   4.454  13.431  0.00  0.00    +0.000 A 
ATOM     17  C   UNL     1       5.916   3.472  14.053  0.00  0.00    +0.000 A 
ATOM     18  C   UNL     1       5.729   3.537  15.424  0.00  0.00    +0.000 A 
ATOM     19  C   UNL     1       6.308   4.578  16.178  0.00  0.00    +0.000 A 
BRANCH  14  23
ATOM     20  C   UNL     1       8.129   8.361  17.886  0.00  0.00    +0.000 C 
ATOM     21  C   UNL     1       7.143   7.546  17.070  0.00  0.00    +0.000 C 
ATOM     22  O   UNL     1       5.954   7.817  17.102  0.00  0.00    +0.000 OA
ATOM     23  N   UNL     1       7.747   6.515  16.381  0.00  0.00    +0.000 N 
ATOM     24  H   UNL     1       8.764   6.506  16.365  0.00  0.00    +0.000 HD
ENDBRANCH  14  23
ENDBRANCH   1  19
TORSDOF 2
ENDMDL
MODEL 2
REMARK VINA RESULT:      -6.6      6.001      8.758
REMARK  Name = 
REMARK  6 active torsions:
REMARK  status: ('A' for Active; 'I' for Inactive)
REMARK    1  A    between atoms: C_1  and  C_2
REMARK    2  A    between atoms: N_4  and  C_5
REMARK    3  A    between atoms: C_10  and  C_11
REMARK    4  A    between atoms: C_15  and  C_16
REMARK    5  A    between atoms: C_20  and  C_21
REMARK    6  A    between atoms: C_20  and  C_22
REMARK                            x       y       z     vdW  Elec       q    Type
REMARK                         _______ _______ _______ _____ _____    ______ ____
ROOT
ATOM      1  C   UNL     1       1.202  10.524  18.891  0.00  0.00    +0.000 C 
ATOM      2  O   UNL     1       1.835  11.439  19.403  0.00  0.00    +0.000 OA
ATOM      3  N   UNL     1      -0.036  10.735  18.185  0.00  0.00    +0.000 N 
ATOM      4  C   UNL     1      -0.543  12.061  18.554  0.00  0.00    +0.000 C 
ATOM      5  C   UNL     1      -2.029  11.806  18.776  0.00  0.00    +0.000 C 
ATOM      6  C   UNL     1      -2.694  12.624  19.874  0.00  0.00    +0.000 C 
ATOM      7  C   UNL     1      -1.964  10.340  19.314  0.00  0.00    +0.000 C 
ATOM      8  C   UNL     1      -1.154   9.720  18.229  0.00  0.00    +0.000 C 
ATOM      9  C   UNL     1      -2.228   9.551  17.071  0.00  0.00    +0.000 C 
ATOM     10  C   UNL     1      -3.198  10.757  16.753  0.00  0.00    +0.000 C 
ATOM     11  C   UNL     1      -3.349  10.851  15.217  0.00  0.00    +0.000 C 
ATOM     12  C   UNL     1      -4.644  10.693  17.311  0.00  0.00    +0.000 C 
ATOM     13  C   UNL     1      -2.618  12.028  17.348  0.00  0.00    +0.000 C 
ENDROOT
BRANCH   1  19
ATOM     14  C   UNL     1       1.679   8.472  20.241  0.00  0.00    +0.000 A 
ATOM     15  C   UNL     1       2.055   7.129  20.225  0.00  0.00    +0.000 A 
ATOM     16  C   UNL     1       2.490   6.503  19.045  0.00  0.00    +0.000 A 
ATOM     17  C   UNL     1       2.556   7.217  17.855  0.00  0.00    +0.000 A 
ATOM     18  C   UNL     1       2.210   8.558  17.859  0.00  0.00    +0.000 A 
ATOM     19  C   UNL     1       1.789   9.187  19.048  0.00  0.00    +0.000 A 
BRANCH  14  23
ATOM     20  C   UNL     1      -0.257   9.697  23.252  0.00  0.00    +0.000 C 
ATOM     21  C   UNL     1      -0.038   8.846  22.014  0.00  0.00    +0.000 C 
ATOM     22  O   UNL     1      -0.865   8.006  21.698  0.00  0.00    +0.000 OA
ATOM     23  N   UNL     1       1.158   9.119  21.385  0.00  0.00    +0.000 N 
ATOM     24  H   UNL     1       1.672   9.936  21.709  0.00  0.00    +0.000 HD
ENDBRANCH  14  23
ENDBRANCH   1  19
TORSDOF 2
ENDMDL
MODEL 3
REMARK VINA RESULT:      -6.4      1.446      3.261
REMARK  Name = 
REMARK  6 active torsions:
REMARK  status: ('A' for Active; 'I' for Inactive)
REMARK    1  A    between atoms: C_1  and  C_2
REMARK    2  A    between atoms: N_4  and  C_5
REMARK    3  A    between atoms: C_10  and  C_11
REMARK    4  A    between atoms: C_15  and  C_16
REMARK    5  A    between atoms: C_20  and  C_21
REMARK    6  A    between atoms: C_20  and  C_22
REMARK                            x       y       z     vdW  Elec       q    Type
REMARK                         _______ _______ _______ _____ _____    ______ ____
ROOT
ATOM      1  C   UNL     1       6.810   4.575  18.208  0.00  0.00    +0.000 C 
ATOM      2  O   UNL     1       7.493   3.661  17.764  0.00  0.00    +0.000 OA
ATOM      3  N   UNL     1       5.582   4.350  18.925  0.00  0.00    +0.000 N 
ATOM      4  C   UNL     1       5.147   2.977  18.652  0.00  0.00    +0.000 C 
ATOM      5  C   UNL     1       3.650   3.136  18.411  0.00  0.00    +0.000 C 
ATOM      6  C   UNL     1       3.034   2.208  17.373  0.00  0.00    +0.000 C 
ATOM      7  C   UNL     1       3.641   4.561  17.768  0.00  0.00    +0.000 C 
ATOM      8  C   UNL     1       4.412   5.300  18.807  0.00  0.00    +0.000 C 
ATOM      9  C   UNL     1       3.325   5.495  19.948  0.00  0.00    +0.000 C 
ATOM     10  C   UNL     1       2.418   4.266  20.351  0.00  0.00    +0.000 C 
ATOM     11  C   UNL     1       2.263   4.274  21.890  0.00  0.00    +0.000 C 
ATOM     12  C   UNL     1       0.973   4.213  19.788  0.00  0.00    +0.000 C 
ATOM     13  C   UNL     1       3.066   2.987  19.850  0.00  0.00    +0.000 C 
ENDROOT
BRANCH   1  19
ATOM     14  C   UNL     1       6.906   6.682  16.862  0.00  0.00    +0.000 A 
ATOM     15  C   UNL     1       7.263   8.030  16.832  0.00  0.00    +0.000 A 
ATOM     16  C   UNL     1       7.987   8.620  17.881  0.00  0.00    +0.000 A 
ATOM     17  C   UNL     1       8.366   7.865  18.984  0.00  0.00    +0.000 A 
ATOM     18  C   UNL     1       8.040   6.519  19.018  0.00  0.00    +0.000 A 
ATOM     19  C   UNL     1       7.327   5.927  17.956  0.00  0.00    +0.000 A 
BRANCH  14  23
ATOM     20  C   UNL     1       5.418   4.776  13.951  0.00  0.00    +0.000 C 
ATOM     21  C   UNL     1       6.553   5.342  14.784  0.00  0.00    +0.000 C 
ATOM     22  O   UNL     1       7.711   5.103  14.480  0.00  0.00    +0.000 OA
ATOM     23  N   UNL     1       6.107   6.068  15.868  0.00  0.00    +0.000 N 
ATOM     24  H   UNL     1       5.112   6.275  15.906  0.00  0.00    +0.000 HD
ENDBRANCH  14  23
ENDBRANCH   1  19
TORSDOF 2
ENDMDL
MODEL 4
REMARK VINA RESULT:      -6.4      2.489      6.333
REMARK  Name = 
REMARK  6 active torsions:
REMARK  status: ('A' for Active; 'I' for Inactive)
REMARK    1  A    between atoms: C_1  and  C_2
REMARK    2  A    between atoms: N_4  and  C_5
REMARK    3  A    between atoms: C_10  and  C_11
REMARK    4  A    between atoms: C_15  and  C_16
REMARK    5  A    between atoms: C_20  and  C_21
REMARK    6  A    between atoms: C_20  and  C_22
REMARK                            x       y       z     vdW  Elec       q    Type
REMARK                         _______ _______ _______ _____ _____    ______ ____
ROOT
ATOM      1  C   UNL     1       3.900   5.108  18.782  0.00  0.00    +0.000 C 
ATOM      2  O   UNL     1       4.088   4.447  19.797  0.00  0.00    +0.000 OA
ATOM      3  N   UNL     1       4.560   4.822  17.535  0.00  0.00    +0.000 N 
ATOM      4  C   UNL     1       5.707   3.955  17.822  0.00  0.00    +0.000 C 
ATOM      5  C   UNL     1       6.812   4.559  16.963  0.00  0.00    +0.000 C 
ATOM      6  C   UNL     1       8.219   4.506  17.543  0.00  0.00    +0.000 C 
ATOM      7  C   UNL     1       6.386   6.062  17.011  0.00  0.00    +0.000 C 
ATOM      8  C   UNL     1       4.966   5.924  16.585  0.00  0.00    +0.000 C 
ATOM      9  C   UNL     1       5.110   5.719  15.016  0.00  0.00    +0.000 C 
ATOM     10  C   UNL     1       6.205   4.714  14.479  0.00  0.00    +0.000 C 
ATOM     11  C   UNL     1       5.590   3.929  13.298  0.00  0.00    +0.000 C 
ATOM     12  C   UNL     1       7.533   5.307  13.939  0.00  0.00    +0.000 C 
ATOM     13  C   UNL     1       6.633   3.798  15.612  0.00  0.00    +0.000 C 
ENDROOT
BRANCH   1  19
ATOM     14  C   UNL     1       2.097   6.324  20.021  0.00  0.00    +0.000 A 
ATOM     15  C   UNL     1       1.406   7.523  20.190  0.00  0.00    +0.000 A 
ATOM     16  C   UNL     1       1.590   8.605  19.313  0.00  0.00    +0.000 A 
ATOM     17  C   UNL     1       2.473   8.502  18.247  0.00  0.00    +0.000 A 
ATOM     18  C   UNL     1       3.149   7.310  18.050  0.00  0.00    +0.000 A 
ATOM     19  C   UNL     1       2.951   6.221  18.923  0.00  0.00    +0.000 A 
BRANCH  14  23
ATOM     20  C   UNL     1       1.469   3.097  21.895  0.00  0.00    +0.000 C 
ATOM     21  C   UNL     1       1.299   4.070  20.742  0.00  0.00    +0.000 C 
ATOM     22  O   UNL     1       0.622   3.759  19.776  0.00  0.00    +0.000 OA
ATOM     23  N   UNL     1       2.006   5.240  20.925  0.00  0.00    +0.000 N 
ATOM     24  H   UNL     1       2.419   5.389  21.843  0.00  0.00    +0.000 HD
ENDBRANCH  14  23
ENDBRANCH   1  19
TORSDOF 2
ENDMDL
MODEL 5
REMARK VINA RESULT:      -6.4      9.219     12.736
REMARK  Name = 
REMARK  6 active torsions:
REMARK  status: ('A' for Active; 'I' for Inactive)
REMARK    1  A    between atoms: C_1  and  C_2
REMARK    2  A    between atoms: N_4  and  C_5
REMARK    3  A    between atoms: C_10  and  C_11
REMARK    4  A    between atoms: C_15  and  C_16
REMARK    5  A    between atoms: C_20  and  C_21
REMARK    6  A    between atoms: C_20  and  C_22
REMARK                            x       y       z     vdW  Elec       q    Type
REMARK                         _______ _______ _______ _____ _____    ______ ____
ROOT
ATOM      1  C   UNL     1      -3.605  12.868  20.175  0.00  0.00    +0.000 C 
ATOM      2  O   UNL     1      -3.724  13.971  20.694  0.00  0.00    +0.000 OA
ATOM      3  N   UNL     1      -2.349  12.166  20.122  0.00  0.00    +0.000 N 
ATOM      4  C   UNL     1      -1.281  13.134  20.390  0.00  0.00    +0.000 C 
ATOM      5  C   UNL     1      -0.229  12.776  19.348  0.00  0.00    +0.000 C 
ATOM      6  C   UNL     1       0.572  13.937  18.775  0.00  0.00    +0.000 C 
ATOM      7  C   UNL     1      -1.163  12.290  18.192  0.00  0.00    +0.000 C 
ATOM      8  C   UNL     1      -1.979  11.296  18.944  0.00  0.00    +0.000 C 
ATOM      9  C   UNL     1      -0.985  10.061  19.045  0.00  0.00    +0.000 C 
ATOM     10  C   UNL     1       0.519  10.328  19.451  0.00  0.00    +0.000 C 
ATOM     11  C   UNL     1       0.958   9.201  20.415  0.00  0.00    +0.000 C 
ATOM     12  C   UNL     1       1.583  10.349  18.322  0.00  0.00    +0.000 C 
ATOM     13  C   UNL     1       0.622  11.700  20.094  0.00  0.00    +0.000 C 
ENDROOT
BRANCH   1  19
ATOM     14  C   UNL     1      -5.953  12.031  20.392  0.00  0.00    +0.000 A 
ATOM     15  C   UNL     1      -7.146  11.726  19.736  0.00  0.00    +0.000 A 
ATOM     16  C   UNL     1      -7.233  11.730  18.333  0.00  0.00    +0.000 A 
ATOM     17  C   UNL     1      -6.122  12.044  17.562  0.00  0.00    +0.000 A 
ATOM     18  C   UNL     1      -4.924  12.326  18.197  0.00  0.00    +0.000 A 
ATOM     19  C   UNL     1      -4.836  12.305  19.604  0.00  0.00    +0.000 A 
BRANCH  14  23
ATOM     20  C   UNL     1      -6.168  12.799  24.090  0.00  0.00    +0.000 C 
ATOM     21  C   UNL     1      -6.469  13.031  22.621  0.00  0.00    +0.000 C 
ATOM     22  O   UNL     1      -7.226  13.928  22.288  0.00  0.00    +0.000 OA
ATOM     23  N   UNL     1      -5.841  12.119  21.799  0.00  0.00    +0.000 N 
ATOM     24  H   UNL     1      -5.146  11.513  22.229  0.00  0.00    +0.000 HD
ENDBRANCH  14  23
ENDBRANCH   1  19
TORSDOF 2
ENDMDL
MODEL 6
REMARK VINA RESULT:      -6.3      9.075     10.963
REMARK  Name = 
REMARK  6 active torsions:
REMARK  status: ('A' for Active; 'I' for Inactive)
REMARK    1  A    between atoms: C_1  and  C_2
REMARK    2  A    between atoms: N_4  and  C_5
REMARK    3  A    between atoms: C_10  and  C_11
REMARK    4  A    between atoms: C_15  and  C_16
REMARK    5  A    between atoms: C_20  and  C_21
REMARK    6  A    between atoms: C_20  and  C_22
REMARK                            x       y       z     vdW  Elec       q    Type
REMARK                         _______ _______ _______ _____ _____    ______ ____
ROOT
ATOM      1  C   UNL     1       8.424  14.162  19.385  0.00  0.00    +0.000 C 
ATOM      2  O   UNL     1       7.879  15.084  18.790  0.00  0.00    +0.000 OA
ATOM      3  N   UNL     1       8.068  13.785  20.729  0.00  0.00    +0.000 N 
ATOM      4  C   UNL     1       7.315  14.895  21.322  0.00  0.00    +0.000 C 
ATOM      5  C   UNL     1       7.910  14.999  22.722  0.00  0.00    +0.000 C 
ATOM      6  C   UNL     1       8.012  16.401  23.306  0.00  0.00    +0.000 C 
ATOM      7  C   UNL     1       9.377  14.556  22.413  0.00  0.00    +0.000 C 
ATOM      8  C   UNL     1       9.100  13.275  21.707  0.00  0.00    +0.000 C 
ATOM      9  C   UNL     1       8.756  12.301  22.913  0.00  0.00    +0.000 C 
ATOM     10  C   UNL     1       7.784  12.812  24.049  0.00  0.00    +0.000 C 
ATOM     11  C   UNL     1       6.847  11.643  24.434  0.00  0.00    +0.000 C 
ATOM     12  C   UNL     1       8.414  13.297  25.381  0.00  0.00    +0.000 C 
ATOM     13  C   UNL     1       7.012  14.015  23.535  0.00  0.00    +0.000 C 
ENDROOT
BRANCH   1  19
ATOM     14  C   UNL     1      10.741  14.021  18.450  0.00  0.00    +0.000 A 
ATOM     15  C   UNL     1      11.741  13.195  17.937  0.00  0.00    +0.000 A 
ATOM     16  C   UNL     1      11.499  11.841  17.651  0.00  0.00    +0.000 A 
ATOM     17  C   UNL     1      10.245  11.289  17.877  0.00  0.00    +0.000 A 
ATOM     18  C   UNL     1       9.234  12.101  18.364  0.00  0.00    +0.000 A 
ATOM     19  C   UNL     1       9.476  13.463  18.635  0.00  0.00    +0.000 A 
BRANCH  14  23
ATOM     20  C   UNL     1      11.223  17.762  18.743  0.00  0.00    +0.000 C 
ATOM     21  C   UNL     1      11.031  16.458  17.991  0.00  0.00    +0.000 C 
ATOM     22  O   UNL     1      10.923  16.465  16.775  0.00  0.00    +0.000 OA
ATOM     23  N   UNL     1      10.962  15.365  18.829  0.00  0.00    +0.000 N 
ATOM     24  H   UNL     1      11.195  15.520  19.807  0.00  0.00    +0.000 HD
ENDBRANCH  14  23
ENDBRANCH   1  19
TORSDOF 2
ENDMDL
MODEL 7
REMARK VINA RESULT:      -6.3      9.126     12.243
REMARK  Name = 
REMARK  6 active torsions:
REMARK  status: ('A' for Active; 'I' for Inactive)
REMARK    1  A    between atoms: C_1  and  C_2
REMARK    2  A    between atoms: N_4  and  C_5
REMARK    3  A    between atoms: C_10  and  C_11
REMARK    4  A    between atoms: C_15  and  C_16
REMARK    5  A    between atoms: C_20  and  C_21
REMARK    6  A    between atoms: C_20  and  C_22
REMARK                            x       y       z     vdW  Elec       q    Type
REMARK                         _______ _______ _______ _____ _____    ______ ____
ROOT
ATOM      1  C   UNL     1      -0.901  12.879  22.355  0.00  0.00    +0.000 C 
ATOM      2  O   UNL     1       0.119  13.495  22.637  0.00  0.00    +0.000 OA
ATOM      3  N   UNL     1      -2.202  13.497  22.334  0.00  0.00    +0.000 N 
ATOM      4  C   UNL     1      -2.111  14.761  23.071  0.00  0.00    +0.000 C 
ATOM      5  C   UNL     1      -3.380  14.755  23.915  0.00  0.00    +0.000 C 
ATOM      6  C   UNL     1      -3.272  15.386  25.296  0.00  0.00    +0.000 C 
ATOM      7  C   UNL     1      -3.522  13.217  24.158  0.00  0.00    +0.000 C 
ATOM      8  C   UNL     1      -3.443  12.742  22.748  0.00  0.00    +0.000 C 
ATOM      9  C   UNL     1      -4.896  13.080  22.204  0.00  0.00    +0.000 C 
ATOM     10  C   UNL     1      -5.522  14.492  22.535  0.00  0.00    +0.000 C 
ATOM     11  C   UNL     1      -6.255  14.995  21.270  0.00  0.00    +0.000 C 
ATOM     12  C   UNL     1      -6.564  14.575  23.682  0.00  0.00    +0.000 C 
ATOM     13  C   UNL     1      -4.412  15.437  22.963  0.00  0.00    +0.000 C 
ENDROOT
BRANCH   1  19
ATOM     14  C   UNL     1      -0.162  11.039  20.829  0.00  0.00    +0.000 A 
ATOM     15  C   UNL     1       0.199   9.697  20.712  0.00  0.00    +0.000 A 
ATOM     16  C   UNL     1       0.053   8.802  21.786  0.00  0.00    +0.000 A 
ATOM     17  C   UNL     1      -0.458   9.241  23.000  0.00  0.00    +0.000 A 
ATOM     18  C   UNL     1      -0.844  10.565  23.125  0.00  0.00    +0.000 A 
ATOM     19  C   UNL     1      -0.712  11.456  22.041  0.00  0.00    +0.000 A 
BRANCH  14  23
ATOM     20  C   UNL     1      -0.342  13.508  17.967  0.00  0.00    +0.000 C 
ATOM     21  C   UNL     1      -0.892  12.439  18.894  0.00  0.00    +0.000 C 
ATOM     22  O   UNL     1      -2.059  12.095  18.803  0.00  0.00    +0.000 OA
ATOM     23  N   UNL     1       0.043  11.990  19.803  0.00  0.00    +0.000 N 
ATOM     24  H   UNL     1       1.005  12.292  19.661  0.00  0.00    +0.000 HD
ENDBRANCH  14  23
ENDBRANCH   1  19
TORSDOF 2
ENDMDL
MODEL 8
REMARK VINA RESULT:      -6.3      7.666     10.883
REMARK  Name = 
REMARK  6 active torsions:
REMARK  status: ('A' for Active; 'I' for Inactive)
REMARK    1  A    between atoms: C_1  and  C_2
REMARK    2  A    between atoms: N_4  and  C_5
REMARK    3  A    between atoms: C_10  and  C_11
REMARK    4  A    between atoms: C_15  and  C_16
REMARK    5  A    between atoms: C_20  and  C_21
REMARK    6  A    between atoms: C_20  and  C_22
REMARK                            x       y       z     vdW  Elec       q    Type
REMARK                         _______ _______ _______ _____ _____    ______ ____
ROOT
ATOM      1  C   UNL     1       8.549  14.594  18.722  0.00  0.00    +0.000 C 
ATOM      2  O   UNL     1       7.723  15.120  17.988  0.00  0.00    +0.000 OA
ATOM      3  N   UNL     1       8.218  14.086  20.028  0.00  0.00    +0.000 N 
ATOM      4  C   UNL     1       6.932  14.669  20.424  0.00  0.00    +0.000 C 
ATOM      5  C   UNL     1       7.167  15.054  21.880  0.00  0.00    +0.000 C 
ATOM      6  C   UNL     1       6.468  16.317  22.363  0.00  0.00    +0.000 C 
ATOM      7  C   UNL     1       8.689  15.405  21.813  0.00  0.00    +0.000 C 
ATOM      8  C   UNL     1       9.197  14.158  21.176  0.00  0.00    +0.000 C 
ATOM      9  C   UNL     1       9.192  13.140  22.395  0.00  0.00    +0.000 C 
ATOM     10  C   UNL     1       7.929  13.094  23.343  0.00  0.00    +0.000 C 
ATOM     11  C   UNL     1       7.644  11.613  23.683  0.00  0.00    +0.000 C 
ATOM     12  C   UNL     1       8.016  13.826  24.707  0.00  0.00    +0.000 C 
ATOM     13  C   UNL     1       6.756  13.751  22.635  0.00  0.00    +0.000 C 
ENDROOT
BRANCH   1  19
ATOM     14  C   UNL     1      10.404  13.351  17.591  0.00  0.00    +0.000 A 
ATOM     15  C   UNL     1      11.611  13.438  16.898  0.00  0.00    +0.000 A 
ATOM     16  C   UNL     1      12.292  14.660  16.763  0.00  0.00    +0.000 A 
ATOM     17  C   UNL     1      11.771  15.819  17.321  0.00  0.00    +0.000 A 
ATOM     18  C   UNL     1      10.586  15.746  18.033  0.00  0.00    +0.000 A 
ATOM     19  C   UNL     1       9.913  14.516  18.181  0.00  0.00    +0.000 A 
BRANCH  14  23
ATOM     20  C   UNL     1       8.784  10.039  18.440  0.00  0.00    +0.000 C 
ATOM     21  C   UNL     1       9.815  11.141  18.594  0.00  0.00    +0.000 C 
ATOM     22  O   UNL     1      10.652  11.074  19.480  0.00  0.00    +0.000 OA
ATOM     23  N   UNL     1       9.644  12.161  17.682  0.00  0.00    +0.000 N 
ATOM     24  H   UNL     1       8.975  12.002  16.932  0.00  0.00    +0.000 HD
ENDBRANCH  14  23
ENDBRANCH   1  19
TORSDOF 2
ENDMDL
MODEL 9
REMARK VINA RESULT:      -6.3      1.461      2.444
REMARK  Name = 
REMARK  6 active torsions:
REMARK  status: ('A' for Active; 'I' for Inactive)
REMARK    1  A    between atoms: C_1  and  C_2
REMARK    2  A    between atoms: N_4  and  C_5
REMARK    3  A    between atoms: C_10  and  C_11
REMARK    4  A    between atoms: C_15  and  C_16
REMARK    5  A    between atoms: C_20  and  C_21
REMARK    6  A    between atoms: C_20  and  C_22
REMARK                            x       y       z     vdW  Elec       q    Type
REMARK                         _______ _______ _______ _____ _____    ______ ____
ROOT
ATOM      1  C   UNL     1       4.310   6.012  16.498  0.00  0.00    +0.000 C 
ATOM      2  O   UNL     1       4.280   7.232  16.602  0.00  0.00    +0.000 OA
ATOM      3  N   UNL     1       3.419   5.147  17.229  0.00  0.00    +0.000 N 
ATOM      4  C   UNL     1       2.841   5.925  18.330  0.00  0.00    +0.000 C 
ATOM      5  C   UNL     1       2.917   4.957  19.505  0.00  0.00    +0.000 C 
ATOM      6  C   UNL     1       3.188   5.576  20.870  0.00  0.00    +0.000 C 
ATOM      7  C   UNL     1       4.219   4.182  19.121  0.00  0.00    +0.000 C 
ATOM      8  C   UNL     1       3.865   3.792  17.727  0.00  0.00    +0.000 C 
ATOM      9  C   UNL     1       2.871   2.577  17.967  0.00  0.00    +0.000 C 
ATOM     10  C   UNL     1       1.744   2.723  19.065  0.00  0.00    +0.000 C 
ATOM     11  C   UNL     1       0.450   2.087  18.504  0.00  0.00    +0.000 C 
ATOM     12  C   UNL     1       1.978   2.047  20.441  0.00  0.00    +0.000 C 
ATOM     13  C   UNL     1       1.559   4.195  19.392  0.00  0.00    +0.000 C 
ENDROOT
BRANCH   1  19
ATOM     14  C   UNL     1       6.677   5.457  15.908  0.00  0.00    +0.000 A 
ATOM     15  C   UNL     1       7.531   4.728  15.080  0.00  0.00    +0.000 A 
ATOM     16  C   UNL     1       7.044   4.011  13.974  0.00  0.00    +0.000 A 
ATOM     17  C   UNL     1       5.687   4.013  13.679  0.00  0.00    +0.000 A 
ATOM     18  C   UNL     1       4.829   4.752  14.475  0.00  0.00    +0.000 A 
ATOM     19  C   UNL     1       5.323   5.483  15.575  0.00  0.00    +0.000 A 
BRANCH  14  23
ATOM     20  C   UNL     1       8.035   6.563  19.262  0.00  0.00    +0.000 C 
ATOM     21  C   UNL     1       7.611   5.542  18.222  0.00  0.00    +0.000 C 
ATOM     22  O   UNL     1       7.764   4.350  18.439  0.00  0.00    +0.000 OA
ATOM     23  N   UNL     1       7.111   6.125  17.077  0.00  0.00    +0.000 N 
ATOM     24  H   UNL     1       6.937   7.127  17.108  0.00  0.00    +0.000 HD
ENDBRANCH  14  23
ENDBRANCH   1  19
TORSDOF 2
ENDMDL
