MODEL 1
REMARK VINA RESULT:      -8.4      0.000      0.000
REMARK  Name = 
REMARK  6 active torsions:
REMARK  status: ('A' for Active; 'I' for Inactive)
REMARK    1  A    between atoms: C_1  and  C_2
REMARK    2  A    between atoms: C_2  and  C_3
REMARK    3  A    between atoms: C_6  and  C_7
REMARK    4  A    between atoms: C_11  and  O_12
REMARK    5  A    between atoms: O_12  and  C_13
REMARK    6  A    between atoms: C_13  and  C_14
REMARK                            x       y       z     vdW  Elec       q    Type
REMARK                         _______ _______ _______ _____ _____    ______ ____
ROOT
ATOM      1  C   UNL     1       4.281   4.152  17.437  0.00  0.00    +0.000 A 
ATOM      2  C   UNL     1       5.055   4.101  16.260  0.00  0.00    +0.000 A 
ATOM      3  C   UNL     1       5.402   5.298  15.628  0.00  0.00    +0.000 A 
ATOM      4  C   UNL     1       5.026   6.543  16.177  0.00  0.00    +0.000 A 
ATOM      5  C   UNL     1       4.312   6.627  17.388  0.00  0.00    +0.000 A 
ATOM      6  C   UNL     1       3.942   5.425  17.971  0.00  0.00    +0.000 A 
ENDROOT
BRANCH   1  10
ATOM      7  C   UNL     1       2.051   3.025  19.333  0.00  0.00    +0.000 C 
ATOM      8  N   UNL     1       1.551   2.473  18.260  0.00  0.00    +0.000 NA
ATOM      9  C   UNL     1       2.752   2.099  17.504  0.00  0.00    +0.000 C 
ATOM     10  C   UNL     1       3.897   2.875  18.147  0.00  0.00    +0.000 C 
ATOM     11  O   UNL     1       3.388   3.195  19.440  0.00  0.00    +0.000 OA
BRANCH   7  13
ATOM     12  C   UNL     1       2.166   3.803  21.667  0.00  0.00    +0.000 C 
ATOM     13  C   UNL     1       1.259   3.565  20.474  0.00  0.00    +0.000 C 
ENDBRANCH   7  13
ENDBRANCH   1  10
BRANCH   5  14
ATOM     14  O   UNL     1       4.000   7.880  17.931  0.00  0.00    +0.000 OA
BRANCH  14  15
ATOM     15  C   UNL     1       2.605   8.354  17.726  0.00  0.00    +0.000 C 
BRANCH  15  16
ATOM     16  C   UNL     1       1.680   8.510  18.989  0.00  0.00    +0.000 A 
ATOM     17  C   UNL     1       1.995   7.757  20.074  0.00  0.00    +0.000 A 
ATOM     18  C   UNL     1       1.068   7.746  21.099  0.00  0.00    +0.000 A 
ATOM     19  C   UNL     1       0.388   8.891  21.437  0.00  0.00    +0.000 A 
ATOM     20  C   UNL     1      -0.116   9.007  22.763  0.00  0.00    +0.000 A 
ATOM     21  C   UNL     1      -0.732  10.193  23.150  0.00  0.00    +0.000 A 
ATOM     22  C   UNL     1      -0.885  11.190  22.215  0.00  0.00    +0.000 A 
ATOM     23  C   UNL     1      -0.412  11.025  20.880  0.00  0.00    +0.000 A 
ATOM     24  C   UNL     1       0.299   9.856  20.455  0.00  0.00    +0.000 A 
ATOM     25  N   UNL     1       0.853   9.618  19.177  0.00  0.00    +0.000 NA
ENDBRANCH  15  16
ENDBRANCH  14  15
ENDBRANCH   5  14
TORSDOF 5
ENDMDL
MODEL 2
REMARK VINA RESULT:      -8.2      0.694      1.416
REMARK  Name = 
REMARK  6 active torsions:
REMARK  status: ('A' for Active; 'I' for Inactive)
REMARK    1  A    between atoms: C_1  and  C_2
REMARK    2  A    between atoms: C_2  and  C_3
REMARK    3  A    between atoms: C_6  and  C_7
REMARK    4  A    between atoms: C_11  and  O_12
REMARK    5  A    between atoms: O_12  and  C_13
REMARK    6  A    between atoms: C_13  and  C_14
REMARK                            x       y       z     vdW  Elec       q    Type
REMARK                         _______ _______ _______ _____ _____    ______ ____
ROOT
ATOM      1  C   UNL     1       4.206   4.138  17.437  0.00  0.00    +0.000 A 
ATOM      2  C   UNL     1       5.189   4.107  16.428  0.00  0.00    +0.000 A 
ATOM      3  C   UNL     1       5.584   5.309  15.834  0.00  0.00    +0.000 A 
ATOM      4  C   UNL     1       5.046   6.541  16.263  0.00  0.00    +0.000 A 
ATOM      5  C   UNL     1       4.113   6.608  17.316  0.00  0.00    +0.000 A 
ATOM      6  C   UNL     1       3.705   5.399  17.858  0.00  0.00    +0.000 A 
ENDROOT
BRANCH   1  10
ATOM      7  C   UNL     1       1.942   3.055  19.321  0.00  0.00    +0.000 C 
ATOM      8  N   UNL     1       1.400   2.574  18.234  0.00  0.00    +0.000 NA
ATOM      9  C   UNL     1       2.570   2.167  17.447  0.00  0.00    +0.000 C 
ATOM     10  C   UNL     1       3.763   2.856  18.103  0.00  0.00    +0.000 C 
ATOM     11  O   UNL     1       3.288   3.151  19.414  0.00  0.00    +0.000 OA
BRANCH   7  13
ATOM     12  C   UNL     1       2.021   3.421  21.755  0.00  0.00    +0.000 C 
ATOM     13  C   UNL     1       1.195   3.591  20.493  0.00  0.00    +0.000 C 
ENDBRANCH   7  13
ENDBRANCH   1  10
BRANCH   5  14
ATOM     14  O   UNL     1       3.638   7.852  17.752  0.00  0.00    +0.000 OA
BRANCH  14  15
ATOM     15  C   UNL     1       2.162   7.975  17.898  0.00  0.00    +0.000 C 
BRANCH  15  16
ATOM     16  C   UNL     1       1.604   8.979  18.973  0.00  0.00    +0.000 A 
ATOM     17  C   UNL     1       0.946  10.072  18.508  0.00  0.00    +0.000 A 
ATOM     18  C   UNL     1       0.639  11.044  19.440  0.00  0.00    +0.000 A 
ATOM     19  C   UNL     1       0.237  10.693  20.707  0.00  0.00    +0.000 A 
ATOM     20  C   UNL     1      -0.562  11.616  21.438  0.00  0.00    +0.000 A 
ATOM     21  C   UNL     1      -1.049  11.245  22.687  0.00  0.00    +0.000 A 
ATOM     22  C   UNL     1      -0.690  10.020  23.196  0.00  0.00    +0.000 A 
ATOM     23  C   UNL     1       0.153   9.136  22.460  0.00  0.00    +0.000 A 
ATOM     24  C   UNL     1       0.615   9.438  21.137  0.00  0.00    +0.000 A 
ATOM     25  N   UNL     1       1.405   8.613  20.306  0.00  0.00    +0.000 NA
ENDBRANCH  15  16
ENDBRANCH  14  15
ENDBRANCH   5  14
TORSDOF 5
ENDMDL
MODEL 3
REMARK VINA RESULT:      -8.2      2.203      3.899
REMARK  Name = 
REMARK  6 active torsions:
REMARK  status: ('A' for Active; 'I' for Inactive)
REMARK    1  A    between atoms: C_1  and  C_2
REMARK    2  A    between atoms: C_2  and  C_3
REMARK    3  A    between atoms: C_6  and  C_7
REMARK    4  A    between atoms: C_11  and  O_12
REMARK    5  A    between atoms: O_12  and  C_13
REMARK    6  A    between atoms: C_13  and  C_14
REMARK                            x       y       z     vdW  Elec       q    Type
REMARK                         _______ _______ _______ _____ _____    ______ ____
ROOT
ATOM      1  C   UNL     1       4.295   5.223  17.063  0.00  0.00    +0.000 A 
ATOM      2  C   UNL     1       3.708   3.959  16.850  0.00  0.00    +0.000 A 
ATOM      3  C   UNL     1       2.668   3.550  17.688  0.00  0.00    +0.000 A 
ATOM      4  C   UNL     1       2.177   4.398  18.704  0.00  0.00    +0.000 A 
ATOM      5  C   UNL     1       2.698   5.692  18.894  0.00  0.00    +0.000 A 
ATOM      6  C   UNL     1       3.758   6.058  18.080  0.00  0.00    +0.000 A 
ENDROOT
BRANCH   1  10
ATOM      7  C   UNL     1       7.236   6.299  17.248  0.00  0.00    +0.000 C 
ATOM      8  N   UNL     1       7.598   5.090  16.911  0.00  0.00    +0.000 NA
ATOM      9  C   UNL     1       6.548   4.694  15.965  0.00  0.00    +0.000 C 
ATOM     10  C   UNL     1       5.416   5.698  16.168  0.00  0.00    +0.000 C 
ATOM     11  O   UNL     1       6.070   6.804  16.786  0.00  0.00    +0.000 OA
BRANCH   7  13
ATOM     12  C   UNL     1       7.888   8.630  17.700  0.00  0.00    +0.000 C 
ATOM     13  C   UNL     1       7.979   7.193  18.180  0.00  0.00    +0.000 C 
ENDBRANCH   7  13
ENDBRANCH   1  10
BRANCH   5  14
ATOM     14  O   UNL     1       2.152   6.528  19.878  0.00  0.00    +0.000 OA
BRANCH  14  15
ATOM     15  C   UNL     1       2.070   7.974  19.537  0.00  0.00    +0.000 C 
BRANCH  15  16
ATOM     16  C   UNL     1       1.044   8.866  20.329  0.00  0.00    +0.000 A 
ATOM     17  C   UNL     1       0.618   8.392  21.528  0.00  0.00    +0.000 A 
ATOM     18  C   UNL     1      -0.428   9.075  22.118  0.00  0.00    +0.000 A 
ATOM     19  C   UNL     1      -0.495  10.446  22.045  0.00  0.00    +0.000 A 
ATOM     20  C   UNL     1      -1.215  11.138  23.058  0.00  0.00    +0.000 A 
ATOM     21  C   UNL     1      -1.223  12.529  23.050  0.00  0.00    +0.000 A 
ATOM     22  C   UNL     1      -0.583  13.185  22.025  0.00  0.00    +0.000 A 
ATOM     23  C   UNL     1       0.090  12.461  20.996  0.00  0.00    +0.000 A 
ATOM     24  C   UNL     1       0.194  11.032  21.003  0.00  0.00    +0.000 A 
ATOM     25  N   UNL     1       0.879  10.228  20.066  0.00  0.00    +0.000 NA
ENDBRANCH  15  16
ENDBRANCH  14  15
ENDBRANCH   5  14
TORSDOF 5
ENDMDL
MODEL 4
REMARK VINA RESULT:      -8.1      2.317      4.103
REMARK  Name = 
REMARK  6 active torsions:
REMARK  status: ('A' for Active; 'I' for Inactive)
REMARK    1  A    between atoms: C_1  and  C_2
REMARK    2  A    between atoms: C_2  and  C_3
REMARK    3  A    between atoms: C_6  and  C_7
REMARK    4  A    between atoms: C_11  and  O_12
REMARK    5  A    between atoms: O_12  and  C_13
REMARK    6  A    between atoms: C_13  and  C_14
REMARK                            x       y       z     vdW  Elec       q    Type
REMARK                         _______ _______ _______ _____ _____    ______ ____
ROOT
ATOM      1  C   UNL     1       4.434   5.483  17.020  0.00  0.00    +0.000 A 
ATOM      2  C   UNL     1       3.726   4.269  16.911  0.00  0.00    +0.000 A 
ATOM      3  C   UNL     1       2.542   4.112  17.637  0.00  0.00    +0.000 A 
ATOM      4  C   UNL     1       2.034   5.161  18.433  0.00  0.00    +0.000 A 
ATOM      5  C   UNL     1       2.684   6.408  18.505  0.00  0.00    +0.000 A 
ATOM      6  C   UNL     1       3.879   6.524  17.812  0.00  0.00    +0.000 A 
ENDROOT
BRANCH   1  10
ATOM      7  C   UNL     1       7.426   6.313  17.471  0.00  0.00    +0.000 C 
ATOM      8  N   UNL     1       7.691   5.036  17.401  0.00  0.00    +0.000 NA
ATOM      9  C   UNL     1       6.740   4.567  16.385  0.00  0.00    +0.000 C 
ATOM     10  C   UNL     1       5.713   5.686  16.241  0.00  0.00    +0.000 C 
ATOM     11  O   UNL     1       6.398   6.826  16.757  0.00  0.00    +0.000 OA
BRANCH   7  13
ATOM     12  C   UNL     1       8.021   8.687  17.747  0.00  0.00    +0.000 C 
ATOM     13  C   UNL     1       8.132   7.295  18.341  0.00  0.00    +0.000 C 
ENDBRANCH   7  13
ENDBRANCH   1  10
BRANCH   5  14
ATOM     14  O   UNL     1       2.125   7.446  19.264  0.00  0.00    +0.000 OA
BRANCH  14  15
ATOM     15  C   UNL     1       1.665   8.638  18.504  0.00  0.00    +0.000 C 
BRANCH  15  16
ATOM     16  C   UNL     1       0.854   9.744  19.276  0.00  0.00    +0.000 A 
ATOM     17  C   UNL     1      -0.072  10.435  18.562  0.00  0.00    +0.000 A 
ATOM     18  C   UNL     1      -0.631  11.532  19.188  0.00  0.00    +0.000 A 
ATOM     19  C   UNL     1      -0.928  11.493  20.529  0.00  0.00    +0.000 A 
ATOM     20  C   UNL     1      -1.948  12.358  21.016  0.00  0.00    +0.000 A 
ATOM     21  C   UNL     1      -2.323  12.273  22.353  0.00  0.00    +0.000 A 
ATOM     22  C   UNL     1      -1.649  11.397  23.171  0.00  0.00    +0.000 A 
ATOM     23  C   UNL     1      -0.598  10.578  22.664  0.00  0.00    +0.000 A 
ATOM     24  C   UNL     1      -0.229  10.571  21.279  0.00  0.00    +0.000 A 
ATOM     25  N   UNL     1       0.756   9.763  20.668  0.00  0.00    +0.000 NA
ENDBRANCH  15  16
ENDBRANCH  14  15
ENDBRANCH   5  14
TORSDOF 5
ENDMDL
MODEL 5
REMARK VINA RESULT:      -8.0      2.195      3.878
REMARK  Name = 
REMARK  6 active torsions:
REMARK  status: ('A' for Active; 'I' for Inactive)
REMARK    1  A    between atoms: C_1  and  C_2
REMARK    2  A    between atoms: C_2  and  C_3
REMARK    3  A    between atoms: C_6  and  C_7
REMARK    4  A    between atoms: C_11  and  O_12
REMARK    5  A    between atoms: O_12  and  C_13
REMARK    6  A    between atoms: C_13  and  C_14
REMARK                            x       y       z     vdW  Elec       q    Type
REMARK                         _______ _______ _______ _____ _____    ______ ____
ROOT
ATOM      1  C   UNL     1       4.753   4.435  17.556  0.00  0.00    +0.000 A 
ATOM      2  C   UNL     1       4.001   3.245  17.499  0.00  0.00    +0.000 A 
ATOM      3  C   UNL     1       2.613   3.316  17.650  0.00  0.00    +0.000 A 
ATOM      4  C   UNL     1       1.964   4.559  17.812  0.00  0.00    +0.000 A 
ATOM      5  C   UNL     1       2.683   5.770  17.803  0.00  0.00    +0.000 A 
ATOM      6  C   UNL     1       4.062   5.669  17.697  0.00  0.00    +0.000 A 
ENDROOT
BRANCH   1  10
ATOM      7  C   UNL     1       6.957   5.016  15.399  0.00  0.00    +0.000 C 
ATOM      8  N   UNL     1       7.150   6.139  16.037  0.00  0.00    +0.000 NA
ATOM      9  C   UNL     1       6.948   5.750  17.438  0.00  0.00    +0.000 C 
ATOM     10  C   UNL     1       6.254   4.392  17.388  0.00  0.00    +0.000 C 
ATOM     11  O   UNL     1       6.564   3.916  16.080  0.00  0.00    +0.000 OA
BRANCH   7  13
ATOM     12  C   UNL     1       6.025   3.840  13.447  0.00  0.00    +0.000 C 
ATOM     13  C   UNL     1       7.070   4.831  13.925  0.00  0.00    +0.000 C 
ENDBRANCH   7  13
ENDBRANCH   1  10
BRANCH   5  14
ATOM     14  O   UNL     1       2.002   6.989  17.914  0.00  0.00    +0.000 OA
BRANCH  14  15
ATOM     15  C   UNL     1       2.478   7.911  18.980  0.00  0.00    +0.000 C 
BRANCH  15  16
ATOM     16  C   UNL     1       1.406   8.587  19.911  0.00  0.00    +0.000 A 
ATOM     17  C   UNL     1       1.254   8.060  21.154  0.00  0.00    +0.000 A 
ATOM     18  C   UNL     1       0.179   8.523  21.887  0.00  0.00    +0.000 A 
ATOM     19  C   UNL     1      -0.182   9.848  21.834  0.00  0.00    +0.000 A 
ATOM     20  C   UNL     1      -0.887  10.397  22.942  0.00  0.00    +0.000 A 
ATOM     21  C   UNL     1      -1.186  11.756  22.945  0.00  0.00    +0.000 A 
ATOM     22  C   UNL     1      -0.842  12.508  21.847  0.00  0.00    +0.000 A 
ATOM     23  C   UNL     1      -0.179  11.919  20.730  0.00  0.00    +0.000 A 
ATOM     24  C   UNL     1       0.221  10.543  20.713  0.00  0.00    +0.000 A 
ATOM     25  N   UNL     1       0.926   9.879  19.684  0.00  0.00    +0.000 NA
ENDBRANCH  15  16
ENDBRANCH  14  15
ENDBRANCH   5  14
TORSDOF 5
ENDMDL
MODEL 6
REMARK VINA RESULT:      -7.9      2.237      4.182
REMARK  Name = 
REMARK  6 active torsions:
REMARK  status: ('A' for Active; 'I' for Inactive)
REMARK    1  A    between atoms: C_1  and  C_2
REMARK    2  A    between atoms: C_2  and  C_3
REMARK    3  A    between atoms: C_6  and  C_7
REMARK    4  A    between atoms: C_11  and  O_12
REMARK    5  A    between atoms: O_12  and  C_13
REMARK    6  A    between atoms: C_13  and  C_14
REMARK                            x       y       z     vdW  Elec       q    Type
REMARK                         _______ _______ _______ _____ _____    ______ ____
ROOT
ATOM      1  C   UNL     1       4.663   4.277  17.297  0.00  0.00    +0.000 A 
ATOM      2  C   UNL     1       3.774   3.241  16.946  0.00  0.00    +0.000 A 
ATOM      3  C   UNL     1       2.476   3.263  17.463  0.00  0.00    +0.000 A 
ATOM      4  C   UNL     1       2.040   4.324  18.285  0.00  0.00    +0.000 A 
ATOM      5  C   UNL     1       2.884   5.407  18.595  0.00  0.00    +0.000 A 
ATOM      6  C   UNL     1       4.180   5.339  18.108  0.00  0.00    +0.000 A 
ENDROOT
BRANCH   1  10
ATOM      7  C   UNL     1       6.181   4.330  14.552  0.00  0.00    +0.000 C 
ATOM      8  N   UNL     1       6.359   5.603  14.784  0.00  0.00    +0.000 NA
ATOM      9  C   UNL     1       6.555   5.639  16.238  0.00  0.00    +0.000 C 
ATOM     10  C   UNL     1       6.071   4.286  16.749  0.00  0.00    +0.000 C 
ATOM     11  O   UNL     1       6.124   3.461  15.586  0.00  0.00    +0.000 OA
BRANCH   7  13
ATOM     12  C   UNL     1       7.045   4.182  12.250  0.00  0.00    +0.000 C 
ATOM     13  C   UNL     1       5.964   3.720  13.210  0.00  0.00    +0.000 C 
ENDBRANCH   7  13
ENDBRANCH   1  10
BRANCH   5  14
ATOM     14  O   UNL     1       2.403   6.469  19.372  0.00  0.00    +0.000 OA
BRANCH  14  15
ATOM     15  C   UNL     1       2.249   7.774  18.674  0.00  0.00    +0.000 C 
BRANCH  15  16
ATOM     16  C   UNL     1       1.549   8.952  19.448  0.00  0.00    +0.000 A 
ATOM     17  C   UNL     1       0.883   9.867  18.698  0.00  0.00    +0.000 A 
ATOM     18  C   UNL     1       0.448  10.999  19.359  0.00  0.00    +0.000 A 
ATOM     19  C   UNL     1      -0.047  10.912  20.638  0.00  0.00    +0.000 A 
ATOM     20  C   UNL     1      -0.952  11.919  21.078  0.00  0.00    +0.000 A 
ATOM     21  C   UNL     1      -1.531  11.803  22.337  0.00  0.00    +0.000 A 
ATOM     22  C   UNL     1      -1.160  10.748  23.138  0.00  0.00    +0.000 A 
ATOM     23  C   UNL     1      -0.213   9.781  22.687  0.00  0.00    +0.000 A 
ATOM     24  C   UNL     1       0.350   9.812  21.369  0.00  0.00    +0.000 A 
ATOM     25  N   UNL     1       1.249   8.878  20.810  0.00  0.00    +0.000 NA
ENDBRANCH  15  16
ENDBRANCH  14  15
ENDBRANCH   5  14
TORSDOF 5
ENDMDL
MODEL 7
REMARK VINA RESULT:      -7.8      2.241      4.067
REMARK  Name = 
REMARK  6 active torsions:
REMARK  status: ('A' for Active; 'I' for Inactive)
REMARK    1  A    between atoms: C_1  and  C_2
REMARK    2  A    between atoms: C_2  and  C_3
REMARK    3  A    between atoms: C_6  and  C_7
REMARK    4  A    between atoms: C_11  and  O_12
REMARK    5  A    between atoms: O_12  and  C_13
REMARK    6  A    between atoms: C_13  and  C_14
REMARK                            x       y       z     vdW  Elec       q    Type
REMARK                         _______ _______ _______ _____ _____    ______ ____
ROOT
ATOM      1  C   UNL     1       5.292   4.725  18.556  0.00  0.00    +0.000 A 
ATOM      2  C   UNL     1       4.874   3.507  19.127  0.00  0.00    +0.000 A 
ATOM      3  C   UNL     1       3.515   3.320  19.397  0.00  0.00    +0.000 A 
ATOM      4  C   UNL     1       2.567   4.311  19.065  0.00  0.00    +0.000 A 
ATOM      5  C   UNL     1       2.948   5.509  18.431  0.00  0.00    +0.000 A 
ATOM      6  C   UNL     1       4.305   5.689  18.215  0.00  0.00    +0.000 A 
ENDROOT
BRANCH   1  10
ATOM      7  C   UNL     1       7.180   5.277  16.112  0.00  0.00    +0.000 C 
ATOM      8  N   UNL     1       7.159   6.525  16.499  0.00  0.00    +0.000 NA
ATOM      9  C   UNL     1       7.132   6.405  17.962  0.00  0.00    +0.000 C 
ATOM     10  C   UNL     1       6.753   4.954  18.246  0.00  0.00    +0.000 C 
ATOM     11  O   UNL     1       7.082   4.288  17.028  0.00  0.00    +0.000 OA
BRANCH   7  13
ATOM     12  C   UNL     1       6.057   3.916  14.394  0.00  0.00    +0.000 C 
ATOM     13  C   UNL     1       7.243   4.814  14.697  0.00  0.00    +0.000 C 
ENDBRANCH   7  13
ENDBRANCH   1  10
BRANCH   5  14
ATOM     14  O   UNL     1       1.974   6.449  18.068  0.00  0.00    +0.000 OA
BRANCH  14  15
ATOM     15  C   UNL     1       2.423   7.866  18.004  0.00  0.00    +0.000 C 
BRANCH  15  16
ATOM     16  C   UNL     1       1.816   8.885  19.037  0.00  0.00    +0.000 A 
ATOM     17  C   UNL     1       1.172   9.966  18.525  0.00  0.00    +0.000 A 
ATOM     18  C   UNL     1       0.822  10.952  19.426  0.00  0.00    +0.000 A 
ATOM     19  C   UNL     1       0.370  10.621  20.681  0.00  0.00    +0.000 A 
ATOM     20  C   UNL     1      -0.463  11.553  21.362  0.00  0.00    +0.000 A 
ATOM     21  C   UNL     1      -1.000  11.201  22.596  0.00  0.00    +0.000 A 
ATOM     22  C   UNL     1      -0.656   9.987  23.142  0.00  0.00    +0.000 A 
ATOM     23  C   UNL     1       0.221   9.095  22.456  0.00  0.00    +0.000 A 
ATOM     24  C   UNL     1       0.736   9.377  21.149  0.00  0.00    +0.000 A 
ATOM     25  N   UNL     1       1.563   8.541  20.366  0.00  0.00    +0.000 NA
ENDBRANCH  15  16
ENDBRANCH  14  15
ENDBRANCH   5  14
TORSDOF 5
ENDMDL
MODEL 8
REMARK VINA RESULT:      -7.7      2.146      3.863
REMARK  Name = 
REMARK  6 active torsions:
REMARK  status: ('A' for Active; 'I' for Inactive)
REMARK    1  A    between atoms: C_1  and  C_2
REMARK    2  A    between atoms: C_2  and  C_3
REMARK    3  A    between atoms: C_6  and  C_7
REMARK    4  A    between atoms: C_11  and  O_12
REMARK    5  A    between atoms: O_12  and  C_13
REMARK    6  A    between atoms: C_13  and  C_14
REMARK                            x       y       z     vdW  Elec       q    Type
REMARK                         _______ _______ _______ _____ _____    ______ ____
ROOT
ATOM      1  C   UNL     1       4.244   4.407  16.889  0.00  0.00    +0.000 A 
ATOM      2  C   UNL     1       4.025   3.032  17.111  0.00  0.00    +0.000 A 
ATOM      3  C   UNL     1       3.071   2.646  18.056  0.00  0.00    +0.000 A 
ATOM      4  C   UNL     1       2.303   3.607  18.748  0.00  0.00    +0.000 A 
ATOM      5  C   UNL     1       2.452   4.985  18.496  0.00  0.00    +0.000 A 
ATOM      6  C   UNL     1       3.436   5.344  17.588  0.00  0.00    +0.000 A 
ENDROOT
BRANCH   1  10
ATOM      7  C   UNL     1       6.967   5.956  16.722  0.00  0.00    +0.000 C 
ATOM      8  N   UNL     1       7.522   4.777  16.625  0.00  0.00    +0.000 NA
ATOM      9  C   UNL     1       6.543   4.028  15.827  0.00  0.00    +0.000 C 
ATOM     10  C   UNL     1       5.263   4.857  15.868  0.00  0.00    +0.000 C 
ATOM     11  O   UNL     1       5.729   6.159  16.217  0.00  0.00    +0.000 OA
BRANCH   7  13
ATOM     12  C   UNL     1       8.071   6.723  18.785  0.00  0.00    +0.000 C 
ATOM     13  C   UNL     1       7.559   7.133  17.416  0.00  0.00    +0.000 C 
ENDBRANCH   7  13
ENDBRANCH   1  10
BRANCH   5  14
ATOM     14  O   UNL     1       1.638   5.910  19.163  0.00  0.00    +0.000 OA
BRANCH  14  15
ATOM     15  C   UNL     1       2.318   6.789  20.152  0.00  0.00    +0.000 C 
BRANCH  15  16
ATOM     16  C   UNL     1       1.658   8.175  20.491  0.00  0.00    +0.000 A 
ATOM     17  C   UNL     1       1.231   8.924  19.441  0.00  0.00    +0.000 A 
ATOM     18  C   UNL     1       0.842  10.217  19.731  0.00  0.00    +0.000 A 
ATOM     19  C   UNL     1       0.149  10.494  20.886  0.00  0.00    +0.000 A 
ATOM     20  C   UNL     1      -0.682  11.649  20.909  0.00  0.00    +0.000 A 
ATOM     21  C   UNL     1      -1.457  11.900  22.037  0.00  0.00    +0.000 A 
ATOM     22  C   UNL     1      -1.344  11.053  23.115  0.00  0.00    +0.000 A 
ATOM     23  C   UNL     1      -0.465   9.930  23.079  0.00  0.00    +0.000 A 
ATOM     24  C   UNL     1       0.293   9.585  21.913  0.00  0.00    +0.000 A 
ATOM     25  N   UNL     1       1.146   8.470  21.757  0.00  0.00    +0.000 NA
ENDBRANCH  15  16
ENDBRANCH  14  15
ENDBRANCH   5  14
TORSDOF 5
ENDMDL
MODEL 9
REMARK VINA RESULT:      -7.7      2.822      4.277
REMARK  Name = 
REMARK  6 active torsions:
REMARK  status: ('A' for Active; 'I' for Inactive)
REMARK    1  A    between atoms: C_1  and  C_2
REMARK    2  A    between atoms: C_2  and  C_3
REMARK    3  A    between atoms: C_6  and  C_7
REMARK    4  A    between atoms: C_11  and  O_12
REMARK    5  A    between atoms: O_12  and  C_13
REMARK    6  A    between atoms: C_13  and  C_14
REMARK                            x       y       z     vdW  Elec       q    Type
REMARK                         _______ _______ _______ _____ _____    ______ ____
ROOT
ATOM      1  C   UNL     1       4.785   4.825  17.651  0.00  0.00    +0.000 A 
ATOM      2  C   UNL     1       3.851   3.853  17.239  0.00  0.00    +0.000 A 
ATOM      3  C   UNL     1       2.490   4.101  17.434  0.00  0.00    +0.000 A 
ATOM      4  C   UNL     1       2.046   5.320  17.990  0.00  0.00    +0.000 A 
ATOM      5  C   UNL     1       2.952   6.337  18.347  0.00  0.00    +0.000 A 
ATOM      6  C   UNL     1       4.299   6.049  18.186  0.00  0.00    +0.000 A 
ENDROOT
BRANCH   1  10
ATOM      7  C   UNL     1       6.962   4.966  15.396  0.00  0.00    +0.000 C 
ATOM      8  N   UNL     1       7.307   6.106  15.934  0.00  0.00    +0.000 NA
ATOM      9  C   UNL     1       7.112   5.855  17.367  0.00  0.00    +0.000 C 
ATOM     10  C   UNL     1       6.263   4.590  17.448  0.00  0.00    +0.000 C 
ATOM     11  O   UNL     1       6.469   3.978  16.177  0.00  0.00    +0.000 OA
BRANCH   7  13
ATOM     12  C   UNL     1       5.782   3.831  13.557  0.00  0.00    +0.000 C 
ATOM     13  C   UNL     1       6.999   4.653  13.940  0.00  0.00    +0.000 C 
ENDBRANCH   7  13
ENDBRANCH   1  10
BRANCH   5  14
ATOM     14  O   UNL     1       2.475   7.555  18.848  0.00  0.00    +0.000 OA
BRANCH  14  15
ATOM     15  C   UNL     1       2.261   8.636  17.850  0.00  0.00    +0.000 C 
BRANCH  15  16
ATOM     16  C   UNL     1       1.136   9.699  18.134  0.00  0.00    +0.000 A 
ATOM     17  C   UNL     1      -0.140   9.327  17.859  0.00  0.00    +0.000 A 
ATOM     18  C   UNL     1      -1.093  10.325  17.918  0.00  0.00    +0.000 A 
ATOM     19  C   UNL     1      -1.029  11.293  18.892  0.00  0.00    +0.000 A 
ATOM     20  C   UNL     1      -2.236  11.946  19.269  0.00  0.00    +0.000 A 
ATOM     21  C   UNL     1      -2.207  12.868  20.312  0.00  0.00    +0.000 A 
ATOM     22  C   UNL     1      -0.999  13.159  20.899  0.00  0.00    +0.000 A 
ATOM     23  C   UNL     1       0.202  12.523  20.465  0.00  0.00    +0.000 A 
ATOM     24  C   UNL     1       0.212  11.510  19.451  0.00  0.00    +0.000 A 
ATOM     25  N   UNL     1       1.333  10.785  18.990  0.00  0.00    +0.000 NA
ENDBRANCH  15  16
ENDBRANCH  14  15
ENDBRANCH   5  14
TORSDOF 5
ENDMDL
