MODEL 1
REMARK VINA RESULT:      -7.4      0.000      0.000
REMARK  Name = 
REMARK  3 active torsions:
REMARK  status: ('A' for Active; 'I' for Inactive)
REMARK    1  A    between atoms: C_2  and  C_3
REMARK    2  A    between atoms: C_7  and  N_8
REMARK    3  A    between atoms: C_20  and  C_22
REMARK                            x       y       z     vdW  Elec       q    Type
REMARK                         _______ _______ _______ _____ _____    ______ ____
ROOT
ATOM      1  N   UNL     1       2.252   6.928  18.843  0.00  0.00    +0.000 N 
ATOM      2  C   UNL     1       2.239   8.198  18.320  0.00  0.00    +0.000 C 
ATOM      3  O   UNL     1       2.678   8.490  17.210  0.00  0.00    +0.000 OA
ATOM      4  N   UNL     1       1.634   9.158  19.120  0.00  0.00    +0.000 N 
ATOM      5  C   UNL     1       1.433  10.480  18.539  0.00  0.00    +0.000 C 
ATOM      6  C   UNL     1      -0.016  10.907  18.719  0.00  0.00    +0.000 C 
ATOM      7  C   UNL     1      -0.457  10.882  20.207  0.00  0.00    +0.000 C 
ATOM      8  C   UNL     1      -0.173   9.462  20.761  0.00  0.00    +0.000 C 
ATOM      9  C   UNL     1       1.282   9.041  20.536  0.00  0.00    +0.000 C 
ATOM     10  C   UNL     1       0.299  11.939  21.058  0.00  0.00    +0.000 C 
ATOM     11  C   UNL     1      -0.034  13.367  20.640  0.00  0.00    +0.000 C 
ATOM     12  N   UNL     1      -1.475  13.576  20.691  0.00  0.00    +0.000 N 
ATOM     13  C   UNL     1      -1.956  14.668  21.421  0.00  0.00    +0.000 C 
ATOM     14  O   UNL     1      -1.202  15.492  21.941  0.00  0.00    +0.000 OA
ATOM     15  C   UNL     1      -2.264  12.641  19.881  0.00  0.00    +0.000 C 
ATOM     16  C   UNL     1      -1.971  11.197  20.299  0.00  0.00    +0.000 C 
ATOM     17  H   UNL     1       1.583   6.748  19.573  0.00  0.00    +0.000 HD
ENDROOT
BRANCH   1  22
ATOM     18  C   UNL     1       4.825   4.678  17.440  0.00  0.00    +0.000 A 
ATOM     19  C   UNL     1       4.075   3.544  17.118  0.00  0.00    +0.000 A 
ATOM     20  C   UNL     1       2.699   3.542  17.327  0.00  0.00    +0.000 A 
ATOM     21  C   UNL     1       2.075   4.664  17.872  0.00  0.00    +0.000 A 
ATOM     22  C   UNL     1       2.819   5.789  18.234  0.00  0.00    +0.000 A 
ATOM     23  C   UNL     1       4.196   5.800  17.994  0.00  0.00    +0.000 A 
BRANCH  18  25
ATOM     24  N   UNL     1       7.383   4.720  17.023  0.00  0.00    +0.000 NA
ATOM     25  C   UNL     1       6.239   4.697  17.207  0.00  0.00    +0.000 C 
ENDBRANCH  18  25
ENDBRANCH   1  22
BRANCH  13  26
ATOM     26  C   UNL     1      -3.416  14.888  21.584  0.00  0.00    +0.000 A 
ATOM     27  C   UNL     1      -4.084  14.225  22.606  0.00  0.00    +0.000 A 
ATOM     28  N   UNL     1      -5.406  14.409  22.849  0.00  0.00    +0.000 NA
ATOM     29  C   UNL     1      -6.030  15.273  22.023  0.00  0.00    +0.000 A 
ATOM     30  C   UNL     1      -5.377  15.916  20.983  0.00  0.00    +0.000 A 
ATOM     31  N   UNL     1      -4.069  15.722  20.726  0.00  0.00    +0.000 NA
ENDBRANCH  13  26
TORSDOF 3
ENDMDL
MODEL 2
REMARK VINA RESULT:      -7.3      2.181      3.007
REMARK  Name = 
REMARK  3 active torsions:
REMARK  status: ('A' for Active; 'I' for Inactive)
REMARK    1  A    between atoms: C_2  and  C_3
REMARK    2  A    between atoms: C_7  and  N_8
REMARK    3  A    between atoms: C_20  and  C_22
REMARK                            x       y       z     vdW  Elec       q    Type
REMARK                         _______ _______ _______ _____ _____    ______ ____
ROOT
ATOM      1  N   UNL     1       4.144   7.198  17.492  0.00  0.00    +0.000 N 
ATOM      2  C   UNL     1       3.183   7.068  18.465  0.00  0.00    +0.000 C 
ATOM      3  O   UNL     1       3.147   6.145  19.277  0.00  0.00    +0.000 OA
ATOM      4  N   UNL     1       2.254   8.097  18.517  0.00  0.00    +0.000 N 
ATOM      5  C   UNL     1       1.324   8.101  19.640  0.00  0.00    +0.000 C 
ATOM      6  C   UNL     1       1.335   9.465  20.314  0.00  0.00    +0.000 C 
ATOM      7  C   UNL     1       1.011  10.614  19.322  0.00  0.00    +0.000 C 
ATOM      8  C   UNL     1       2.011  10.517  18.141  0.00  0.00    +0.000 C 
ATOM      9  C   UNL     1       2.008   9.124  17.503  0.00  0.00    +0.000 C 
ATOM     10  C   UNL     1      -0.444  10.530  18.787  0.00  0.00    +0.000 C 
ATOM     11  C   UNL     1      -1.481  10.741  19.885  0.00  0.00    +0.000 C 
ATOM     12  N   UNL     1      -1.236  12.008  20.561  0.00  0.00    +0.000 N 
ATOM     13  C   UNL     1      -2.299  12.911  20.672  0.00  0.00    +0.000 C 
ATOM     14  O   UNL     1      -3.439  12.632  20.296  0.00  0.00    +0.000 OA
ATOM     15  C   UNL     1       0.108  12.154  21.133  0.00  0.00    +0.000 C 
ATOM     16  C   UNL     1       1.170  11.975  20.044  0.00  0.00    +0.000 C 
ATOM     17  H   UNL     1       4.276   8.127  17.128  0.00  0.00    +0.000 HD
ENDROOT
BRANCH   1  22
ATOM     18  C   UNL     1       6.222   4.770  15.639  0.00  0.00    +0.000 A 
ATOM     19  C   UNL     1       7.251   4.514  16.549  0.00  0.00    +0.000 A 
ATOM     20  C   UNL     1       7.232   5.117  17.803  0.00  0.00    +0.000 A 
ATOM     21  C   UNL     1       6.197   5.988  18.142  0.00  0.00    +0.000 A 
ATOM     22  C   UNL     1       5.182   6.282  17.227  0.00  0.00    +0.000 A 
ATOM     23  C   UNL     1       5.187   5.650  15.980  0.00  0.00    +0.000 A 
BRANCH  18  25
ATOM     24  N   UNL     1       6.229   3.622  13.315  0.00  0.00    +0.000 NA
ATOM     25  C   UNL     1       6.221   4.134  14.354  0.00  0.00    +0.000 C 
ENDBRANCH  18  25
ENDBRANCH   1  22
BRANCH  13  26
ATOM     26  C   UNL     1      -2.095  14.254  21.274  0.00  0.00    +0.000 A 
ATOM     27  C   UNL     1      -2.435  14.449  22.608  0.00  0.00    +0.000 A 
ATOM     28  N   UNL     1      -2.237  15.631  23.243  0.00  0.00    +0.000 NA
ATOM     29  C   UNL     1      -1.694  16.608  22.488  0.00  0.00    +0.000 A 
ATOM     30  C   UNL     1      -1.379  16.429  21.150  0.00  0.00    +0.000 A 
ATOM     31  N   UNL     1      -1.592  15.263  20.510  0.00  0.00    +0.000 NA
ENDBRANCH  13  26
TORSDOF 3
ENDMDL
MODEL 3
REMARK VINA RESULT:      -7.3      1.801      2.094
REMARK  Name = 
REMARK  3 active torsions:
REMARK  status: ('A' for Active; 'I' for Inactive)
REMARK    1  A    between atoms: C_2  and  C_3
REMARK    2  A    between atoms: C_7  and  N_8
REMARK    3  A    between atoms: C_20  and  C_22
REMARK                            x       y       z     vdW  Elec       q    Type
REMARK                         _______ _______ _______ _____ _____    ______ ____
ROOT
ATOM      1  N   UNL     1       2.084   6.157  19.416  0.00  0.00    +0.000 N 
ATOM      2  C   UNL     1       2.347   7.330  18.749  0.00  0.00    +0.000 C 
ATOM      3  O   UNL     1       2.900   7.388  17.652  0.00  0.00    +0.000 OA
ATOM      4  N   UNL     1       1.891   8.479  19.377  0.00  0.00    +0.000 N 
ATOM      5  C   UNL     1       1.983   9.729  18.632  0.00  0.00    +0.000 C 
ATOM      6  C   UNL     1       0.635  10.434  18.638  0.00  0.00    +0.000 C 
ATOM      7  C   UNL     1       0.109  10.684  20.077  0.00  0.00    +0.000 C 
ATOM      8  C   UNL     1       0.080   9.321  20.815  0.00  0.00    +0.000 C 
ATOM      9  C   UNL     1       1.438   8.615  20.763  0.00  0.00    +0.000 C 
ATOM     10  C   UNL     1       1.001  11.687  20.859  0.00  0.00    +0.000 C 
ATOM     11  C   UNL     1       0.975  13.085  20.251  0.00  0.00    +0.000 C 
ATOM     12  N   UNL     1      -0.398  13.559  20.157  0.00  0.00    +0.000 N 
ATOM     13  C   UNL     1      -0.704  14.806  20.711  0.00  0.00    +0.000 C 
ATOM     14  O   UNL     1       0.162  15.540  21.193  0.00  0.00    +0.000 OA
ATOM     15  C   UNL     1      -1.303  12.688  19.397  0.00  0.00    +0.000 C 
ATOM     16  C   UNL     1      -1.319  11.282  20.005  0.00  0.00    +0.000 C 
ATOM     17  H   UNL     1       1.350   6.199  20.102  0.00  0.00    +0.000 HD
ENDROOT
BRANCH   1  22
ATOM     18  C   UNL     1       3.694   2.833  19.473  0.00  0.00    +0.000 A 
ATOM     19  C   UNL     1       3.191   2.246  18.308  0.00  0.00    +0.000 A 
ATOM     20  C   UNL     1       2.348   2.974  17.475  0.00  0.00    +0.000 A 
ATOM     21  C   UNL     1       1.992   4.280  17.812  0.00  0.00    +0.000 A 
ATOM     22  C   UNL     1       2.456   4.865  18.993  0.00  0.00    +0.000 A 
ATOM     23  C   UNL     1       3.329   4.141  19.812  0.00  0.00    +0.000 A 
BRANCH  18  25
ATOM     24  N   UNL     1       5.293   1.500  21.017  0.00  0.00    +0.000 NA
ATOM     25  C   UNL     1       4.582   2.098  20.325  0.00  0.00    +0.000 C 
ENDBRANCH  18  25
ENDBRANCH   1  22
BRANCH  13  26
ATOM     26  C   UNL     1      -2.101  15.311  20.724  0.00  0.00    +0.000 A 
ATOM     27  C   UNL     1      -2.364  16.569  20.195  0.00  0.00    +0.000 A 
ATOM     28  N   UNL     1      -3.619  17.081  20.128  0.00  0.00    +0.000 NA
ATOM     29  C   UNL     1      -4.593  16.288  20.618  0.00  0.00    +0.000 A 
ATOM     30  C   UNL     1      -4.335  15.045  21.175  0.00  0.00    +0.000 A 
ATOM     31  N   UNL     1      -3.088  14.540  21.261  0.00  0.00    +0.000 NA
ENDBRANCH  13  26
TORSDOF 3
ENDMDL
MODEL 4
REMARK VINA RESULT:      -7.0      0.972      1.220
REMARK  Name = 
REMARK  3 active torsions:
REMARK  status: ('A' for Active; 'I' for Inactive)
REMARK    1  A    between atoms: C_2  and  C_3
REMARK    2  A    between atoms: C_7  and  N_8
REMARK    3  A    between atoms: C_20  and  C_22
REMARK                            x       y       z     vdW  Elec       q    Type
REMARK                         _______ _______ _______ _____ _____    ______ ____
ROOT
ATOM      1  N   UNL     1       2.162   7.700  18.931  0.00  0.00    +0.000 N 
ATOM      2  C   UNL     1       1.971   8.945  18.383  0.00  0.00    +0.000 C 
ATOM      3  O   UNL     1       2.242   9.233  17.219  0.00  0.00    +0.000 OA
ATOM      4  N   UNL     1       1.386   9.877  19.229  0.00  0.00    +0.000 N 
ATOM      5  C   UNL     1       0.998  11.156  18.646  0.00  0.00    +0.000 C 
ATOM      6  C   UNL     1      -0.451  11.462  18.996  0.00  0.00    +0.000 C 
ATOM      7  C   UNL     1      -0.701  11.453  20.528  0.00  0.00    +0.000 C 
ATOM      8  C   UNL     1      -0.225  10.083  21.077  0.00  0.00    +0.000 C 
ATOM      9  C   UNL     1       1.223   9.780  20.681  0.00  0.00    +0.000 C 
ATOM     10  C   UNL     1       0.056  12.600  21.250  0.00  0.00    +0.000 C 
ATOM     11  C   UNL     1      -0.451  13.979  20.843  0.00  0.00    +0.000 C 
ATOM     12  N   UNL     1      -1.888  14.065  21.070  0.00  0.00    +0.000 N 
ATOM     13  C   UNL     1      -2.371  15.137  21.828  0.00  0.00    +0.000 C 
ATOM     14  O   UNL     1      -1.636  16.041  22.229  0.00  0.00    +0.000 OA
ATOM     15  C   UNL     1      -2.684  13.038  20.388  0.00  0.00    +0.000 C 
ATOM     16  C   UNL     1      -2.214  11.640  20.802  0.00  0.00    +0.000 C 
ATOM     17  H   UNL     1       1.607   7.489  19.743  0.00  0.00    +0.000 HD
ENDROOT
BRANCH   1  22
ATOM     18  C   UNL     1       4.692   5.676  17.156  0.00  0.00    +0.000 A 
ATOM     19  C   UNL     1       4.058   4.435  17.061  0.00  0.00    +0.000 A 
ATOM     20  C   UNL     1       2.764   4.280  17.549  0.00  0.00    +0.000 A 
ATOM     21  C   UNL     1       2.111   5.358  18.147  0.00  0.00    +0.000 A 
ATOM     22  C   UNL     1       2.749   6.593  18.284  0.00  0.00    +0.000 A 
ATOM     23  C   UNL     1       4.037   6.754  17.763  0.00  0.00    +0.000 A 
BRANCH  18  25
ATOM     24  N   UNL     1       7.086   5.999  16.214  0.00  0.00    +0.000 NA
ATOM     25  C   UNL     1       6.017   5.850  16.634  0.00  0.00    +0.000 C 
ENDBRANCH  18  25
ENDBRANCH   1  22
BRANCH  13  26
ATOM     26  C   UNL     1      -3.814  15.237  22.168  0.00  0.00    +0.000 A 
ATOM     27  C   UNL     1      -4.632  16.042  21.383  0.00  0.00    +0.000 A 
ATOM     28  N   UNL     1      -5.967  16.150  21.600  0.00  0.00    +0.000 NA
ATOM     29  C   UNL     1      -6.445  15.430  22.635  0.00  0.00    +0.000 A 
ATOM     30  C   UNL     1      -5.630  14.649  23.439  0.00  0.00    +0.000 A 
ATOM     31  N   UNL     1      -4.300  14.553  23.240  0.00  0.00    +0.000 NA
ENDBRANCH  13  26
TORSDOF 3
ENDMDL
MODEL 5
REMARK VINA RESULT:      -6.9      2.143      2.727
REMARK  Name = 
REMARK  3 active torsions:
REMARK  status: ('A' for Active; 'I' for Inactive)
REMARK    1  A    between atoms: C_2  and  C_3
REMARK    2  A    between atoms: C_7  and  N_8
REMARK    3  A    between atoms: C_20  and  C_22
REMARK                            x       y       z     vdW  Elec       q    Type
REMARK                         _______ _______ _______ _____ _____    ______ ____
ROOT
ATOM      1  N   UNL     1       1.611   8.195  20.239  0.00  0.00    +0.000 N 
ATOM      2  C   UNL     1       1.153   9.158  19.372  0.00  0.00    +0.000 C 
ATOM      3  O   UNL     1       1.099   9.015  18.152  0.00  0.00    +0.000 OA
ATOM      4  N   UNL     1       0.692  10.320  19.973  0.00  0.00    +0.000 N 
ATOM      5  C   UNL     1       0.033  11.298  19.116  0.00  0.00    +0.000 C 
ATOM      6  C   UNL     1      -1.312  11.684  19.714  0.00  0.00    +0.000 C 
ATOM      7  C   UNL     1      -1.178  12.220  21.165  0.00  0.00    +0.000 C 
ATOM      8  C   UNL     1      -0.433  11.146  22.000  0.00  0.00    +0.000 C 
ATOM      9  C   UNL     1       0.900  10.747  21.358  0.00  0.00    +0.000 C 
ATOM     10  C   UNL     1      -0.401  13.563  21.223  0.00  0.00    +0.000 C 
ATOM     11  C   UNL     1      -1.143  14.695  20.522  0.00  0.00    +0.000 C 
ATOM     12  N   UNL     1      -2.481  14.831  21.082  0.00  0.00    +0.000 N 
ATOM     13  C   UNL     1      -2.882  16.095  21.528  0.00  0.00    +0.000 C 
ATOM     14  O   UNL     1      -2.177  17.095  21.385  0.00  0.00    +0.000 OA
ATOM     15  C   UNL     1      -3.300  13.615  21.030  0.00  0.00    +0.000 C 
ATOM     16  C   UNL     1      -2.590  12.466  21.754  0.00  0.00    +0.000 C 
ATOM     17  H   UNL     1       1.297   8.279  21.192  0.00  0.00    +0.000 HD
ENDROOT
BRANCH   1  22
ATOM     18  C   UNL     1       2.309   4.570  20.368  0.00  0.00    +0.000 A 
ATOM     19  C   UNL     1       3.060   4.377  19.206  0.00  0.00    +0.000 A 
ATOM     20  C   UNL     1       3.375   5.464  18.397  0.00  0.00    +0.000 A 
ATOM     21  C   UNL     1       2.926   6.740  18.738  0.00  0.00    +0.000 A 
ATOM     22  C   UNL     1       2.142   6.940  19.876  0.00  0.00    +0.000 A 
ATOM     23  C   UNL     1       1.854   5.850  20.704  0.00  0.00    +0.000 A 
BRANCH  18  25
ATOM     24  N   UNL     1       1.757   2.556  21.904  0.00  0.00    +0.000 NA
ATOM     25  C   UNL     1       2.001   3.458  21.220  0.00  0.00    +0.000 C 
ENDBRANCH  18  25
ENDBRANCH   1  22
BRANCH  13  26
ATOM     26  C   UNL     1      -4.201  16.285  22.186  0.00  0.00    +0.000 A 
ATOM     27  C   UNL     1      -4.295  16.104  23.561  0.00  0.00    +0.000 A 
ATOM     28  N   UNL     1      -5.452  16.304  24.242  0.00  0.00    +0.000 NA
ATOM     29  C   UNL     1      -6.507  16.681  23.491  0.00  0.00    +0.000 A 
ATOM     30  C   UNL     1      -6.427  16.835  22.116  0.00  0.00    +0.000 A 
ATOM     31  N   UNL     1      -5.285  16.619  21.433  0.00  0.00    +0.000 NA
ENDBRANCH  13  26
TORSDOF 3
ENDMDL
MODEL 6
REMARK VINA RESULT:      -6.9      2.096      2.975
REMARK  Name = 
REMARK  3 active torsions:
REMARK  status: ('A' for Active; 'I' for Inactive)
REMARK    1  A    between atoms: C_2  and  C_3
REMARK    2  A    between atoms: C_7  and  N_8
REMARK    3  A    between atoms: C_20  and  C_22
REMARK                            x       y       z     vdW  Elec       q    Type
REMARK                         _______ _______ _______ _____ _____    ______ ____
ROOT
ATOM      1  N   UNL     1       2.887   7.634  17.975  0.00  0.00    +0.000 N 
ATOM      2  C   UNL     1       2.178   7.732  19.148  0.00  0.00    +0.000 C 
ATOM      3  O   UNL     1       2.258   6.922  20.069  0.00  0.00    +0.000 OA
ATOM      4  N   UNL     1       1.382   8.862  19.262  0.00  0.00    +0.000 N 
ATOM      5  C   UNL     1       0.750   9.106  20.554  0.00  0.00    +0.000 C 
ATOM      6  C   UNL     1       1.040  10.529  21.008  0.00  0.00    +0.000 C 
ATOM      7  C   UNL     1       0.589  11.584  19.963  0.00  0.00    +0.000 C 
ATOM      8  C   UNL     1       1.266  11.233  18.613  0.00  0.00    +0.000 C 
ATOM      9  C   UNL     1       0.990   9.785  18.195  0.00  0.00    +0.000 C 
ATOM     10  C   UNL     1      -0.954  11.609  19.786  0.00  0.00    +0.000 C 
ATOM     11  C   UNL     1      -1.676  12.067  21.048  0.00  0.00    +0.000 C 
ATOM     12  N   UNL     1      -1.169  13.367  21.466  0.00  0.00    +0.000 N 
ATOM     13  C   UNL     1      -2.092  14.395  21.685  0.00  0.00    +0.000 C 
ATOM     14  O   UNL     1      -3.308  14.209  21.619  0.00  0.00    +0.000 OA
ATOM     15  C   UNL     1       0.280  13.421  21.694  0.00  0.00    +0.000 C 
ATOM     16  C   UNL     1       1.033  12.993  20.431  0.00  0.00    +0.000 C 
ATOM     17  H   UNL     1       3.008   8.492  17.464  0.00  0.00    +0.000 HD
ENDROOT
BRANCH   1  22
ATOM     18  C   UNL     1       4.103   4.182  17.481  0.00  0.00    +0.000 A 
ATOM     19  C   UNL     1       5.335   4.394  16.856  0.00  0.00    +0.000 A 
ATOM     20  C   UNL     1       5.785   5.692  16.636  0.00  0.00    +0.000 A 
ATOM     21  C   UNL     1       5.000   6.777  17.025  0.00  0.00    +0.000 A 
ATOM     22  C   UNL     1       3.749   6.579  17.615  0.00  0.00    +0.000 A 
ATOM     23  C   UNL     1       3.314   5.273  17.863  0.00  0.00    +0.000 A 
BRANCH  18  25
ATOM     24  N   UNL     1       3.272   1.770  17.942  0.00  0.00    +0.000 NA
ATOM     25  C   UNL     1       3.643   2.847  17.731  0.00  0.00    +0.000 C 
ENDBRANCH  18  25
ENDBRANCH   1  22
BRANCH  13  26
ATOM     26  C   UNL     1      -1.635  15.766  22.030  0.00  0.00    +0.000 A 
ATOM     27  C   UNL     1      -1.648  16.161  23.363  0.00  0.00    +0.000 A 
ATOM     28  N   UNL     1      -1.204  17.379  23.763  0.00  0.00    +0.000 NA
ATOM     29  C   UNL     1      -0.756  18.183  22.778  0.00  0.00    +0.000 A 
ATOM     30  C   UNL     1      -0.768  17.807  21.444  0.00  0.00    +0.000 A 
ATOM     31  N   UNL     1      -1.226  16.606  21.039  0.00  0.00    +0.000 NA
ENDBRANCH  13  26
TORSDOF 3
ENDMDL
MODEL 7
REMARK VINA RESULT:      -6.9      1.676      2.125
REMARK  Name = 
REMARK  3 active torsions:
REMARK  status: ('A' for Active; 'I' for Inactive)
REMARK    1  A    between atoms: C_2  and  C_3
REMARK    2  A    between atoms: C_7  and  N_8
REMARK    3  A    between atoms: C_20  and  C_22
REMARK                            x       y       z     vdW  Elec       q    Type
REMARK                         _______ _______ _______ _____ _____    ______ ____
ROOT
ATOM      1  N   UNL     1       1.980   7.937  19.216  0.00  0.00    +0.000 N 
ATOM      2  C   UNL     1       1.765   9.141  18.590  0.00  0.00    +0.000 C 
ATOM      3  O   UNL     1       1.964   9.340  17.393  0.00  0.00    +0.000 OA
ATOM      4  N   UNL     1       1.243  10.140  19.400  0.00  0.00    +0.000 N 
ATOM      5  C   UNL     1       0.829  11.378  18.749  0.00  0.00    +0.000 C 
ATOM      6  C   UNL     1      -0.591  11.729  19.166  0.00  0.00    +0.000 C 
ATOM      7  C   UNL     1      -0.743  11.835  20.707  0.00  0.00    +0.000 C 
ATOM      8  C   UNL     1      -0.245  10.503  21.325  0.00  0.00    +0.000 C 
ATOM      9  C   UNL     1       1.172  10.153  20.862  0.00  0.00    +0.000 C 
ATOM     10  C   UNL     1       0.069  13.023  21.293  0.00  0.00    +0.000 C 
ATOM     11  C   UNL     1      -0.452  14.374  20.818  0.00  0.00    +0.000 C 
ATOM     12  N   UNL     1      -1.870  14.496  21.128  0.00  0.00    +0.000 N 
ATOM     13  C   UNL     1      -2.295  15.627  21.833  0.00  0.00    +0.000 C 
ATOM     14  O   UNL     1      -1.528  16.548  22.118  0.00  0.00    +0.000 OA
ATOM     15  C   UNL     1      -2.718  13.432  20.576  0.00  0.00    +0.000 C 
ATOM     16  C   UNL     1      -2.234  12.063  21.061  0.00  0.00    +0.000 C 
ATOM     17  H   UNL     1       1.476   7.794  20.075  0.00  0.00    +0.000 HD
ENDROOT
BRANCH   1  22
ATOM     18  C   UNL     1       2.257   4.410  18.154  0.00  0.00    +0.000 A 
ATOM     19  C   UNL     1       3.427   4.427  17.390  0.00  0.00    +0.000 A 
ATOM     20  C   UNL     1       4.153   5.607  17.263  0.00  0.00    +0.000 A 
ATOM     21  C   UNL     1       3.703   6.773  17.883  0.00  0.00    +0.000 A 
ATOM     22  C   UNL     1       2.515   6.778  18.617  0.00  0.00    +0.000 A 
ATOM     23  C   UNL     1       1.804   5.583  18.770  0.00  0.00    +0.000 A 
BRANCH  18  25
ATOM     24  N   UNL     1       0.923   2.205  18.439  0.00  0.00    +0.000 NA
ATOM     25  C   UNL     1       1.515   3.192  18.310  0.00  0.00    +0.000 C 
ENDBRANCH  18  25
ENDBRANCH   1  22
BRANCH  13  26
ATOM     26  C   UNL     1      -3.713  15.771  22.254  0.00  0.00    +0.000 A 
ATOM     27  C   UNL     1      -4.109  15.224  23.469  0.00  0.00    +0.000 A 
ATOM     28  N   UNL     1      -5.373  15.353  23.945  0.00  0.00    +0.000 NA
ATOM     29  C   UNL     1      -6.221  16.042  23.154  0.00  0.00    +0.000 A 
ATOM     30  C   UNL     1      -5.840  16.565  21.929  0.00  0.00    +0.000 A 
ATOM     31  N   UNL     1      -4.591  16.423  21.442  0.00  0.00    +0.000 NA
ENDBRANCH  13  26
TORSDOF 3
ENDMDL
MODEL 8
REMARK VINA RESULT:      -6.9      1.644      1.766
REMARK  Name = 
REMARK  3 active torsions:
REMARK  status: ('A' for Active; 'I' for Inactive)
REMARK    1  A    between atoms: C_2  and  C_3
REMARK    2  A    between atoms: C_7  and  N_8
REMARK    3  A    between atoms: C_20  and  C_22
REMARK                            x       y       z     vdW  Elec       q    Type
REMARK                         _______ _______ _______ _____ _____    ______ ____
ROOT
ATOM      1  N   UNL     1       1.688   7.228  20.728  0.00  0.00    +0.000 N 
ATOM      2  C   UNL     1       1.502   8.295  19.881  0.00  0.00    +0.000 C 
ATOM      3  O   UNL     1       1.651   8.240  18.662  0.00  0.00    +0.000 OA
ATOM      4  N   UNL     1       1.069   9.463  20.493  0.00  0.00    +0.000 N 
ATOM      5  C   UNL     1       0.685  10.569  19.623  0.00  0.00    +0.000 C 
ATOM      6  C   UNL     1      -0.694  11.076  20.014  0.00  0.00    +0.000 C 
ATOM      7  C   UNL     1      -0.766  11.495  21.507  0.00  0.00    +0.000 C 
ATOM      8  C   UNL     1      -0.304  10.286  22.361  0.00  0.00    +0.000 C 
ATOM      9  C   UNL     1       1.070   9.770  21.924  0.00  0.00    +0.000 C 
ATOM     10  C   UNL     1       0.131  12.726  21.812  0.00  0.00    +0.000 C 
ATOM     11  C   UNL     1      -0.346  13.984  21.095  0.00  0.00    +0.000 C 
ATOM     12  N   UNL     1      -1.740  14.247  21.428  0.00  0.00    +0.000 N 
ATOM     13  C   UNL     1      -2.074  15.518  21.906  0.00  0.00    +0.000 C 
ATOM     14  O   UNL     1      -1.250  16.432  21.972  0.00  0.00    +0.000 OA
ATOM     15  C   UNL     1      -2.664  13.145  21.133  0.00  0.00    +0.000 C 
ATOM     16  C   UNL     1      -2.225  11.874  21.865  0.00  0.00    +0.000 C 
ATOM     17  H   UNL     1       1.219   7.288  21.616  0.00  0.00    +0.000 HD
ENDROOT
BRANCH   1  22
ATOM     18  C   UNL     1       3.952   4.578  19.505  0.00  0.00    +0.000 A 
ATOM     19  C   UNL     1       3.171   3.430  19.668  0.00  0.00    +0.000 A 
ATOM     20  C   UNL     1       1.869   3.541  20.144  0.00  0.00    +0.000 A 
ATOM     21  C   UNL     1       1.352   4.794  20.475  0.00  0.00    +0.000 A 
ATOM     22  C   UNL     1       2.135   5.945  20.354  0.00  0.00    +0.000 A 
ATOM     23  C   UNL     1       3.433   5.833  19.845  0.00  0.00    +0.000 A 
BRANCH  18  25
ATOM     24  N   UNL     1       6.364   4.384  18.575  0.00  0.00    +0.000 NA
ATOM     25  C   UNL     1       5.287   4.474  18.993  0.00  0.00    +0.000 C 
ENDBRANCH  18  25
ENDBRANCH   1  22
BRANCH  13  26
ATOM     26  C   UNL     1      -3.460  15.825  22.344  0.00  0.00    +0.000 A 
ATOM     27  C   UNL     1      -3.776  15.718  23.693  0.00  0.00    +0.000 A 
ATOM     28  N   UNL     1      -5.006  16.025  24.178  0.00  0.00    +0.000 NA
ATOM     29  C   UNL     1      -5.904  16.432  23.258  0.00  0.00    +0.000 A 
ATOM     30  C   UNL     1      -5.604  16.513  21.907  0.00  0.00    +0.000 A 
ATOM     31  N   UNL     1      -4.391  16.191  21.418  0.00  0.00    +0.000 NA
ENDBRANCH  13  26
TORSDOF 3
ENDMDL
MODEL 9
REMARK VINA RESULT:      -6.9      1.552      1.791
REMARK  Name = 
REMARK  3 active torsions:
REMARK  status: ('A' for Active; 'I' for Inactive)
REMARK    1  A    between atoms: C_2  and  C_3
REMARK    2  A    between atoms: C_7  and  N_8
REMARK    3  A    between atoms: C_20  and  C_22
REMARK                            x       y       z     vdW  Elec       q    Type
REMARK                         _______ _______ _______ _____ _____    ______ ____
ROOT
ATOM      1  N   UNL     1       1.759   7.242  20.529  0.00  0.00    +0.000 N 
ATOM      2  C   UNL     1       1.634   8.276  19.634  0.00  0.00    +0.000 C 
ATOM      3  O   UNL     1       1.848   8.172  18.428  0.00  0.00    +0.000 OA
ATOM      4  N   UNL     1       1.188   9.473  20.176  0.00  0.00    +0.000 N 
ATOM      5  C   UNL     1       0.867  10.549  19.245  0.00  0.00    +0.000 C 
ATOM      6  C   UNL     1      -0.524  11.089  19.542  0.00  0.00    +0.000 C 
ATOM      7  C   UNL     1      -0.668  11.567  21.012  0.00  0.00    +0.000 C 
ATOM      8  C   UNL     1      -0.271  10.386  21.935  0.00  0.00    +0.000 C 
ATOM      9  C   UNL     1       1.117   9.836  21.593  0.00  0.00    +0.000 C 
ATOM     10  C   UNL     1       0.229  12.797  21.317  0.00  0.00    +0.000 C 
ATOM     11  C   UNL     1      -0.190  14.032  20.528  0.00  0.00    +0.000 C 
ATOM     12  N   UNL     1      -1.596  14.325  20.775  0.00  0.00    +0.000 N 
ATOM     13  C   UNL     1      -1.936  15.618  21.186  0.00  0.00    +0.000 C 
ATOM     14  O   UNL     1      -1.103  16.523  21.261  0.00  0.00    +0.000 OA
ATOM     15  C   UNL     1      -2.519  13.225  20.473  0.00  0.00    +0.000 C 
ATOM     16  C   UNL     1      -2.138  11.978  21.276  0.00  0.00    +0.000 C 
ATOM     17  H   UNL     1       1.246   7.342  21.389  0.00  0.00    +0.000 HD
ENDROOT
BRANCH   1  22
ATOM     18  C   UNL     1       4.019   4.527  19.447  0.00  0.00    +0.000 A 
ATOM     19  C   UNL     1       3.244   3.390  19.687  0.00  0.00    +0.000 A 
ATOM     20  C   UNL     1       1.946   3.526  20.170  0.00  0.00    +0.000 A 
ATOM     21  C   UNL     1       1.428   4.796  20.429  0.00  0.00    +0.000 A 
ATOM     22  C   UNL     1       2.207   5.939  20.230  0.00  0.00    +0.000 A 
ATOM     23  C   UNL     1       3.500   5.799  19.715  0.00  0.00    +0.000 A 
BRANCH  18  25
ATOM     24  N   UNL     1       6.424   4.298  18.506  0.00  0.00    +0.000 NA
ATOM     25  C   UNL     1       5.349   4.396  18.928  0.00  0.00    +0.000 C 
ENDBRANCH  18  25
ENDBRANCH   1  22
BRANCH  13  26
ATOM     26  C   UNL     1      -3.339  15.960  21.536  0.00  0.00    +0.000 A 
ATOM     27  C   UNL     1      -4.146  16.550  20.570  0.00  0.00    +0.000 A 
ATOM     28  N   UNL     1      -5.449  16.849  20.797  0.00  0.00    +0.000 NA
ATOM     29  C   UNL     1      -5.907  16.542  22.028  0.00  0.00    +0.000 A 
ATOM     30  C   UNL     1      -5.100  15.981  23.005  0.00  0.00    +0.000 A 
ATOM     31  N   UNL     1      -3.800  15.700  22.791  0.00  0.00    +0.000 NA
ENDBRANCH  13  26
TORSDOF 3
ENDMDL
