MODEL 1
REMARK VINA RESULT:      -8.7      0.000      0.000
REMARK  Name = 
REMARK  2 active torsions:
REMARK  status: ('A' for Active; 'I' for Inactive)
REMARK    1  A    between atoms: N_1  and  C_2
REMARK    2  A    between atoms: C_11  and  C_12
REMARK                            x       y       z     vdW  Elec       q    Type
REMARK                         _______ _______ _______ _____ _____    ______ ____
ROOT
ATOM      1  C   UNL     1       5.042   5.202  19.164  0.00  0.00    +0.000 C 
ATOM      2  C   UNL     1       4.711   5.796  17.796  0.00  0.00    +0.000 C 
ATOM      3  C   UNL     1       4.752   4.316  16.292  0.00  0.00    +0.000 C 
ATOM      4  C   UNL     1       6.359   3.991  15.763  0.00  0.00    +0.000 C 
ATOM      5  C   UNL     1       7.005   5.509  16.371  0.00  0.00    +0.000 C 
ATOM      6  C   UNL     1       6.002   5.471  15.569  0.00  0.00    +0.000 C 
ATOM      7  C   UNL     1       5.180   6.736  15.400  0.00  0.00    +0.000 C 
ATOM      8  C   UNL     1       4.820   6.719  16.824  0.00  0.00    +0.000 C 
ATOM      9  C   UNL     1       6.106   6.627  17.333  0.00  0.00    +0.000 C 
ATOM     10  C   UNL     1       4.537   4.973  17.761  0.00  0.00    +0.000 C 
ATOM     11  C   UNL     1       5.531   4.302  16.971  0.00  0.00    +0.000 C 
ENDROOT
BRANCH  10  12
ATOM     12  C   UNL     1       3.272   3.892  18.321  0.00  0.00    +0.000 A 
ATOM     13  C   UNL     1       3.511   2.655  18.931  0.00  0.00    +0.000 A 
ATOM     14  C   UNL     1       2.426   1.832  19.290  0.00  0.00    +0.000 A 
ATOM     15  C   UNL     1       1.105   2.229  19.058  0.00  0.00    +0.000 A 
ATOM     16  C   UNL     1       0.850   3.441  18.450  0.00  0.00    +0.000 A 
ATOM     17  C   UNL     1       1.905   4.252  18.071  0.00  0.00    +0.000 A 
ENDBRANCH  10  12
BRANCH   1  18
ATOM     18  N   UNL     1       6.467   5.144  19.533  0.00  0.00    +0.000 NA
ATOM     19  H   UNL     1       7.003   5.919  19.081  0.00  0.00    +0.000 HD
ATOM     20  H   UNL     1       6.936   4.221  19.532  0.00  0.00    +0.000 HD
ENDBRANCH   1  18
TORSDOF 2
ENDMDL
MODEL 2
REMARK VINA RESULT:      -8.6      1.514      5.211
REMARK  Name = 
REMARK  2 active torsions:
REMARK  status: ('A' for Active; 'I' for Inactive)
REMARK    1  A    between atoms: N_1  and  C_2
REMARK    2  A    between atoms: C_11  and  C_12
REMARK                            x       y       z     vdW  Elec       q    Type
REMARK                         _______ _______ _______ _____ _____    ______ ____
ROOT
ATOM      1  C   UNL     1       4.497   2.592  19.517  0.00  0.00    +0.000 C 
ATOM      2  C   UNL     1       3.106   2.734  18.898  0.00  0.00    +0.000 C 
ATOM      3  C   UNL     1       2.336   4.677  19.195  0.00  0.00    +0.000 C 
ATOM      4  C   UNL     1       1.655   4.858  20.767  0.00  0.00    +0.000 C 
ATOM      5  C   UNL     1       1.466   3.129  21.027  0.00  0.00    +0.000 C 
ATOM      6  C   UNL     1       0.973   3.720  19.998  0.00  0.00    +0.000 C 
ATOM      7  C   UNL     1       0.494   2.854  18.845  0.00  0.00    +0.000 C 
ATOM      8  C   UNL     1       1.851   2.325  18.650  0.00  0.00    +0.000 C 
ATOM      9  C   UNL     1       2.074   1.918  19.956  0.00  0.00    +0.000 C 
ATOM     10  C   UNL     1       3.437   3.507  18.956  0.00  0.00    +0.000 C 
ATOM     11  C   UNL     1       2.786   4.232  20.012  0.00  0.00    +0.000 C 
ENDROOT
BRANCH  10  12
ATOM     12  C   UNL     1       4.628   4.474  18.102  0.00  0.00    +0.000 A 
ATOM     13  C   UNL     1       5.583   5.278  18.734  0.00  0.00    +0.000 A 
ATOM     14  C   UNL     1       6.457   6.064  17.958  0.00  0.00    +0.000 A 
ATOM     15  C   UNL     1       6.398   6.053  16.561  0.00  0.00    +0.000 A 
ATOM     16  C   UNL     1       5.457   5.273  15.920  0.00  0.00    +0.000 A 
ATOM     17  C   UNL     1       4.576   4.511  16.668  0.00  0.00    +0.000 A 
ENDBRANCH  10  12
BRANCH   1  18
ATOM     18  N   UNL     1       4.552   2.187  20.932  0.00  0.00    +0.000 NA
ATOM     19  H   UNL     1       5.509   2.328  21.326  0.00  0.00    +0.000 HD
ATOM     20  H   UNL     1       4.084   1.306  21.208  0.00  0.00    +0.000 HD
ENDBRANCH   1  18
TORSDOF 2
ENDMDL
MODEL 3
REMARK VINA RESULT:      -8.5      0.866      1.429
REMARK  Name = 
REMARK  2 active torsions:
REMARK  status: ('A' for Active; 'I' for Inactive)
REMARK    1  A    between atoms: N_1  and  C_2
REMARK    2  A    between atoms: C_11  and  C_12
REMARK                            x       y       z     vdW  Elec       q    Type
REMARK                         _______ _______ _______ _____ _____    ______ ____
ROOT
ATOM      1  C   UNL     1       5.499   5.355  19.329  0.00  0.00    +0.000 C 
ATOM      2  C   UNL     1       4.984   5.922  18.006  0.00  0.00    +0.000 C 
ATOM      3  C   UNL     1       4.431   4.377  16.679  0.00  0.00    +0.000 C 
ATOM      4  C   UNL     1       5.798   3.719  15.864  0.00  0.00    +0.000 C 
ATOM      5  C   UNL     1       6.820   5.116  16.174  0.00  0.00    +0.000 C 
ATOM      6  C   UNL     1       5.674   5.225  15.604  0.00  0.00    +0.000 C 
ATOM      7  C   UNL     1       5.071   6.614  15.486  0.00  0.00    +0.000 C 
ATOM      8  C   UNL     1       5.037   6.749  16.948  0.00  0.00    +0.000 C 
ATOM      9  C   UNL     1       6.367   6.439  17.187  0.00  0.00    +0.000 C 
ATOM     10  C   UNL     1       4.665   5.148  18.089  0.00  0.00    +0.000 C 
ATOM     11  C   UNL     1       5.326   4.253  17.181  0.00  0.00    +0.000 C 
ENDROOT
BRANCH  10  12
ATOM     12  C   UNL     1       3.384   4.365  19.001  0.00  0.00    +0.000 A 
ATOM     13  C   UNL     1       2.064   4.827  19.052  0.00  0.00    +0.000 A 
ATOM     14  C   UNL     1       1.123   4.163  19.862  0.00  0.00    +0.000 A 
ATOM     15  C   UNL     1       1.477   3.039  20.616  0.00  0.00    +0.000 A 
ATOM     16  C   UNL     1       2.776   2.574  20.585  0.00  0.00    +0.000 A 
ATOM     17  C   UNL     1       3.719   3.229  19.811  0.00  0.00    +0.000 A 
ENDBRANCH  10  12
BRANCH   1  18
ATOM     18  N   UNL     1       6.938   5.044  19.399  0.00  0.00    +0.000 NA
ATOM     19  H   UNL     1       7.093   4.027  19.582  0.00  0.00    +0.000 HD
ATOM     20  H   UNL     1       7.553   5.689  19.926  0.00  0.00    +0.000 HD
ENDBRANCH   1  18
TORSDOF 2
ENDMDL
MODEL 4
REMARK VINA RESULT:      -8.5      1.707      4.975
REMARK  Name = 
REMARK  2 active torsions:
REMARK  status: ('A' for Active; 'I' for Inactive)
REMARK    1  A    between atoms: N_1  and  C_2
REMARK    2  A    between atoms: C_11  and  C_12
REMARK                            x       y       z     vdW  Elec       q    Type
REMARK                         _______ _______ _______ _____ _____    ______ ____
ROOT
ATOM      1  C   UNL     1       5.062   3.159  18.706  0.00  0.00    +0.000 C 
ATOM      2  C   UNL     1       3.846   3.808  18.046  0.00  0.00    +0.000 C 
ATOM      3  C   UNL     1       3.235   5.529  19.104  0.00  0.00    +0.000 C 
ATOM      4  C   UNL     1       2.274   5.125  20.475  0.00  0.00    +0.000 C 
ATOM      5  C   UNL     1       1.861   3.523  19.878  0.00  0.00    +0.000 C 
ATOM      6  C   UNL     1       1.647   4.583  19.184  0.00  0.00    +0.000 C 
ATOM      7  C   UNL     1       1.324   4.414  17.710  0.00  0.00    +0.000 C 
ATOM      8  C   UNL     1       2.631   3.785  17.473  0.00  0.00    +0.000 C 
ATOM      9  C   UNL     1       2.545   2.815  18.459  0.00  0.00    +0.000 C 
ATOM     10  C   UNL     1       4.235   4.403  18.498  0.00  0.00    +0.000 C 
ATOM     11  C   UNL     1       3.464   4.698  19.673  0.00  0.00    +0.000 C 
ENDROOT
BRANCH  10  12
ATOM     12  C   UNL     1       5.666   5.411  18.354  0.00  0.00    +0.000 A 
ATOM     13  C   UNL     1       6.759   5.348  19.226  0.00  0.00    +0.000 A 
ATOM     14  C   UNL     1       7.835   6.243  19.062  0.00  0.00    +0.000 A 
ATOM     15  C   UNL     1       7.840   7.193  18.035  0.00  0.00    +0.000 A 
ATOM     16  C   UNL     1       6.767   7.275  17.171  0.00  0.00    +0.000 A 
ATOM     17  C   UNL     1       5.692   6.418  17.332  0.00  0.00    +0.000 A 
ENDBRANCH  10  12
BRANCH   1  18
ATOM     18  N   UNL     1       4.791   2.172  19.766  0.00  0.00    +0.000 NA
ATOM     19  H   UNL     1       5.500   1.406  19.756  0.00  0.00    +0.000 HD
ATOM     20  H   UNL     1       3.812   1.869  19.913  0.00  0.00    +0.000 HD
ENDBRANCH   1  18
TORSDOF 2
ENDMDL
MODEL 5
REMARK VINA RESULT:      -8.5      1.661      5.107
REMARK  Name = 
REMARK  2 active torsions:
REMARK  status: ('A' for Active; 'I' for Inactive)
REMARK    1  A    between atoms: N_1  and  C_2
REMARK    2  A    between atoms: C_11  and  C_12
REMARK                            x       y       z     vdW  Elec       q    Type
REMARK                         _______ _______ _______ _____ _____    ______ ____
ROOT
ATOM      1  C   UNL     1       5.014   3.149  18.871  0.00  0.00    +0.000 C 
ATOM      2  C   UNL     1       3.768   3.693  18.173  0.00  0.00    +0.000 C 
ATOM      3  C   UNL     1       3.074   5.449  19.115  0.00  0.00    +0.000 C 
ATOM      4  C   UNL     1       2.134   5.091  20.514  0.00  0.00    +0.000 C 
ATOM      5  C   UNL     1       1.799   3.435  20.026  0.00  0.00    +0.000 C 
ATOM      6  C   UNL     1       1.534   4.435  19.264  0.00  0.00    +0.000 C 
ATOM      7  C   UNL     1       1.220   4.151  17.805  0.00  0.00    +0.000 C 
ATOM      8  C   UNL     1       2.555   3.573  17.607  0.00  0.00    +0.000 C 
ATOM      9  C   UNL     1       2.517   2.667  18.656  0.00  0.00    +0.000 C 
ATOM     10  C   UNL     1       4.128   4.334  18.583  0.00  0.00    +0.000 C 
ATOM     11  C   UNL     1       3.343   4.670  19.738  0.00  0.00    +0.000 C 
ENDROOT
BRANCH  10  12
ATOM     12  C   UNL     1       5.508   5.399  18.367  0.00  0.00    +0.000 A 
ATOM     13  C   UNL     1       5.654   6.285  17.294  0.00  0.00    +0.000 A 
ATOM     14  C   UNL     1       6.828   7.054  17.178  0.00  0.00    +0.000 A 
ATOM     15  C   UNL     1       7.856   6.958  18.123  0.00  0.00    +0.000 A 
ATOM     16  C   UNL     1       7.733   6.083  19.183  0.00  0.00    +0.000 A 
ATOM     17  C   UNL     1       6.595   5.304  19.299  0.00  0.00    +0.000 A 
ENDBRANCH  10  12
BRANCH   1  18
ATOM     18  N   UNL     1       4.791   2.224  19.996  0.00  0.00    +0.000 NA
ATOM     19  H   UNL     1       5.693   1.821  20.335  0.00  0.00    +0.000 HD
ATOM     20  H   UNL     1       4.003   1.555  19.931  0.00  0.00    +0.000 HD
ENDBRANCH   1  18
TORSDOF 2
ENDMDL
MODEL 6
REMARK VINA RESULT:      -8.5      1.547      5.257
REMARK  Name = 
REMARK  2 active torsions:
REMARK  status: ('A' for Active; 'I' for Inactive)
REMARK    1  A    between atoms: N_1  and  C_2
REMARK    2  A    between atoms: C_11  and  C_12
REMARK                            x       y       z     vdW  Elec       q    Type
REMARK                         _______ _______ _______ _____ _____    ______ ____
ROOT
ATOM      1  C   UNL     1       4.587   2.759  19.180  0.00  0.00    +0.000 C 
ATOM      2  C   UNL     1       3.178   3.018  18.647  0.00  0.00    +0.000 C 
ATOM      3  C   UNL     1       2.436   4.872  19.330  0.00  0.00    +0.000 C 
ATOM      4  C   UNL     1       1.809   4.756  20.930  0.00  0.00    +0.000 C 
ATOM      5  C   UNL     1       1.613   3.010  20.868  0.00  0.00    +0.000 C 
ATOM      6  C   UNL     1       1.091   3.785  19.985  0.00  0.00    +0.000 C 
ATOM      7  C   UNL     1       0.567   3.152  18.708  0.00  0.00    +0.000 C 
ATOM      8  C   UNL     1       1.911   2.666  18.370  0.00  0.00    +0.000 C 
ATOM      9  C   UNL     1       2.174   2.020  19.568  0.00  0.00    +0.000 C 
ATOM     10  C   UNL     1       3.517   3.765  18.838  0.00  0.00    +0.000 C 
ATOM     11  C   UNL     1       2.909   4.281  20.033  0.00  0.00    +0.000 C 
ENDROOT
BRANCH  10  12
ATOM     12  C   UNL     1       4.688   4.872  18.140  0.00  0.00    +0.000 A 
ATOM     13  C   UNL     1       4.591   5.403  16.848  0.00  0.00    +0.000 A 
ATOM     14  C   UNL     1       5.615   6.236  16.358  0.00  0.00    +0.000 A 
ATOM     15  C   UNL     1       6.730   6.555  17.140  0.00  0.00    +0.000 A 
ATOM     16  C   UNL     1       6.847   6.034  18.412  0.00  0.00    +0.000 A 
ATOM     17  C   UNL     1       5.860   5.195  18.902  0.00  0.00    +0.000 A 
ENDBRANCH  10  12
BRANCH   1  18
ATOM     18  N   UNL     1       4.686   2.095  20.492  0.00  0.00    +0.000 NA
ATOM     19  H   UNL     1       5.598   1.595  20.592  0.00  0.00    +0.000 HD
ATOM     20  H   UNL     1       3.858   1.582  20.845  0.00  0.00    +0.000 HD
ENDBRANCH   1  18
TORSDOF 2
ENDMDL
MODEL 7
REMARK VINA RESULT:      -8.3      1.576      2.245
REMARK  Name = 
REMARK  2 active torsions:
REMARK  status: ('A' for Active; 'I' for Inactive)
REMARK    1  A    between atoms: N_1  and  C_2
REMARK    2  A    between atoms: C_11  and  C_12
REMARK                            x       y       z     vdW  Elec       q    Type
REMARK                         _______ _______ _______ _____ _____    ______ ____
ROOT
ATOM      1  C   UNL     1       3.268   6.272  17.617  0.00  0.00    +0.000 C 
ATOM      2  C   UNL     1       4.266   5.252  17.072  0.00  0.00    +0.000 C 
ATOM      3  C   UNL     1       5.449   4.443  18.621  0.00  0.00    +0.000 C 
ATOM      4  C   UNL     1       6.750   5.491  19.042  0.00  0.00    +0.000 C 
ATOM      5  C   UNL     1       6.693   6.384  17.528  0.00  0.00    +0.000 C 
ATOM      6  C   UNL     1       6.811   5.105  17.559  0.00  0.00    +0.000 C 
ATOM      7  C   UNL     1       6.582   4.340  16.267  0.00  0.00    +0.000 C 
ATOM      8  C   UNL     1       5.195   4.821  16.201  0.00  0.00    +0.000 C 
ATOM      9  C   UNL     1       5.469   6.174  16.328  0.00  0.00    +0.000 C 
ATOM     10  C   UNL     1       4.148   5.078  17.887  0.00  0.00    +0.000 C 
ATOM     11  C   UNL     1       5.309   5.466  18.638  0.00  0.00    +0.000 C 
ENDROOT
BRANCH  10  12
ATOM     12  C   UNL     1       2.919   4.314  18.883  0.00  0.00    +0.000 A 
ATOM     13  C   UNL     1       2.546   4.770  20.153  0.00  0.00    +0.000 A 
ATOM     14  C   UNL     1       1.591   4.051  20.899  0.00  0.00    +0.000 A 
ATOM     15  C   UNL     1       0.998   2.890  20.394  0.00  0.00    +0.000 A 
ATOM     16  C   UNL     1       1.360   2.421  19.148  0.00  0.00    +0.000 A 
ATOM     17  C   UNL     1       2.313   3.102  18.410  0.00  0.00    +0.000 A 
ENDBRANCH  10  12
BRANCH   1  18
ATOM     18  N   UNL     1       3.737   7.665  17.721  0.00  0.00    +0.000 NA
ATOM     19  H   UNL     1       4.780   7.710  17.735  0.00  0.00    +0.000 HD
ATOM     20  H   UNL     1       3.257   8.294  18.389  0.00  0.00    +0.000 HD
ENDBRANCH   1  18
TORSDOF 2
ENDMDL
MODEL 8
REMARK VINA RESULT:      -8.3      1.605      2.218
REMARK  Name = 
REMARK  2 active torsions:
REMARK  status: ('A' for Active; 'I' for Inactive)
REMARK    1  A    between atoms: N_1  and  C_2
REMARK    2  A    between atoms: C_11  and  C_12
REMARK                            x       y       z     vdW  Elec       q    Type
REMARK                         _______ _______ _______ _____ _____    ______ ____
ROOT
ATOM      1  C   UNL     1       3.277   6.067  17.672  0.00  0.00    +0.000 C 
ATOM      2  C   UNL     1       4.331   5.121  17.099  0.00  0.00    +0.000 C 
ATOM      3  C   UNL     1       5.625   4.417  18.611  0.00  0.00    +0.000 C 
ATOM      4  C   UNL     1       6.855   5.565  18.980  0.00  0.00    +0.000 C 
ATOM      5  C   UNL     1       6.679   6.438  17.464  0.00  0.00    +0.000 C 
ATOM      6  C   UNL     1       6.895   5.172  17.498  0.00  0.00    +0.000 C 
ATOM      7  C   UNL     1       6.681   4.382  16.219  0.00  0.00    +0.000 C 
ATOM      8  C   UNL     1       5.260   4.755  16.199  0.00  0.00    +0.000 C 
ATOM      9  C   UNL     1       5.434   6.126  16.308  0.00  0.00    +0.000 C 
ATOM     10  C   UNL     1       4.254   4.945  17.919  0.00  0.00    +0.000 C 
ATOM     11  C   UNL     1       5.407   5.428  18.627  0.00  0.00    +0.000 C 
ENDROOT
BRANCH  10  12
ATOM     12  C   UNL     1       3.122   4.099  18.961  0.00  0.00    +0.000 A 
ATOM     13  C   UNL     1       2.486   2.901  18.618  0.00  0.00    +0.000 A 
ATOM     14  C   UNL     1       1.547   2.331  19.500  0.00  0.00    +0.000 A 
ATOM     15  C   UNL     1       1.240   2.935  20.723  0.00  0.00    +0.000 A 
ATOM     16  C   UNL     1       1.850   4.121  21.075  0.00  0.00    +0.000 A 
ATOM     17  C   UNL     1       2.759   4.706  20.210  0.00  0.00    +0.000 A 
ENDBRANCH  10  12
BRANCH   1  18
ATOM     18  N   UNL     1       3.641   7.492  17.753  0.00  0.00    +0.000 NA
ATOM     19  H   UNL     1       4.521   7.685  17.223  0.00  0.00    +0.000 HD
ATOM     20  H   UNL     1       3.562   7.967  18.669  0.00  0.00    +0.000 HD
ENDBRANCH   1  18
TORSDOF 2
ENDMDL
MODEL 9
REMARK VINA RESULT:      -8.3      1.935      5.227
REMARK  Name = 
REMARK  2 active torsions:
REMARK  status: ('A' for Active; 'I' for Inactive)
REMARK    1  A    between atoms: N_1  and  C_2
REMARK    2  A    between atoms: C_11  and  C_12
REMARK                            x       y       z     vdW  Elec       q    Type
REMARK                         _______ _______ _______ _____ _____    ______ ____
ROOT
ATOM      1  C   UNL     1       2.427   5.036  17.874  0.00  0.00    +0.000 C 
ATOM      2  C   UNL     1       2.677   4.712  19.347  0.00  0.00    +0.000 C 
ATOM      3  C   UNL     1       3.482   2.775  19.574  0.00  0.00    +0.000 C 
ATOM      4  C   UNL     1       2.256   1.566  19.517  0.00  0.00    +0.000 C 
ATOM      5  C   UNL     1       0.951   2.685  19.887  0.00  0.00    +0.000 C 
ATOM      6  C   UNL     1       1.985   2.573  20.642  0.00  0.00    +0.000 C 
ATOM      7  C   UNL     1       2.217   3.647  21.690  0.00  0.00    +0.000 C 
ATOM      8  C   UNL     1       2.336   4.673  20.646  0.00  0.00    +0.000 C 
ATOM      9  C   UNL     1       1.147   4.398  19.989  0.00  0.00    +0.000 C 
ATOM     10  C   UNL     1       3.182   4.217  18.890  0.00  0.00    +0.000 C 
ATOM     11  C   UNL     1       2.689   2.868  18.918  0.00  0.00    +0.000 C 
ENDROOT
BRANCH  10  12
ATOM     12  C   UNL     1       4.686   4.371  17.997  0.00  0.00    +0.000 A 
ATOM     13  C   UNL     1       4.849   3.980  16.663  0.00  0.00    +0.000 A 
ATOM     14  C   UNL     1       6.114   4.089  16.053  0.00  0.00    +0.000 A 
ATOM     15  C   UNL     1       7.217   4.591  16.751  0.00  0.00    +0.000 A 
ATOM     16  C   UNL     1       7.077   4.974  18.069  0.00  0.00    +0.000 A 
ATOM     17  C   UNL     1       5.846   4.853  18.691  0.00  0.00    +0.000 A 
ENDBRANCH  10  12
BRANCH   1  18
ATOM     18  N   UNL     1       1.120   4.640  17.323  0.00  0.00    +0.000 NA
ATOM     19  H   UNL     1       0.876   3.663  17.601  0.00  0.00    +0.000 HD
ATOM     20  H   UNL     1       0.907   4.887  16.340  0.00  0.00    +0.000 HD
ENDBRANCH   1  18
TORSDOF 2
ENDMDL
