MODEL 1
REMARK VINA RESULT:      -8.4      0.000      0.000
REMARK  Name = 
REMARK  5 active torsions:
REMARK  status: ('A' for Active; 'I' for Inactive)
REMARK    1  A    between atoms: C_2  and  C_3
REMARK    2  A    between atoms: C_3  and  C_4
REMARK    3  A    between atoms: C_4  and  S_5
REMARK    4  A    between atoms: S_5  and  C_8
REMARK    5  A    between atoms: C_19  and  C_20
REMARK                            x       y       z     vdW  Elec       q    Type
REMARK                         _______ _______ _______ _____ _____    ______ ____
ROOT
ATOM      1  O   UNL     1       0.989   9.517  23.400  0.00  0.00    +0.000 OA
ATOM      2  C   UNL     1       1.124   9.415  22.180  0.00  0.00    +0.000 C 
ATOM      3  N   UNL     1       1.623   8.252  21.666  0.00  0.00    +0.000 N 
ATOM      4  C   UNL     1       1.821   7.992  20.343  0.00  0.00    +0.000 A 
ATOM      5  N   UNL     1       1.435   8.651  19.275  0.00  0.00    +0.000 NA
ATOM      6  N   UNL     1       1.972   8.002  18.192  0.00  0.00    +0.000 NA
ATOM      7  C   UNL     1       2.668   6.992  18.671  0.00  0.00    +0.000 A 
ATOM      8  O   UNL     1       2.570   6.888  20.037  0.00  0.00    +0.000 OA
ATOM      9  H   UNL     1       1.929   7.553  22.328  0.00  0.00    +0.000 HD
ENDROOT
BRANCH   7  10
ATOM     10  C   UNL     1       3.441   6.004  17.934  0.00  0.00    +0.000 A 
ATOM     11  C   UNL     1       4.762   6.352  17.585  0.00  0.00    +0.000 A 
ATOM     12  C   UNL     1       5.597   5.444  16.937  0.00  0.00    +0.000 A 
ATOM     13 CL   UNL     1       7.203   5.902  16.525  0.00  0.00    +0.000 Cl
ATOM     14  C   UNL     1       5.141   4.167  16.632  0.00  0.00    +0.000 A 
ATOM     15  C   UNL     1       3.839   3.801  16.974  0.00  0.00    +0.000 A 
ATOM     16  C   UNL     1       2.990   4.711  17.622  0.00  0.00    +0.000 A 
ATOM     17 CL   UNL     1       1.419   4.130  18.057  0.00  0.00    +0.000 Cl
ENDBRANCH   7  10
BRANCH   2  18
ATOM     18  C   UNL     1       0.746  10.554  21.255  0.00  0.00    +0.000 C 
BRANCH  18  19
ATOM     19  C   UNL     1      -0.729  10.925  21.345  0.00  0.00    +0.000 C 
BRANCH  19  20
ATOM     20  S   UNL     1      -1.056  12.261  20.211  0.00  0.00    +0.000 S 
ATOM     21  O   UNL     1      -2.031  13.147  20.814  0.00  0.00    +0.000 OA
ATOM     22  O   UNL     1       0.218  12.772  19.739  0.00  0.00    +0.000 OA
BRANCH  20  23
ATOM     23  C   UNL     1      -1.861  11.491  18.823  0.00  0.00    +0.000 A 
ATOM     24  C   UNL     1      -3.120  11.950  18.422  0.00  0.00    +0.000 A 
ATOM     25  C   UNL     1      -3.715  11.413  17.279  0.00  0.00    +0.000 A 
ATOM     26  C   UNL     1      -3.046  10.434  16.543  0.00  0.00    +0.000 A 
ATOM     27 CL   UNL     1      -3.775   9.784  15.126  0.00  0.00    +0.000 Cl
ATOM     28  C   UNL     1      -1.784   9.989  16.938  0.00  0.00    +0.000 A 
ATOM     29  C   UNL     1      -1.182  10.522  18.081  0.00  0.00    +0.000 A 
ENDBRANCH  20  23
ENDBRANCH  19  20
ENDBRANCH  18  19
ENDBRANCH   2  18
TORSDOF 5
ENDMDL
MODEL 2
REMARK VINA RESULT:      -8.4      3.520      8.516
REMARK  Name = 
REMARK  5 active torsions:
REMARK  status: ('A' for Active; 'I' for Inactive)
REMARK    1  A    between atoms: C_2  and  C_3
REMARK    2  A    between atoms: C_3  and  C_4
REMARK    3  A    between atoms: C_4  and  S_5
REMARK    4  A    between atoms: S_5  and  C_8
REMARK    5  A    between atoms: C_19  and  C_20
REMARK                            x       y       z     vdW  Elec       q    Type
REMARK                         _______ _______ _______ _____ _____    ______ ____
ROOT
ATOM      1  O   UNL     1       2.496   4.775  20.800  0.00  0.00    +0.000 OA
ATOM      2  C   UNL     1       2.442   5.607  19.892  0.00  0.00    +0.000 C 
ATOM      3  N   UNL     1       2.122   6.899  20.198  0.00  0.00    +0.000 N 
ATOM      4  C   UNL     1       2.030   7.924  19.305  0.00  0.00    +0.000 A 
ATOM      5  N   UNL     1       2.388   7.995  18.044  0.00  0.00    +0.000 NA
ATOM      6  N   UNL     1       1.997   9.228  17.588  0.00  0.00    +0.000 NA
ATOM      7  C   UNL     1       1.408   9.830  18.601  0.00  0.00    +0.000 A 
ATOM      8  O   UNL     1       1.444   9.078  19.749  0.00  0.00    +0.000 OA
ATOM      9  H   UNL     1       1.870   7.093  21.157  0.00  0.00    +0.000 HD
ENDROOT
BRANCH   7  10
ATOM     10  C   UNL     1       0.806  11.154  18.633  0.00  0.00    +0.000 A 
ATOM     11  C   UNL     1       1.682  12.258  18.648  0.00  0.00    +0.000 A 
ATOM     12  C   UNL     1       1.194  13.563  18.613  0.00  0.00    +0.000 A 
ATOM     13 CL   UNL     1       2.291  14.887  18.634  0.00  0.00    +0.000 Cl
ATOM     14  C   UNL     1      -0.174  13.798  18.550  0.00  0.00    +0.000 A 
ATOM     15  C   UNL     1      -1.059  12.719  18.529  0.00  0.00    +0.000 A 
ATOM     16  C   UNL     1      -0.575  11.402  18.569  0.00  0.00    +0.000 A 
ATOM     17 CL   UNL     1      -1.756  10.141  18.471  0.00  0.00    +0.000 Cl
ENDBRANCH   7  10
BRANCH   2  18
ATOM     18  C   UNL     1       2.724   5.214  18.456  0.00  0.00    +0.000 C 
BRANCH  18  19
ATOM     19  C   UNL     1       3.808   4.150  18.335  0.00  0.00    +0.000 C 
BRANCH  19  20
ATOM     20  S   UNL     1       5.386   4.956  18.143  0.00  0.00    +0.000 S 
ATOM     21  O   UNL     1       5.184   6.388  18.232  0.00  0.00    +0.000 OA
ATOM     22  O   UNL     1       6.341   4.286  19.007  0.00  0.00    +0.000 OA
BRANCH  20  23
ATOM     23  C   UNL     1       5.867   4.616  16.463  0.00  0.00    +0.000 A 
ATOM     24  C   UNL     1       4.933   4.057  15.585  0.00  0.00    +0.000 A 
ATOM     25  C   UNL     1       5.275   3.874  14.243  0.00  0.00    +0.000 A 
ATOM     26  C   UNL     1       6.537   4.260  13.791  0.00  0.00    +0.000 A 
ATOM     27 CL   UNL     1       6.952   4.047  12.135  0.00  0.00    +0.000 Cl
ATOM     28  C   UNL     1       7.461   4.831  14.668  0.00  0.00    +0.000 A 
ATOM     29  C   UNL     1       7.126   5.016  16.011  0.00  0.00    +0.000 A 
ENDBRANCH  20  23
ENDBRANCH  19  20
ENDBRANCH  18  19
ENDBRANCH   2  18
TORSDOF 5
ENDMDL
MODEL 3
REMARK VINA RESULT:      -8.3      3.622      8.338
REMARK  Name = 
REMARK  5 active torsions:
REMARK  status: ('A' for Active; 'I' for Inactive)
REMARK    1  A    between atoms: C_2  and  C_3
REMARK    2  A    between atoms: C_3  and  C_4
REMARK    3  A    between atoms: C_4  and  S_5
REMARK    4  A    between atoms: S_5  and  C_8
REMARK    5  A    between atoms: C_19  and  C_20
REMARK                            x       y       z     vdW  Elec       q    Type
REMARK                         _______ _______ _______ _____ _____    ______ ____
ROOT
ATOM      1  O   UNL     1       2.102   4.770  21.276  0.00  0.00    +0.000 OA
ATOM      2  C   UNL     1       2.078   5.530  20.306  0.00  0.00    +0.000 C 
ATOM      3  N   UNL     1       1.916   6.869  20.520  0.00  0.00    +0.000 N 
ATOM      4  C   UNL     1       1.876   7.826  19.551  0.00  0.00    +0.000 A 
ATOM      5  N   UNL     1       2.158   7.759  18.271  0.00  0.00    +0.000 NA
ATOM      6  N   UNL     1       1.870   8.988  17.735  0.00  0.00    +0.000 NA
ATOM      7  C   UNL     1       1.414   9.727  18.724  0.00  0.00    +0.000 A 
ATOM      8  O   UNL     1       1.443   9.068  19.928  0.00  0.00    +0.000 OA
ATOM      9  H   UNL     1       1.748   7.163  21.472  0.00  0.00    +0.000 HD
ENDROOT
BRANCH   7  10
ATOM     10  C   UNL     1       0.958  11.108  18.678  0.00  0.00    +0.000 A 
ATOM     11  C   UNL     1       1.946  12.109  18.584  0.00  0.00    +0.000 A 
ATOM     12  C   UNL     1       1.598  13.454  18.469  0.00  0.00    +0.000 A 
ATOM     13 CL   UNL     1       2.830  14.649  18.357  0.00  0.00    +0.000 Cl
ATOM     14  C   UNL     1       0.261  13.831  18.433  0.00  0.00    +0.000 A 
ATOM     15  C   UNL     1      -0.733  12.855  18.519  0.00  0.00    +0.000 A 
ATOM     16  C   UNL     1      -0.391  11.500  18.641  0.00  0.00    +0.000 A 
ATOM     17 CL   UNL     1      -1.702  10.371  18.674  0.00  0.00    +0.000 Cl
ENDBRANCH   7  10
BRANCH   2  18
ATOM     18  C   UNL     1       2.225   4.998  18.896  0.00  0.00    +0.000 C 
BRANCH  18  19
ATOM     19  C   UNL     1       2.111   3.480  18.820  0.00  0.00    +0.000 C 
BRANCH  19  20
ATOM     20  S   UNL     1       3.749   2.784  18.716  0.00  0.00    +0.000 S 
ATOM     21  O   UNL     1       4.144   2.342  20.038  0.00  0.00    +0.000 OA
ATOM     22  O   UNL     1       3.778   1.870  17.588  0.00  0.00    +0.000 OA
BRANCH  20  23
ATOM     23  C   UNL     1       4.801   4.160  18.307  0.00  0.00    +0.000 A 
ATOM     24  C   UNL     1       5.647   4.689  19.287  0.00  0.00    +0.000 A 
ATOM     25  C   UNL     1       6.541   5.707  18.947  0.00  0.00    +0.000 A 
ATOM     26  C   UNL     1       6.589   6.177  17.635  0.00  0.00    +0.000 A 
ATOM     27 CL   UNL     1       7.701   7.421  17.215  0.00  0.00    +0.000 Cl
ATOM     28  C   UNL     1       5.753   5.637  16.656  0.00  0.00    +0.000 A 
ATOM     29  C   UNL     1       4.857   4.619  16.989  0.00  0.00    +0.000 A 
ENDBRANCH  20  23
ENDBRANCH  19  20
ENDBRANCH  18  19
ENDBRANCH   2  18
TORSDOF 5
ENDMDL
MODEL 4
REMARK VINA RESULT:      -8.2      1.209      1.503
REMARK  Name = 
REMARK  5 active torsions:
REMARK  status: ('A' for Active; 'I' for Inactive)
REMARK    1  A    between atoms: C_2  and  C_3
REMARK    2  A    between atoms: C_3  and  C_4
REMARK    3  A    between atoms: C_4  and  S_5
REMARK    4  A    between atoms: S_5  and  C_8
REMARK    5  A    between atoms: C_19  and  C_20
REMARK                            x       y       z     vdW  Elec       q    Type
REMARK                         _______ _______ _______ _____ _____    ______ ____
ROOT
ATOM      1  O   UNL     1       0.810   9.619  23.288  0.00  0.00    +0.000 OA
ATOM      2  C   UNL     1       1.017   9.524  22.077  0.00  0.00    +0.000 C 
ATOM      3  N   UNL     1       1.485   8.343  21.578  0.00  0.00    +0.000 N 
ATOM      4  C   UNL     1       1.754   8.089  20.266  0.00  0.00    +0.000 A 
ATOM      5  N   UNL     1       1.474   8.780  19.187  0.00  0.00    +0.000 NA
ATOM      6  N   UNL     1       2.044   8.117  18.130  0.00  0.00    +0.000 NA
ATOM      7  C   UNL     1       2.652   7.065  18.636  0.00  0.00    +0.000 A 
ATOM      8  O   UNL     1       2.461   6.950  19.991  0.00  0.00    +0.000 OA
ATOM      9  H   UNL     1       1.710   7.620  22.247  0.00  0.00    +0.000 HD
ENDROOT
BRANCH   7  10
ATOM     10  C   UNL     1       3.418   6.046  17.934  0.00  0.00    +0.000 A 
ATOM     11  C   UNL     1       4.738   6.375  17.564  0.00  0.00    +0.000 A 
ATOM     12  C   UNL     1       5.566   5.439  16.947  0.00  0.00    +0.000 A 
ATOM     13 CL   UNL     1       7.170   5.875  16.507  0.00  0.00    +0.000 Cl
ATOM     14  C   UNL     1       5.104   4.152  16.696  0.00  0.00    +0.000 A 
ATOM     15  C   UNL     1       3.802   3.804  17.060  0.00  0.00    +0.000 A 
ATOM     16  C   UNL     1       2.961   4.743  17.677  0.00  0.00    +0.000 A 
ATOM     17 CL   UNL     1       1.391   4.185  18.145  0.00  0.00    +0.000 Cl
ENDBRANCH   7  10
BRANCH   2  18
ATOM     18  C   UNL     1       0.761  10.693  21.149  0.00  0.00    +0.000 C 
BRANCH  18  19
ATOM     19  C   UNL     1      -0.722  11.001  20.979  0.00  0.00    +0.000 C 
BRANCH  19  20
ATOM     20  S   UNL     1      -0.922  12.139  19.621  0.00  0.00    +0.000 S 
ATOM     21  O   UNL     1      -0.745  13.487  20.122  0.00  0.00    +0.000 OA
ATOM     22  O   UNL     1      -0.128  11.652  18.507  0.00  0.00    +0.000 OA
BRANCH  20  23
ATOM     23  C   UNL     1      -2.632  11.991  19.154  0.00  0.00    +0.000 A 
ATOM     24  C   UNL     1      -3.618  12.529  19.989  0.00  0.00    +0.000 A 
ATOM     25  C   UNL     1      -4.954  12.498  19.583  0.00  0.00    +0.000 A 
ATOM     26  C   UNL     1      -5.291  11.944  18.348  0.00  0.00    +0.000 A 
ATOM     27 CL   UNL     1      -6.936  11.920  17.844  0.00  0.00    +0.000 Cl
ATOM     28  C   UNL     1      -4.303  11.421  17.512  0.00  0.00    +0.000 A 
ATOM     29  C   UNL     1      -2.965  11.448  17.911  0.00  0.00    +0.000 A 
ENDBRANCH  20  23
ENDBRANCH  19  20
ENDBRANCH  18  19
ENDBRANCH   2  18
TORSDOF 5
ENDMDL
MODEL 5
REMARK VINA RESULT:      -8.2      6.470      9.412
REMARK  Name = 
REMARK  5 active torsions:
REMARK  status: ('A' for Active; 'I' for Inactive)
REMARK    1  A    between atoms: C_2  and  C_3
REMARK    2  A    between atoms: C_3  and  C_4
REMARK    3  A    between atoms: C_4  and  S_5
REMARK    4  A    between atoms: S_5  and  C_8
REMARK    5  A    between atoms: C_19  and  C_20
REMARK                            x       y       z     vdW  Elec       q    Type
REMARK                         _______ _______ _______ _____ _____    ______ ____
ROOT
ATOM      1  O   UNL     1       7.834   5.396  19.140  0.00  0.00    +0.000 OA
ATOM      2  C   UNL     1       7.857   6.521  18.637  0.00  0.00    +0.000 C 
ATOM      3  N   UNL     1       8.619   7.491  19.223  0.00  0.00    +0.000 N 
ATOM      4  C   UNL     1       8.748   8.773  18.779  0.00  0.00    +0.000 A 
ATOM      5  N   UNL     1       8.367   9.330  17.653  0.00  0.00    +0.000 NA
ATOM      6  N   UNL     1       8.665  10.665  17.749  0.00  0.00    +0.000 NA
ATOM      7  C   UNL     1       9.197  10.843  18.940  0.00  0.00    +0.000 A 
ATOM      8  O   UNL     1       9.335   9.666  19.633  0.00  0.00    +0.000 OA
ATOM      9  H   UNL     1       9.074   7.252  20.092  0.00  0.00    +0.000 HD
ENDROOT
BRANCH   7  10
ATOM     10  C   UNL     1       9.672  12.082  19.537  0.00  0.00    +0.000 A 
ATOM     11  C   UNL     1       9.037  12.510  20.720  0.00  0.00    +0.000 A 
ATOM     12  C   UNL     1       9.469  13.650  21.395  0.00  0.00    +0.000 A 
ATOM     13 CL   UNL     1       8.671  14.145  22.836  0.00  0.00    +0.000 Cl
ATOM     14  C   UNL     1      10.549  14.382  20.916  0.00  0.00    +0.000 A 
ATOM     15  C   UNL     1      11.195  13.972  19.749  0.00  0.00    +0.000 A 
ATOM     16  C   UNL     1      10.762  12.829  19.060  0.00  0.00    +0.000 A 
ATOM     17 CL   UNL     1      11.676  12.375  17.662  0.00  0.00    +0.000 Cl
ENDBRANCH   7  10
BRANCH   2  18
ATOM     18  C   UNL     1       7.055   6.835  17.391  0.00  0.00    +0.000 C 
BRANCH  18  19
ATOM     19  C   UNL     1       6.969   5.655  16.430  0.00  0.00    +0.000 C 
BRANCH  19  20
ATOM     20  S   UNL     1       5.340   5.619  15.707  0.00  0.00    +0.000 S 
ATOM     21  O   UNL     1       5.015   6.953  15.242  0.00  0.00    +0.000 OA
ATOM     22  O   UNL     1       5.273   4.483  14.806  0.00  0.00    +0.000 OA
BRANCH  20  23
ATOM     23  C   UNL     1       4.247   5.277  17.069  0.00  0.00    +0.000 A 
ATOM     24  C   UNL     1       3.419   6.295  17.554  0.00  0.00    +0.000 A 
ATOM     25  C   UNL     1       2.495   6.008  18.560  0.00  0.00    +0.000 A 
ATOM     26  C   UNL     1       2.397   4.710  19.063  0.00  0.00    +0.000 A 
ATOM     27 CL   UNL     1       1.247   4.356  20.292  0.00  0.00    +0.000 Cl
ATOM     28  C   UNL     1       3.215   3.694  18.566  0.00  0.00    +0.000 A 
ATOM     29  C   UNL     1       4.142   3.974  17.560  0.00  0.00    +0.000 A 
ENDBRANCH  20  23
ENDBRANCH  19  20
ENDBRANCH  18  19
ENDBRANCH   2  18
TORSDOF 5
ENDMDL
MODEL 6
REMARK VINA RESULT:      -8.0      1.069      1.528
REMARK  Name = 
REMARK  5 active torsions:
REMARK  status: ('A' for Active; 'I' for Inactive)
REMARK    1  A    between atoms: C_2  and  C_3
REMARK    2  A    between atoms: C_3  and  C_4
REMARK    3  A    between atoms: C_4  and  S_5
REMARK    4  A    between atoms: S_5  and  C_8
REMARK    5  A    between atoms: C_19  and  C_20
REMARK                            x       y       z     vdW  Elec       q    Type
REMARK                         _______ _______ _______ _____ _____    ______ ____
ROOT
ATOM      1  O   UNL     1       0.860   9.633  23.238  0.00  0.00    +0.000 OA
ATOM      2  C   UNL     1       1.080   9.540  22.029  0.00  0.00    +0.000 C 
ATOM      3  N   UNL     1       1.508   8.344  21.526  0.00  0.00    +0.000 N 
ATOM      4  C   UNL     1       1.785   8.090  20.216  0.00  0.00    +0.000 A 
ATOM      5  N   UNL     1       1.547   8.800  19.139  0.00  0.00    +0.000 NA
ATOM      6  N   UNL     1       2.105   8.123  18.084  0.00  0.00    +0.000 NA
ATOM      7  C   UNL     1       2.664   7.043  18.590  0.00  0.00    +0.000 A 
ATOM      8  O   UNL     1       2.450   6.926  19.941  0.00  0.00    +0.000 OA
ATOM      9  H   UNL     1       1.695   7.608  22.193  0.00  0.00    +0.000 HD
ENDROOT
BRANCH   7  10
ATOM     10  C   UNL     1       3.399   6.000  17.891  0.00  0.00    +0.000 A 
ATOM     11  C   UNL     1       4.712   6.304  17.480  0.00  0.00    +0.000 A 
ATOM     12  C   UNL     1       5.512   5.344  16.862  0.00  0.00    +0.000 A 
ATOM     13 CL   UNL     1       7.111   5.749  16.373  0.00  0.00    +0.000 Cl
ATOM     14  C   UNL     1       5.027   4.059  16.649  0.00  0.00    +0.000 A 
ATOM     15  C   UNL     1       3.731   3.736  17.054  0.00  0.00    +0.000 A 
ATOM     16  C   UNL     1       2.918   4.698  17.672  0.00  0.00    +0.000 A 
ATOM     17 CL   UNL     1       1.354   4.171  18.191  0.00  0.00    +0.000 Cl
ENDBRANCH   7  10
BRANCH   2  18
ATOM     18  C   UNL     1       0.883  10.725  21.106  0.00  0.00    +0.000 C 
BRANCH  18  19
ATOM     19  C   UNL     1      -0.252  11.639  21.550  0.00  0.00    +0.000 C 
BRANCH  19  20
ATOM     20  S   UNL     1      -0.508  12.886  20.302  0.00  0.00    +0.000 S 
ATOM     21  O   UNL     1      -0.678  14.166  20.959  0.00  0.00    +0.000 OA
ATOM     22  O   UNL     1       0.502  12.708  19.275  0.00  0.00    +0.000 OA
BRANCH  20  23
ATOM     23  C   UNL     1      -2.080  12.479  19.572  0.00  0.00    +0.000 A 
ATOM     24  C   UNL     1      -2.111  11.757  18.374  0.00  0.00    +0.000 A 
ATOM     25  C   UNL     1      -3.339  11.356  17.845  0.00  0.00    +0.000 A 
ATOM     26  C   UNL     1      -4.520  11.667  18.520  0.00  0.00    +0.000 A 
ATOM     27 CL   UNL     1      -6.031  11.159  17.875  0.00  0.00    +0.000 Cl
ATOM     28  C   UNL     1      -4.484  12.375  19.723  0.00  0.00    +0.000 A 
ATOM     29  C   UNL     1      -3.259  12.780  20.258  0.00  0.00    +0.000 A 
ENDBRANCH  20  23
ENDBRANCH  19  20
ENDBRANCH  18  19
ENDBRANCH   2  18
TORSDOF 5
ENDMDL
MODEL 7
REMARK VINA RESULT:      -8.0      3.619      8.811
REMARK  Name = 
REMARK  5 active torsions:
REMARK  status: ('A' for Active; 'I' for Inactive)
REMARK    1  A    between atoms: C_2  and  C_3
REMARK    2  A    between atoms: C_3  and  C_4
REMARK    3  A    between atoms: C_4  and  S_5
REMARK    4  A    between atoms: S_5  and  C_8
REMARK    5  A    between atoms: C_19  and  C_20
REMARK                            x       y       z     vdW  Elec       q    Type
REMARK                         _______ _______ _______ _____ _____    ______ ____
ROOT
ATOM      1  O   UNL     1       2.735   4.867  20.671  0.00  0.00    +0.000 OA
ATOM      2  C   UNL     1       2.568   5.717  19.794  0.00  0.00    +0.000 C 
ATOM      3  N   UNL     1       2.211   6.983  20.160  0.00  0.00    +0.000 N 
ATOM      4  C   UNL     1       1.999   8.024  19.308  0.00  0.00    +0.000 A 
ATOM      5  N   UNL     1       2.250   8.143  18.025  0.00  0.00    +0.000 NA
ATOM      6  N   UNL     1       1.765   9.366  17.636  0.00  0.00    +0.000 NA
ATOM      7  C   UNL     1       1.231   9.912  18.708  0.00  0.00    +0.000 A 
ATOM      8  O   UNL     1       1.394   9.136  19.829  0.00  0.00    +0.000 OA
ATOM      9  H   UNL     1       2.028   7.141  21.142  0.00  0.00    +0.000 HD
ENDROOT
BRANCH   7  10
ATOM     10  C   UNL     1       0.569  11.203  18.825  0.00  0.00    +0.000 A 
ATOM     11  C   UNL     1      -0.766  11.202  19.277  0.00  0.00    +0.000 A 
ATOM     12  C   UNL     1      -1.456  12.396  19.481  0.00  0.00    +0.000 A 
ATOM     13 CL   UNL     1      -3.085  12.359  20.032  0.00  0.00    +0.000 Cl
ATOM     14  C   UNL     1      -0.830  13.615  19.251  0.00  0.00    +0.000 A 
ATOM     15  C   UNL     1       0.493  13.638  18.809  0.00  0.00    +0.000 A 
ATOM     16  C   UNL     1       1.193  12.440  18.595  0.00  0.00    +0.000 A 
ATOM     17 CL   UNL     1       2.847  12.586  18.110  0.00  0.00    +0.000 Cl
ENDBRANCH   7  10
BRANCH   2  18
ATOM     18  C   UNL     1       2.752   5.373  18.330  0.00  0.00    +0.000 C 
BRANCH  18  19
ATOM     19  C   UNL     1       3.785   4.276  18.105  0.00  0.00    +0.000 C 
BRANCH  19  20
ATOM     20  S   UNL     1       5.394   5.025  17.936  0.00  0.00    +0.000 S 
ATOM     21  O   UNL     1       5.259   6.453  18.140  0.00  0.00    +0.000 OA
ATOM     22  O   UNL     1       6.335   4.249  18.723  0.00  0.00    +0.000 OA
BRANCH  20  23
ATOM     23  C   UNL     1       5.823   4.796  16.224  0.00  0.00    +0.000 A 
ATOM     24  C   UNL     1       7.089   5.190  15.778  0.00  0.00    +0.000 A 
ATOM     25  C   UNL     1       7.464   4.929  14.459  0.00  0.00    +0.000 A 
ATOM     26  C   UNL     1       6.581   4.268  13.604  0.00  0.00    +0.000 A 
ATOM     27 CL   UNL     1       7.052   3.935  11.983  0.00  0.00    +0.000 Cl
ATOM     28  C   UNL     1       5.325   3.864  14.057  0.00  0.00    +0.000 A 
ATOM     29  C   UNL     1       4.942   4.122  15.375  0.00  0.00    +0.000 A 
ENDBRANCH  20  23
ENDBRANCH  19  20
ENDBRANCH  18  19
ENDBRANCH   2  18
TORSDOF 5
ENDMDL
MODEL 8
REMARK VINA RESULT:      -7.9      2.714      3.134
REMARK  Name = 
REMARK  5 active torsions:
REMARK  status: ('A' for Active; 'I' for Inactive)
REMARK    1  A    between atoms: C_2  and  C_3
REMARK    2  A    between atoms: C_3  and  C_4
REMARK    3  A    between atoms: C_4  and  S_5
REMARK    4  A    between atoms: S_5  and  C_8
REMARK    5  A    between atoms: C_19  and  C_20
REMARK                            x       y       z     vdW  Elec       q    Type
REMARK                         _______ _______ _______ _____ _____    ______ ____
ROOT
ATOM      1  O   UNL     1       0.787   9.584  23.306  0.00  0.00    +0.000 OA
ATOM      2  C   UNL     1       1.020   9.505  22.098  0.00  0.00    +0.000 C 
ATOM      3  N   UNL     1       1.465   8.319  21.587  0.00  0.00    +0.000 N 
ATOM      4  C   UNL     1       1.757   8.081  20.278  0.00  0.00    +0.000 A 
ATOM      5  N   UNL     1       1.524   8.800  19.206  0.00  0.00    +0.000 NA
ATOM      6  N   UNL     1       2.099   8.139  18.150  0.00  0.00    +0.000 NA
ATOM      7  C   UNL     1       2.663   7.060  18.650  0.00  0.00    +0.000 A 
ATOM      8  O   UNL     1       2.437   6.926  19.998  0.00  0.00    +0.000 OA
ATOM      9  H   UNL     1       1.652   7.578  22.248  0.00  0.00    +0.000 HD
ENDROOT
BRANCH   7  10
ATOM     10  C   UNL     1       3.415   6.031  17.948  0.00  0.00    +0.000 A 
ATOM     11  C   UNL     1       4.733   6.348  17.563  0.00  0.00    +0.000 A 
ATOM     12  C   UNL     1       5.548   5.402  16.944  0.00  0.00    +0.000 A 
ATOM     13 CL   UNL     1       7.152   5.823  16.486  0.00  0.00    +0.000 Cl
ATOM     14  C   UNL     1       5.075   4.118  16.705  0.00  0.00    +0.000 A 
ATOM     15  C   UNL     1       3.775   3.781  17.085  0.00  0.00    +0.000 A 
ATOM     16  C   UNL     1       2.946   4.730  17.703  0.00  0.00    +0.000 A 
ATOM     17 CL   UNL     1       1.377   4.186  18.190  0.00  0.00    +0.000 Cl
ENDBRANCH   7  10
BRANCH   2  18
ATOM     18  C   UNL     1       0.821  10.698  21.186  0.00  0.00    +0.000 C 
BRANCH  18  19
ATOM     19  C   UNL     1      -0.587  11.275  21.263  0.00  0.00    +0.000 C 
BRANCH  19  20
ATOM     20  S   UNL     1      -1.054  11.871  19.650  0.00  0.00    +0.000 S 
ATOM     21  O   UNL     1      -1.111  10.742  18.742  0.00  0.00    +0.000 OA
ATOM     22  O   UNL     1      -2.198  12.752  19.810  0.00  0.00    +0.000 OA
BRANCH  20  23
ATOM     23  C   UNL     1       0.316  12.876  19.123  0.00  0.00    +0.000 A 
ATOM     24  C   UNL     1       0.390  14.207  19.545  0.00  0.00    +0.000 A 
ATOM     25  C   UNL     1       1.508  14.973  19.212  0.00  0.00    +0.000 A 
ATOM     26  C   UNL     1       2.545  14.402  18.472  0.00  0.00    +0.000 A 
ATOM     27 CL   UNL     1       3.929  15.344  18.074  0.00  0.00    +0.000 Cl
ATOM     28  C   UNL     1       2.474  13.069  18.064  0.00  0.00    +0.000 A 
ATOM     29  C   UNL     1       1.358  12.297  18.394  0.00  0.00    +0.000 A 
ENDBRANCH  20  23
ENDBRANCH  19  20
ENDBRANCH  18  19
ENDBRANCH   2  18
TORSDOF 5
ENDMDL
MODEL 9
REMARK VINA RESULT:      -7.9      2.213      2.698
REMARK  Name = 
REMARK  5 active torsions:
REMARK  status: ('A' for Active; 'I' for Inactive)
REMARK    1  A    between atoms: C_2  and  C_3
REMARK    2  A    between atoms: C_3  and  C_4
REMARK    3  A    between atoms: C_4  and  S_5
REMARK    4  A    between atoms: S_5  and  C_8
REMARK    5  A    between atoms: C_19  and  C_20
REMARK                            x       y       z     vdW  Elec       q    Type
REMARK                         _______ _______ _______ _____ _____    ______ ____
ROOT
ATOM      1  O   UNL     1       0.835   9.580  23.295  0.00  0.00    +0.000 OA
ATOM      2  C   UNL     1       1.046   9.493  22.085  0.00  0.00    +0.000 C 
ATOM      3  N   UNL     1       1.499   8.309  21.576  0.00  0.00    +0.000 N 
ATOM      4  C   UNL     1       1.770   8.063  20.264  0.00  0.00    +0.000 A 
ATOM      5  N   UNL     1       1.505   8.768  19.189  0.00  0.00    +0.000 NA
ATOM      6  N   UNL     1       2.070   8.106  18.129  0.00  0.00    +0.000 NA
ATOM      7  C   UNL     1       2.661   7.040  18.629  0.00  0.00    +0.000 A 
ATOM      8  O   UNL     1       2.462   6.916  19.981  0.00  0.00    +0.000 OA
ATOM      9  H   UNL     1       1.710   7.577  22.240  0.00  0.00    +0.000 HD
ENDROOT
BRANCH   7  10
ATOM     10  C   UNL     1       3.415   6.016  17.921  0.00  0.00    +0.000 A 
ATOM     11  C   UNL     1       4.729   6.341  17.530  0.00  0.00    +0.000 A 
ATOM     12  C   UNL     1       5.546   5.400  16.906  0.00  0.00    +0.000 A 
ATOM     13 CL   UNL     1       7.146   5.830  16.441  0.00  0.00    +0.000 Cl
ATOM     14  C   UNL     1       5.079   4.113  16.668  0.00  0.00    +0.000 A 
ATOM     15  C   UNL     1       3.782   3.770  17.053  0.00  0.00    +0.000 A 
ATOM     16  C   UNL     1       2.951   4.713  17.677  0.00  0.00    +0.000 A 
ATOM     17 CL   UNL     1       1.387   4.161  18.170  0.00  0.00    +0.000 Cl
ENDBRANCH   7  10
BRANCH   2  18
ATOM     18  C   UNL     1       0.812  10.674  21.165  0.00  0.00    +0.000 C 
BRANCH  18  19
ATOM     19  C   UNL     1      -0.666  10.949  20.919  0.00  0.00    +0.000 C 
BRANCH  19  20
ATOM     20  S   UNL     1      -1.112  12.471  21.732  0.00  0.00    +0.000 S 
ATOM     21  O   UNL     1      -0.902  12.309  23.157  0.00  0.00    +0.000 OA
ATOM     22  O   UNL     1      -0.488  13.566  21.010  0.00  0.00    +0.000 OA
BRANCH  20  23
ATOM     23  C   UNL     1      -2.869  12.616  21.492  0.00  0.00    +0.000 A 
ATOM     24  C   UNL     1      -3.694  12.841  22.599  0.00  0.00    +0.000 A 
ATOM     25  C   UNL     1      -5.062  13.047  22.406  0.00  0.00    +0.000 A 
ATOM     26  C   UNL     1      -5.589  13.038  21.114  0.00  0.00    +0.000 A 
ATOM     27 CL   UNL     1      -7.272  13.307  20.878  0.00  0.00    +0.000 Cl
ATOM     28  C   UNL     1      -4.760  12.827  20.011  0.00  0.00    +0.000 A 
ATOM     29  C   UNL     1      -3.392  12.620  20.196  0.00  0.00    +0.000 A 
ENDBRANCH  20  23
ENDBRANCH  19  20
ENDBRANCH  18  19
ENDBRANCH   2  18
TORSDOF 5
ENDMDL
