MODEL 1
REMARK VINA RESULT:      -8.9      0.000      0.000
REMARK  Name = 
REMARK  8 active torsions:
REMARK  status: ('A' for Active; 'I' for Inactive)
REMARK    1  A    between atoms: C_1  and  C_2
REMARK    2  A    between atoms: C_7  and  C_8
REMARK    3  A    between atoms: C_13  and  O_14
REMARK    4  A    between atoms: O_14  and  C_15
REMARK    5  A    between atoms: C_15  and  C_16
REMARK    6  A    between atoms: C_16  and  C_17
REMARK    7  A    between atoms: C_17  and  C_18
REMARK    8  A    between atoms: C_18  and  N_19
REMARK                            x       y       z     vdW  Elec       q    Type
REMARK                         _______ _______ _______ _____ _____    ______ ____
ROOT
ATOM      1  O   UNL     1       3.750   3.534  17.081  0.00  0.00    +0.000 OA
ENDROOT
BRANCH   1  10
ATOM      2  C   UNL     1       4.990   3.275  11.660  0.00  0.00    +0.000 C 
ATOM      3  C   UNL     1       5.685   3.765  12.896  0.00  0.00    +0.000 A 
ATOM      4  C   UNL     1       6.953   4.311  12.880  0.00  0.00    +0.000 A 
ATOM      5  C   UNL     1       7.518   4.756  14.077  0.00  0.00    +0.000 A 
ATOM      6  C   UNL     1       6.858   4.673  15.301  0.00  0.00    +0.000 A 
ATOM      7  N   UNL     1       7.518   5.157  16.361  0.00  0.00    +0.000 NA
ATOM      8  C   UNL     1       6.939   5.114  17.589  0.00  0.00    +0.000 A 
ATOM      9  C   UNL     1       5.680   4.560  17.778  0.00  0.00    +0.000 A 
ATOM     10  C   UNL     1       4.975   4.047  16.682  0.00  0.00    +0.000 A 
ATOM     11  C   UNL     1       5.565   4.106  15.373  0.00  0.00    +0.000 A 
ATOM     12  C   UNL     1       5.020   3.672  14.124  0.00  0.00    +0.000 A 
BRANCH   8  13
ATOM     13  C   UNL     1       7.687   5.696  18.781  0.00  0.00    +0.000 C 
ATOM     14  F   UNL     1       8.768   4.962  19.180  0.00  0.00    +0.000 F 
ATOM     15  F   UNL     1       8.168   6.950  18.535  0.00  0.00    +0.000 F 
ATOM     16  F   UNL     1       6.898   5.820  19.888  0.00  0.00    +0.000 F 
ENDBRANCH   8  13
ENDBRANCH   1  10
BRANCH   1  17
ATOM     17  C   UNL     1       3.374   3.750  18.429  0.00  0.00    +0.000 C 
BRANCH  17  18
ATOM     18  C   UNL     1       2.015   4.414  18.633  0.00  0.00    +0.000 C 
BRANCH  18  19
ATOM     19  C   UNL     1       2.071   5.795  17.955  0.00  0.00    +0.000 C 
BRANCH  19  20
ATOM     20  C   UNL     1       2.876   6.822  18.743  0.00  0.00    +0.000 C 
BRANCH  20  21
ATOM     21  N   UNL     1       2.053   7.948  19.160  0.00  0.00    +0.000 N 
ATOM     22  C   UNL     1       1.774   9.027  18.364  0.00  0.00    +0.000 C 
ATOM     23  O   UNL     1       2.156   9.267  17.236  0.00  0.00    +0.000 OA
ATOM     24  C   UNL     1       0.887   9.898  19.136  0.00  0.00    +0.000 A 
ATOM     25  C   UNL     1       0.267  11.082  18.785  0.00  0.00    +0.000 A 
ATOM     26  C   UNL     1      -0.565  11.678  19.739  0.00  0.00    +0.000 A 
ATOM     27  C   UNL     1      -0.748  11.086  21.006  0.00  0.00    +0.000 A 
ATOM     28  C   UNL     1      -0.104   9.889  21.340  0.00  0.00    +0.000 A 
ATOM     29  C   UNL     1       0.707   9.317  20.378  0.00  0.00    +0.000 A 
ATOM     30  C   UNL     1       1.479   8.072  20.396  0.00  0.00    +0.000 C 
ATOM     31  O   UNL     1       1.556   7.330  21.358  0.00  0.00    +0.000 OA
ENDBRANCH  20  21
ENDBRANCH  19  20
ENDBRANCH  18  19
ENDBRANCH  17  18
ENDBRANCH   1  17
TORSDOF 7
ENDMDL
MODEL 2
REMARK VINA RESULT:      -8.6      0.895      1.976
REMARK  Name = 
REMARK  8 active torsions:
REMARK  status: ('A' for Active; 'I' for Inactive)
REMARK    1  A    between atoms: C_1  and  C_2
REMARK    2  A    between atoms: C_7  and  C_8
REMARK    3  A    between atoms: C_13  and  O_14
REMARK    4  A    between atoms: O_14  and  C_15
REMARK    5  A    between atoms: C_15  and  C_16
REMARK    6  A    between atoms: C_16  and  C_17
REMARK    7  A    between atoms: C_17  and  C_18
REMARK    8  A    between atoms: C_18  and  N_19
REMARK                            x       y       z     vdW  Elec       q    Type
REMARK                         _______ _______ _______ _____ _____    ______ ____
ROOT
ATOM      1  O   UNL     1       4.094   3.005  17.096  0.00  0.00    +0.000 OA
ENDROOT
BRANCH   1  10
ATOM      2  C   UNL     1       5.218   3.156  11.647  0.00  0.00    +0.000 C 
ATOM      3  C   UNL     1       5.845   3.724  12.886  0.00  0.00    +0.000 A 
ATOM      4  C   UNL     1       6.992   4.493  12.865  0.00  0.00    +0.000 A 
ATOM      5  C   UNL     1       7.497   4.994  14.067  0.00  0.00    +0.000 A 
ATOM      6  C   UNL     1       6.896   4.751  15.299  0.00  0.00    +0.000 A 
ATOM      7  N   UNL     1       7.483   5.313  16.364  0.00  0.00    +0.000 NA
ATOM      8  C   UNL     1       6.955   5.124  17.600  0.00  0.00    +0.000 A 
ATOM      9  C   UNL     1       5.823   4.343  17.793  0.00  0.00    +0.000 A 
ATOM     10  C   UNL     1       5.195   3.746  16.693  0.00  0.00    +0.000 A 
ATOM     11  C   UNL     1       5.730   3.955  15.376  0.00  0.00    +0.000 A 
ATOM     12  C   UNL     1       5.240   3.470  14.123  0.00  0.00    +0.000 A 
BRANCH   8  13
ATOM     13  C   UNL     1       7.616   5.792  18.799  0.00  0.00    +0.000 C 
ATOM     14  F   UNL     1       6.815   5.893  19.900  0.00  0.00    +0.000 F 
ATOM     15  F   UNL     1       8.732   5.126  19.218  0.00  0.00    +0.000 F 
ATOM     16  F   UNL     1       8.032   7.064  18.529  0.00  0.00    +0.000 F 
ENDBRANCH   8  13
ENDBRANCH   1  10
BRANCH   1  17
ATOM     17  C   UNL     1       3.489   3.373  18.323  0.00  0.00    +0.000 C 
BRANCH  17  18
ATOM     18  C   UNL     1       2.017   3.761  18.238  0.00  0.00    +0.000 C 
BRANCH  18  19
ATOM     19  C   UNL     1       1.635   4.419  19.577  0.00  0.00    +0.000 C 
BRANCH  19  20
ATOM     20  C   UNL     1       2.657   5.440  20.062  0.00  0.00    +0.000 C 
BRANCH  20  21
ATOM     21  N   UNL     1       2.250   6.802  19.749  0.00  0.00    +0.000 N 
ATOM     22  C   UNL     1       1.499   7.586  20.583  0.00  0.00    +0.000 C 
ATOM     23  O   UNL     1       1.021   7.314  21.668  0.00  0.00    +0.000 OA
ATOM     24  C   UNL     1       1.354   8.882  19.921  0.00  0.00    +0.000 A 
ATOM     25  C   UNL     1       0.742  10.044  20.352  0.00  0.00    +0.000 A 
ATOM     26  C   UNL     1       0.797  11.152  19.499  0.00  0.00    +0.000 A 
ATOM     27  C   UNL     1       1.449  11.070  18.252  0.00  0.00    +0.000 A 
ATOM     28  C   UNL     1       2.058   9.880  17.836  0.00  0.00    +0.000 A 
ATOM     29  C   UNL     1       1.995   8.802  18.699  0.00  0.00    +0.000 A 
ATOM     30  C   UNL     1       2.550   7.451  18.582  0.00  0.00    +0.000 C 
ATOM     31  O   UNL     1       3.156   7.043  17.609  0.00  0.00    +0.000 OA
ENDBRANCH  20  21
ENDBRANCH  19  20
ENDBRANCH  18  19
ENDBRANCH  17  18
ENDBRANCH   1  17
TORSDOF 7
ENDMDL
MODEL 3
REMARK VINA RESULT:      -8.5      2.600      4.684
REMARK  Name = 
REMARK  8 active torsions:
REMARK  status: ('A' for Active; 'I' for Inactive)
REMARK    1  A    between atoms: C_1  and  C_2
REMARK    2  A    between atoms: C_7  and  C_8
REMARK    3  A    between atoms: C_13  and  O_14
REMARK    4  A    between atoms: O_14  and  C_15
REMARK    5  A    between atoms: C_15  and  C_16
REMARK    6  A    between atoms: C_16  and  C_17
REMARK    7  A    between atoms: C_17  and  C_18
REMARK    8  A    between atoms: C_18  and  N_19
REMARK                            x       y       z     vdW  Elec       q    Type
REMARK                         _______ _______ _______ _____ _____    ______ ____
ROOT
ATOM      1  O   UNL     1       3.880   7.370  17.824  0.00  0.00    +0.000 OA
ENDROOT
BRANCH   1  10
ATOM      2  C   UNL     1       0.710   3.632  20.463  0.00  0.00    +0.000 C 
ATOM      3  C   UNL     1       1.790   3.577  19.423  0.00  0.00    +0.000 A 
ATOM      4  C   UNL     1       2.248   2.395  18.875  0.00  0.00    +0.000 A 
ATOM      5  C   UNL     1       3.247   2.440  17.900  0.00  0.00    +0.000 A 
ATOM      6  C   UNL     1       3.814   3.630  17.452  0.00  0.00    +0.000 A 
ATOM      7  N   UNL     1       4.749   3.517  16.500  0.00  0.00    +0.000 NA
ATOM      8  C   UNL     1       5.346   4.633  16.009  0.00  0.00    +0.000 A 
ATOM      9  C   UNL     1       5.023   5.897  16.486  0.00  0.00    +0.000 A 
ATOM     10  C   UNL     1       4.049   6.036  17.482  0.00  0.00    +0.000 A 
ATOM     11  C   UNL     1       3.392   4.865  17.995  0.00  0.00    +0.000 A 
ATOM     12  C   UNL     1       2.361   4.777  18.982  0.00  0.00    +0.000 A 
BRANCH   8  13
ATOM     13  C   UNL     1       6.387   4.493  14.906  0.00  0.00    +0.000 C 
ATOM     14  F   UNL     1       6.241   3.378  14.133  0.00  0.00    +0.000 F 
ATOM     15  F   UNL     1       6.371   5.546  14.036  0.00  0.00    +0.000 F 
ATOM     16  F   UNL     1       7.662   4.442  15.390  0.00  0.00    +0.000 F 
ENDBRANCH   8  13
ENDBRANCH   1  10
BRANCH   1  17
ATOM     17  C   UNL     1       2.621   7.950  17.535  0.00  0.00    +0.000 C 
BRANCH  17  18
ATOM     18  C   UNL     1       1.885   8.547  18.730  0.00  0.00    +0.000 C 
BRANCH  18  19
ATOM     19  C   UNL     1       0.985   9.678  18.199  0.00  0.00    +0.000 C 
BRANCH  19  20
ATOM     20  C   UNL     1       1.263  11.028  18.851  0.00  0.00    +0.000 C 
BRANCH  20  21
ATOM     21  N   UNL     1       0.224  11.391  19.804  0.00  0.00    +0.000 N 
ATOM     22  C   UNL     1      -0.916  12.070  19.470  0.00  0.00    +0.000 C 
ATOM     23  O   UNL     1      -1.259  12.510  18.390  0.00  0.00    +0.000 OA
ATOM     24  C   UNL     1      -1.706  12.190  20.696  0.00  0.00    +0.000 A 
ATOM     25  C   UNL     1      -2.960  12.733  20.905  0.00  0.00    +0.000 A 
ATOM     26  C   UNL     1      -3.478  12.670  22.202  0.00  0.00    +0.000 A 
ATOM     27  C   UNL     1      -2.739  12.077  23.247  0.00  0.00    +0.000 A 
ATOM     28  C   UNL     1      -1.468  11.538  23.011  0.00  0.00    +0.000 A 
ATOM     29  C   UNL     1      -0.980  11.608  21.720  0.00  0.00    +0.000 A 
ATOM     30  C   UNL     1       0.273  11.115  21.144  0.00  0.00    +0.000 C 
ATOM     31  O   UNL     1       1.152  10.571  21.786  0.00  0.00    +0.000 OA
ENDBRANCH  20  21
ENDBRANCH  19  20
ENDBRANCH  18  19
ENDBRANCH  17  18
ENDBRANCH   1  17
TORSDOF 7
ENDMDL
MODEL 4
REMARK VINA RESULT:      -8.5      1.154      1.483
REMARK  Name = 
REMARK  8 active torsions:
REMARK  status: ('A' for Active; 'I' for Inactive)
REMARK    1  A    between atoms: C_1  and  C_2
REMARK    2  A    between atoms: C_7  and  C_8
REMARK    3  A    between atoms: C_13  and  O_14
REMARK    4  A    between atoms: O_14  and  C_15
REMARK    5  A    between atoms: C_15  and  C_16
REMARK    6  A    between atoms: C_16  and  C_17
REMARK    7  A    between atoms: C_17  and  C_18
REMARK    8  A    between atoms: C_18  and  N_19
REMARK                            x       y       z     vdW  Elec       q    Type
REMARK                         _______ _______ _______ _____ _____    ______ ____
ROOT
ATOM      1  O   UNL     1       4.794   3.023  16.730  0.00  0.00    +0.000 OA
ENDROOT
BRANCH   1  10
ATOM      2  C   UNL     1       5.806   2.268  11.309  0.00  0.00    +0.000 C 
ATOM      3  C   UNL     1       6.261   3.239  12.358  0.00  0.00    +0.000 A 
ATOM      4  C   UNL     1       7.156   4.259  12.103  0.00  0.00    +0.000 A 
ATOM      5  C   UNL     1       7.512   5.127  13.139  0.00  0.00    +0.000 A 
ATOM      6  C   UNL     1       7.006   5.010  14.430  0.00  0.00    +0.000 A 
ATOM      7  N   UNL     1       7.425   5.925  15.313  0.00  0.00    +0.000 NA
ATOM      8  C   UNL     1       6.974   5.879  16.593  0.00  0.00    +0.000 A 
ATOM      9  C   UNL     1       6.098   4.889  17.018  0.00  0.00    +0.000 A 
ATOM     10  C   UNL     1       5.650   3.921  16.110  0.00  0.00    +0.000 A 
ATOM     11  C   UNL     1       6.101   3.971  14.747  0.00  0.00    +0.000 A 
ATOM     12  C   UNL     1       5.755   3.111  13.657  0.00  0.00    +0.000 A 
BRANCH   8  13
ATOM     13  C   UNL     1       7.434   6.944  17.580  0.00  0.00    +0.000 C 
ATOM     14  F   UNL     1       8.253   7.895  17.042  0.00  0.00    +0.000 F 
ATOM     15  F   UNL     1       6.391   7.631  18.133  0.00  0.00    +0.000 F 
ATOM     16  F   UNL     1       8.124   6.421  18.636  0.00  0.00    +0.000 F 
ENDBRANCH   8  13
ENDBRANCH   1  10
BRANCH   1  17
ATOM     17  C   UNL     1       3.941   3.541  17.735  0.00  0.00    +0.000 C 
BRANCH  17  18
ATOM     18  C   UNL     1       2.452   3.521  17.406  0.00  0.00    +0.000 C 
BRANCH  18  19
ATOM     19  C   UNL     1       1.785   4.647  18.217  0.00  0.00    +0.000 C 
BRANCH  19  20
ATOM     20  C   UNL     1       2.775   5.478  19.024  0.00  0.00    +0.000 C 
BRANCH  20  21
ATOM     21  N   UNL     1       2.362   6.871  19.116  0.00  0.00    +0.000 N 
ATOM     22  C   UNL     1       2.637   7.814  18.163  0.00  0.00    +0.000 C 
ATOM     23  O   UNL     1       3.268   7.701  17.130  0.00  0.00    +0.000 OA
ATOM     24  C   UNL     1       2.012   9.058  18.613  0.00  0.00    +0.000 A 
ATOM     25  C   UNL     1       1.936  10.295  18.001  0.00  0.00    +0.000 A 
ATOM     26  C   UNL     1       1.230  11.300  18.671  0.00  0.00    +0.000 A 
ATOM     27  C   UNL     1       0.629  11.048  19.921  0.00  0.00    +0.000 A 
ATOM     28  C   UNL     1       0.724   9.788  20.523  0.00  0.00    +0.000 A 
ATOM     29  C   UNL     1       1.422   8.810  19.839  0.00  0.00    +0.000 A 
ATOM     30  C   UNL     1       1.671   7.406  20.170  0.00  0.00    +0.000 C 
ATOM     31  O   UNL     1       1.305   6.871  21.201  0.00  0.00    +0.000 OA
ENDBRANCH  20  21
ENDBRANCH  19  20
ENDBRANCH  18  19
ENDBRANCH  17  18
ENDBRANCH   1  17
TORSDOF 7
ENDMDL
MODEL 5
REMARK VINA RESULT:      -8.5      0.862      1.194
REMARK  Name = 
REMARK  8 active torsions:
REMARK  status: ('A' for Active; 'I' for Inactive)
REMARK    1  A    between atoms: C_1  and  C_2
REMARK    2  A    between atoms: C_7  and  C_8
REMARK    3  A    between atoms: C_13  and  O_14
REMARK    4  A    between atoms: O_14  and  C_15
REMARK    5  A    between atoms: C_15  and  C_16
REMARK    6  A    between atoms: C_16  and  C_17
REMARK    7  A    between atoms: C_17  and  C_18
REMARK    8  A    between atoms: C_18  and  N_19
REMARK                            x       y       z     vdW  Elec       q    Type
REMARK                         _______ _______ _______ _____ _____    ______ ____
ROOT
ATOM      1  O   UNL     1       4.494   3.256  16.790  0.00  0.00    +0.000 OA
ENDROOT
BRANCH   1  10
ATOM      2  C   UNL     1       5.587   2.283  11.420  0.00  0.00    +0.000 C 
ATOM      3  C   UNL     1       6.106   3.226  12.465  0.00  0.00    +0.000 A 
ATOM      4  C   UNL     1       7.107   4.145  12.219  0.00  0.00    +0.000 A 
ATOM      5  C   UNL     1       7.517   4.996  13.248  0.00  0.00    +0.000 A 
ATOM      6  C   UNL     1       6.964   4.959  14.525  0.00  0.00    +0.000 A 
ATOM      7  N   UNL     1       7.446   5.848  15.403  0.00  0.00    +0.000 NA
ATOM      8  C   UNL     1       6.954   5.876  16.669  0.00  0.00    +0.000 A 
ATOM      9  C   UNL     1       5.971   4.988  17.084  0.00  0.00    +0.000 A 
ATOM     10  C   UNL     1       5.455   4.050  16.181  0.00  0.00    +0.000 A 
ATOM     11  C   UNL     1       5.949   4.024  14.832  0.00  0.00    +0.000 A 
ATOM     12  C   UNL     1       5.551   3.179  13.749  0.00  0.00    +0.000 A 
BRANCH   8  13
ATOM     13  C   UNL     1       7.491   6.911  17.649  0.00  0.00    +0.000 C 
ATOM     14  F   UNL     1       6.525   7.631  18.292  0.00  0.00    +0.000 F 
ATOM     15  F   UNL     1       8.248   6.350  18.638  0.00  0.00    +0.000 F 
ATOM     16  F   UNL     1       8.300   7.833  17.051  0.00  0.00    +0.000 F 
ENDBRANCH   8  13
ENDBRANCH   1  10
BRANCH   1  17
ATOM     17  C   UNL     1       3.201   3.816  16.938  0.00  0.00    +0.000 C 
BRANCH  17  18
ATOM     18  C   UNL     1       2.757   4.068  18.375  0.00  0.00    +0.000 C 
BRANCH  18  19
ATOM     19  C   UNL     1       1.976   5.396  18.389  0.00  0.00    +0.000 C 
BRANCH  19  20
ATOM     20  C   UNL     1       2.864   6.616  18.597  0.00  0.00    +0.000 C 
BRANCH  20  21
ATOM     21  N   UNL     1       2.107   7.757  19.093  0.00  0.00    +0.000 N 
ATOM     22  C   UNL     1       1.827   8.870  18.349  0.00  0.00    +0.000 C 
ATOM     23  O   UNL     1       2.159   9.135  17.209  0.00  0.00    +0.000 OA
ATOM     24  C   UNL     1       1.016   9.746  19.194  0.00  0.00    +0.000 A 
ATOM     25  C   UNL     1       0.423  10.963  18.914  0.00  0.00    +0.000 A 
ATOM     26  C   UNL     1      -0.335  11.556  19.931  0.00  0.00    +0.000 A 
ATOM     27  C   UNL     1      -0.473  10.929  21.186  0.00  0.00    +0.000 A 
ATOM     28  C   UNL     1       0.142   9.699  21.447  0.00  0.00    +0.000 A 
ATOM     29  C   UNL     1       0.879   9.130  20.425  0.00  0.00    +0.000 A 
ATOM     30  C   UNL     1       1.604   7.859  20.362  0.00  0.00    +0.000 C 
ATOM     31  O   UNL     1       1.704   7.083  21.294  0.00  0.00    +0.000 OA
ENDBRANCH  20  21
ENDBRANCH  19  20
ENDBRANCH  18  19
ENDBRANCH  17  18
ENDBRANCH   1  17
TORSDOF 7
ENDMDL
MODEL 6
REMARK VINA RESULT:      -8.4      2.950      4.421
REMARK  Name = 
REMARK  8 active torsions:
REMARK  status: ('A' for Active; 'I' for Inactive)
REMARK    1  A    between atoms: C_1  and  C_2
REMARK    2  A    between atoms: C_7  and  C_8
REMARK    3  A    between atoms: C_13  and  O_14
REMARK    4  A    between atoms: O_14  and  C_15
REMARK    5  A    between atoms: C_15  and  C_16
REMARK    6  A    between atoms: C_16  and  C_17
REMARK    7  A    between atoms: C_17  and  C_18
REMARK    8  A    between atoms: C_18  and  N_19
REMARK                            x       y       z     vdW  Elec       q    Type
REMARK                         _______ _______ _______ _____ _____    ______ ____
ROOT
ATOM      1  O   UNL     1       3.305   7.049  17.480  0.00  0.00    +0.000 OA
ENDROOT
BRANCH   1  10
ATOM      2  C   UNL     1       0.276   2.568  18.797  0.00  0.00    +0.000 C 
ATOM      3  C   UNL     1       1.729   2.934  18.858  0.00  0.00    +0.000 A 
ATOM      4  C   UNL     1       2.702   2.079  19.337  0.00  0.00    +0.000 A 
ATOM      5  C   UNL     1       4.035   2.498  19.342  0.00  0.00    +0.000 A 
ATOM      6  C   UNL     1       4.435   3.751  18.886  0.00  0.00    +0.000 A 
ATOM      7  N   UNL     1       5.748   4.006  18.936  0.00  0.00    +0.000 NA
ATOM      8  C   UNL     1       6.216   5.206  18.507  0.00  0.00    +0.000 A 
ATOM      9  C   UNL     1       5.360   6.190  18.031  0.00  0.00    +0.000 A 
ATOM     10  C   UNL     1       3.983   5.944  17.973  0.00  0.00    +0.000 A 
ATOM     11  C   UNL     1       3.475   4.670  18.403  0.00  0.00    +0.000 A 
ATOM     12  C   UNL     1       2.124   4.199  18.405  0.00  0.00    +0.000 A 
BRANCH   8  13
ATOM     13  C   UNL     1       7.716   5.472  18.541  0.00  0.00    +0.000 C 
ATOM     14  F   UNL     1       8.483   4.432  18.099  0.00  0.00    +0.000 F 
ATOM     15  F   UNL     1       8.074   6.542  17.772  0.00  0.00    +0.000 F 
ATOM     16  F   UNL     1       8.171   5.757  19.795  0.00  0.00    +0.000 F 
ENDBRANCH   8  13
ENDBRANCH   1  10
BRANCH   1  17
ATOM     17  C   UNL     1       2.386   7.679  18.354  0.00  0.00    +0.000 C 
BRANCH  17  18
ATOM     18  C   UNL     1       1.875   9.042  17.897  0.00  0.00    +0.000 C 
BRANCH  18  19
ATOM     19  C   UNL     1       0.938   9.576  18.996  0.00  0.00    +0.000 C 
BRANCH  19  20
ATOM     20  C   UNL     1       0.805  11.094  18.992  0.00  0.00    +0.000 C 
BRANCH  20  21
ATOM     21  N   UNL     1      -0.281  11.543  19.851  0.00  0.00    +0.000 N 
ATOM     22  C   UNL     1      -1.460  12.059  19.385  0.00  0.00    +0.000 C 
ATOM     23  O   UNL     1      -1.807  12.267  18.239  0.00  0.00    +0.000 OA
ATOM     24  C   UNL     1      -2.287  12.339  20.559  0.00  0.00    +0.000 A 
ATOM     25  C   UNL     1      -3.582  12.813  20.650  0.00  0.00    +0.000 A 
ATOM     26  C   UNL     1      -4.128  12.947  21.932  0.00  0.00    +0.000 A 
ATOM     27  C   UNL     1      -3.373  12.614  23.075  0.00  0.00    +0.000 A 
ATOM     28  C   UNL     1      -2.060  12.141  22.957  0.00  0.00    +0.000 A 
ATOM     29  C   UNL     1      -1.547  12.011  21.680  0.00  0.00    +0.000 A 
ATOM     30  C   UNL     1      -0.246  11.521  21.219  0.00  0.00    +0.000 C 
ATOM     31  O   UNL     1       0.655  11.173  21.960  0.00  0.00    +0.000 OA
ENDBRANCH  20  21
ENDBRANCH  19  20
ENDBRANCH  18  19
ENDBRANCH  17  18
ENDBRANCH   1  17
TORSDOF 7
ENDMDL
MODEL 7
REMARK VINA RESULT:      -8.4      2.718      4.984
REMARK  Name = 
REMARK  8 active torsions:
REMARK  status: ('A' for Active; 'I' for Inactive)
REMARK    1  A    between atoms: C_1  and  C_2
REMARK    2  A    between atoms: C_7  and  C_8
REMARK    3  A    between atoms: C_13  and  O_14
REMARK    4  A    between atoms: O_14  and  C_15
REMARK    5  A    between atoms: C_15  and  C_16
REMARK    6  A    between atoms: C_16  and  C_17
REMARK    7  A    between atoms: C_17  and  C_18
REMARK    8  A    between atoms: C_18  and  N_19
REMARK                            x       y       z     vdW  Elec       q    Type
REMARK                         _______ _______ _______ _____ _____    ______ ____
ROOT
ATOM      1  O   UNL     1       4.020   7.301  17.880  0.00  0.00    +0.000 OA
ENDROOT
BRANCH   1  10
ATOM      2  C   UNL     1       1.217   3.609  20.961  0.00  0.00    +0.000 C 
ATOM      3  C   UNL     1       2.098   3.543  19.749  0.00  0.00    +0.000 A 
ATOM      4  C   UNL     1       2.410   2.361  19.108  0.00  0.00    +0.000 A 
ATOM      5  C   UNL     1       3.227   2.395  17.975  0.00  0.00    +0.000 A 
ATOM      6  C   UNL     1       3.751   3.576  17.457  0.00  0.00    +0.000 A 
ATOM      7  N   UNL     1       4.503   3.455  16.356  0.00  0.00    +0.000 NA
ATOM      8  C   UNL     1       5.048   4.562  15.789  0.00  0.00    +0.000 A 
ATOM      9  C   UNL     1       4.859   5.824  16.337  0.00  0.00    +0.000 A 
ATOM     10  C   UNL     1       4.078   5.971  17.490  0.00  0.00    +0.000 A 
ATOM     11  C   UNL     1       3.476   4.811  18.088  0.00  0.00    +0.000 A 
ATOM     12  C   UNL     1       2.629   4.733  19.237  0.00  0.00    +0.000 A 
BRANCH   8  13
ATOM     13  C   UNL     1       5.876   4.414  14.520  0.00  0.00    +0.000 C 
ATOM     14  F   UNL     1       6.748   3.364  14.535  0.00  0.00    +0.000 F 
ATOM     15  F   UNL     1       5.102   4.229  13.409  0.00  0.00    +0.000 F 
ATOM     16  F   UNL     1       6.634   5.518  14.254  0.00  0.00    +0.000 F 
ENDBRANCH   8  13
ENDBRANCH   1  10
BRANCH   1  17
ATOM     17  C   UNL     1       2.854   8.023  17.525  0.00  0.00    +0.000 C 
BRANCH  17  18
ATOM     18  C   UNL     1       1.983   8.475  18.693  0.00  0.00    +0.000 C 
BRANCH  18  19
ATOM     19  C   UNL     1       1.032   9.565  18.164  0.00  0.00    +0.000 C 
BRANCH  19  20
ATOM     20  C   UNL     1       1.262  10.929  18.803  0.00  0.00    +0.000 C 
BRANCH  20  21
ATOM     21  N   UNL     1       0.200  11.274  19.736  0.00  0.00    +0.000 N 
ATOM     22  C   UNL     1       0.242  11.002  21.077  0.00  0.00    +0.000 C 
ATOM     23  O   UNL     1       1.101  10.425  21.716  0.00  0.00    +0.000 OA
ATOM     24  C   UNL     1      -0.986  11.548  21.654  0.00  0.00    +0.000 A 
ATOM     25  C   UNL     1      -1.414  11.596  22.967  0.00  0.00    +0.000 A 
ATOM     26  C   UNL     1      -2.639  12.224  23.220  0.00  0.00    +0.000 A 
ATOM     27  C   UNL     1      -3.396  12.777  22.167  0.00  0.00    +0.000 A 
ATOM     28  C   UNL     1      -2.944  12.711  20.844  0.00  0.00    +0.000 A 
ATOM     29  C   UNL     1      -1.728  12.091  20.621  0.00  0.00    +0.000 A 
ATOM     30  C   UNL     1      -0.971  11.890  19.384  0.00  0.00    +0.000 C 
ATOM     31  O   UNL     1      -1.360  12.231  18.282  0.00  0.00    +0.000 OA
ENDBRANCH  20  21
ENDBRANCH  19  20
ENDBRANCH  18  19
ENDBRANCH  17  18
ENDBRANCH   1  17
TORSDOF 7
ENDMDL
MODEL 8
REMARK VINA RESULT:      -8.3      2.966      4.652
REMARK  Name = 
REMARK  8 active torsions:
REMARK  status: ('A' for Active; 'I' for Inactive)
REMARK    1  A    between atoms: C_1  and  C_2
REMARK    2  A    between atoms: C_7  and  C_8
REMARK    3  A    between atoms: C_13  and  O_14
REMARK    4  A    between atoms: O_14  and  C_15
REMARK    5  A    between atoms: C_15  and  C_16
REMARK    6  A    between atoms: C_16  and  C_17
REMARK    7  A    between atoms: C_17  and  C_18
REMARK    8  A    between atoms: C_18  and  N_19
REMARK                            x       y       z     vdW  Elec       q    Type
REMARK                         _______ _______ _______ _____ _____    ______ ____
ROOT
ATOM      1  O   UNL     1       3.322   7.069  17.560  0.00  0.00    +0.000 OA
ENDROOT
BRANCH   1  10
ATOM      2  C   UNL     1       0.272   2.592  18.840  0.00  0.00    +0.000 C 
ATOM      3  C   UNL     1       1.727   2.950  18.901  0.00  0.00    +0.000 A 
ATOM      4  C   UNL     1       2.696   2.085  19.371  0.00  0.00    +0.000 A 
ATOM      5  C   UNL     1       4.031   2.497  19.377  0.00  0.00    +0.000 A 
ATOM      6  C   UNL     1       4.437   3.752  18.933  0.00  0.00    +0.000 A 
ATOM      7  N   UNL     1       5.752   3.999  18.982  0.00  0.00    +0.000 NA
ATOM      8  C   UNL     1       6.226   5.201  18.563  0.00  0.00    +0.000 A 
ATOM      9  C   UNL     1       5.374   6.194  18.099  0.00  0.00    +0.000 A 
ATOM     10  C   UNL     1       3.995   5.956  18.041  0.00  0.00    +0.000 A 
ATOM     11  C   UNL     1       3.481   4.681  18.460  0.00  0.00    +0.000 A 
ATOM     12  C   UNL     1       2.128   4.216  18.460  0.00  0.00    +0.000 A 
BRANCH   8  13
ATOM     13  C   UNL     1       7.726   5.458  18.597  0.00  0.00    +0.000 C 
ATOM     14  F   UNL     1       8.482   4.456  18.060  0.00  0.00    +0.000 F 
ATOM     15  F   UNL     1       8.078   6.587  17.913  0.00  0.00    +0.000 F 
ATOM     16  F   UNL     1       8.201   5.639  19.864  0.00  0.00    +0.000 F 
ENDBRANCH   8  13
ENDBRANCH   1  10
BRANCH   1  17
ATOM     17  C   UNL     1       2.422   7.707  18.448  0.00  0.00    +0.000 C 
BRANCH  17  18
ATOM     18  C   UNL     1       1.960   9.098  18.026  0.00  0.00    +0.000 C 
BRANCH  18  19
ATOM     19  C   UNL     1       0.909   9.565  19.050  0.00  0.00    +0.000 C 
BRANCH  19  20
ATOM     20  C   UNL     1       0.833  11.081  19.189  0.00  0.00    +0.000 C 
BRANCH  20  21
ATOM     21  N   UNL     1      -0.293  11.491  20.016  0.00  0.00    +0.000 N 
ATOM     22  C   UNL     1      -0.303  11.421  21.383  0.00  0.00    +0.000 C 
ATOM     23  O   UNL     1       0.552  10.999  22.136  0.00  0.00    +0.000 OA
ATOM     24  C   UNL     1      -1.587  11.968  21.820  0.00  0.00    +0.000 A 
ATOM     25  C   UNL     1      -2.084  12.181  23.093  0.00  0.00    +0.000 A 
ATOM     26  C   UNL     1      -3.352  12.762  23.197  0.00  0.00    +0.000 A 
ATOM     27  C   UNL     1      -4.085  13.106  22.043  0.00  0.00    +0.000 A 
ATOM     28  C   UNL     1      -3.563  12.876  20.765  0.00  0.00    +0.000 A 
ATOM     29  C   UNL     1      -2.305  12.307  20.688  0.00  0.00    +0.000 A 
ATOM     30  C   UNL     1      -1.476  11.976  19.527  0.00  0.00    +0.000 C 
ATOM     31  O   UNL     1      -1.827  12.127  18.372  0.00  0.00    +0.000 OA
ENDBRANCH  20  21
ENDBRANCH  19  20
ENDBRANCH  18  19
ENDBRANCH  17  18
ENDBRANCH   1  17
TORSDOF 7
ENDMDL
MODEL 9
REMARK VINA RESULT:      -8.3      2.473      4.761
REMARK  Name = 
REMARK  8 active torsions:
REMARK  status: ('A' for Active; 'I' for Inactive)
REMARK    1  A    between atoms: C_1  and  C_2
REMARK    2  A    between atoms: C_7  and  C_8
REMARK    3  A    between atoms: C_13  and  O_14
REMARK    4  A    between atoms: O_14  and  C_15
REMARK    5  A    between atoms: C_15  and  C_16
REMARK    6  A    between atoms: C_16  and  C_17
REMARK    7  A    between atoms: C_17  and  C_18
REMARK    8  A    between atoms: C_18  and  N_19
REMARK                            x       y       z     vdW  Elec       q    Type
REMARK                         _______ _______ _______ _____ _____    ______ ____
ROOT
ATOM      1  O   UNL     1       2.379   6.722  17.609  0.00  0.00    +0.000 OA
ENDROOT
BRANCH   1  10
ATOM      2  C   UNL     1       1.163   2.864  21.433  0.00  0.00    +0.000 C 
ATOM      3  C   UNL     1       2.350   3.184  20.575  0.00  0.00    +0.000 A 
ATOM      4  C   UNL     1       3.524   2.457  20.612  0.00  0.00    +0.000 A 
ATOM      5  C   UNL     1       4.575   2.818  19.765  0.00  0.00    +0.000 A 
ATOM      6  C   UNL     1       4.498   3.888  18.878  0.00  0.00    +0.000 A 
ATOM      7  N   UNL     1       5.578   4.103  18.117  0.00  0.00    +0.000 NA
ATOM      8  C   UNL     1       5.578   5.127  17.225  0.00  0.00    +0.000 A 
ATOM      9  C   UNL     1       4.486   5.974  17.094  0.00  0.00    +0.000 A 
ATOM     10  C   UNL     1       3.348   5.768  17.883  0.00  0.00    +0.000 A 
ATOM     11  C   UNL     1       3.324   4.674  18.815  0.00  0.00    +0.000 A 
ATOM     12  C   UNL     1       2.269   4.266  19.691  0.00  0.00    +0.000 A 
BRANCH   8  13
ATOM     13  C   UNL     1       6.802   5.342  16.344  0.00  0.00    +0.000 C 
ATOM     14  F   UNL     1       6.524   5.459  15.012  0.00  0.00    +0.000 F 
ATOM     15  F   UNL     1       7.491   6.474  16.674  0.00  0.00    +0.000 F 
ATOM     16  F   UNL     1       7.706   4.324  16.442  0.00  0.00    +0.000 F 
ENDBRANCH   8  13
ENDBRANCH   1  10
BRANCH   1  17
ATOM     17  C   UNL     1       2.679   8.060  17.961  0.00  0.00    +0.000 C 
BRANCH  17  18
ATOM     18  C   UNL     1       1.768   8.681  19.015  0.00  0.00    +0.000 C 
BRANCH  18  19
ATOM     19  C   UNL     1       0.886   9.724  18.305  0.00  0.00    +0.000 C 
BRANCH  19  20
ATOM     20  C   UNL     1       1.074  11.139  18.838  0.00  0.00    +0.000 C 
BRANCH  20  21
ATOM     21  N   UNL     1       0.039  11.497  19.797  0.00  0.00    +0.000 N 
ATOM     22  C   UNL     1      -1.142  12.099  19.457  0.00  0.00    +0.000 C 
ATOM     23  O   UNL     1      -1.531  12.464  18.364  0.00  0.00    +0.000 OA
ATOM     24  C   UNL     1      -1.911  12.242  20.693  0.00  0.00    +0.000 A 
ATOM     25  C   UNL     1      -3.186  12.731  20.904  0.00  0.00    +0.000 A 
ATOM     26  C   UNL     1      -3.673  12.708  22.216  0.00  0.00    +0.000 A 
ATOM     27  C   UNL     1      -2.881  12.209  23.270  0.00  0.00    +0.000 A 
ATOM     28  C   UNL     1      -1.590  11.724  23.032  0.00  0.00    +0.000 A 
ATOM     29  C   UNL     1      -1.134  11.751  21.727  0.00  0.00    +0.000 A 
ATOM     30  C   UNL     1       0.131  11.295  21.148  0.00  0.00    +0.000 C 
ATOM     31  O   UNL     1       1.051  10.830  21.795  0.00  0.00    +0.000 OA
ENDBRANCH  20  21
ENDBRANCH  19  20
ENDBRANCH  18  19
ENDBRANCH  17  18
ENDBRANCH   1  17
TORSDOF 7
ENDMDL
