MODEL 1
REMARK VINA RESULT:      -8.0      0.000      0.000
REMARK  Name = 
REMARK  6 active torsions:
REMARK  status: ('A' for Active; 'I' for Inactive)
REMARK    1  A    between atoms: C_1  and  C_2
REMARK    2  A    between atoms: C_2  and  N_3
REMARK    3  A    between atoms: N_12  and  C_13
REMARK    4  A    between atoms: C_13  and  C_14
REMARK    5  A    between atoms: C_14  and  O_15
REMARK    6  A    between atoms: O_15  and  C_16
REMARK                            x       y       z     vdW  Elec       q    Type
REMARK                         _______ _______ _______ _____ _____    ______ ____
ROOT
ATOM      1  N   UNL     1       2.119   3.573  19.745  0.00  0.00    +0.000 N 
ATOM      2  C   UNL     1       3.567   3.709  19.722  0.00  0.00    +0.000 C 
ATOM      3  C   UNL     1       4.101   3.836  18.288  0.00  0.00    +0.000 C 
ATOM      4  C   UNL     1       3.658   2.559  17.549  0.00  0.00    +0.000 C 
ATOM      5  C   UNL     1       2.153   2.326  17.620  0.00  0.00    +0.000 C 
ATOM      6  C   UNL     1       1.488   2.628  18.955  0.00  0.00    +0.000 C 
ATOM      7  O   UNL     1       0.371   2.177  19.210  0.00  0.00    +0.000 OA
ATOM      8  C   UNL     1       3.540   5.109  17.610  0.00  0.00    +0.000 C 
ATOM      9  C   UNL     1       4.105   6.379  18.254  0.00  0.00    +0.000 C 
ATOM     10  N   UNL     1       5.573   6.435  18.220  0.00  0.00    +0.000 NA
ATOM     11  C   UNL     1       6.158   5.253  18.868  0.00  0.00    +0.000 C 
ATOM     12  C   UNL     1       5.645   3.922  18.303  0.00  0.00    +0.000 C 
ENDROOT
BRANCH   1  14
ATOM     13  C   UNL     1       1.560   5.858  20.584  0.00  0.00    +0.000 C 
ATOM     14  C   UNL     1       1.355   4.359  20.708  0.00  0.00    +0.000 C 
ENDBRANCH   1  14
BRANCH  10  15
ATOM     15  C   UNL     1       6.125   6.633  16.864  0.00  0.00    +0.000 C 
BRANCH  15  16
ATOM     16  C   UNL     1       7.106   5.528  16.463  0.00  0.00    +0.000 C 
BRANCH  16  17
ATOM     17  O   UNL     1       7.632   5.787  15.160  0.00  0.00    +0.000 OA
BRANCH  17  18
ATOM     18  C   UNL     1       7.104   5.010  14.163  0.00  0.00    +0.000 A 
ATOM     19  C   UNL     1       7.682   4.795  12.906  0.00  0.00    +0.000 A 
ATOM     20  C   UNL     1       7.052   3.972  11.975  0.00  0.00    +0.000 A 
ATOM     21  C   UNL     1       5.842   3.368  12.308  0.00  0.00    +0.000 A 
ATOM     22  F   UNL     1       5.243   2.572  11.414  0.00  0.00    +0.000 F 
ATOM     23  C   UNL     1       5.253   3.574  13.548  0.00  0.00    +0.000 A 
ATOM     24  C   UNL     1       5.886   4.399  14.478  0.00  0.00    +0.000 A 
ENDBRANCH  17  18
ENDBRANCH  16  17
ENDBRANCH  15  16
ENDBRANCH  10  15
TORSDOF 5
ENDMDL
MODEL 2
REMARK VINA RESULT:      -7.9      0.235      1.013
REMARK  Name = 
REMARK  6 active torsions:
REMARK  status: ('A' for Active; 'I' for Inactive)
REMARK    1  A    between atoms: C_1  and  C_2
REMARK    2  A    between atoms: C_2  and  N_3
REMARK    3  A    between atoms: N_12  and  C_13
REMARK    4  A    between atoms: C_13  and  C_14
REMARK    5  A    between atoms: C_14  and  O_15
REMARK    6  A    between atoms: O_15  and  C_16
REMARK                            x       y       z     vdW  Elec       q    Type
REMARK                         _______ _______ _______ _____ _____    ______ ____
ROOT
ATOM      1  N   UNL     1       2.048   3.705  19.523  0.00  0.00    +0.000 N 
ATOM      2  C   UNL     1       3.495   3.828  19.608  0.00  0.00    +0.000 C 
ATOM      3  C   UNL     1       4.132   3.984  18.219  0.00  0.00    +0.000 C 
ATOM      4  C   UNL     1       3.734   2.729  17.420  0.00  0.00    +0.000 C 
ATOM      5  C   UNL     1       2.227   2.508  17.377  0.00  0.00    +0.000 C 
ATOM      6  C   UNL     1       1.469   2.784  18.667  0.00  0.00    +0.000 C 
ATOM      7  O   UNL     1       0.333   2.338  18.830  0.00  0.00    +0.000 OA
ATOM      8  C   UNL     1       3.631   5.278  17.534  0.00  0.00    +0.000 C 
ATOM      9  C   UNL     1       4.157   6.527  18.248  0.00  0.00    +0.000 C 
ATOM     10  N   UNL     1       5.624   6.570  18.321  0.00  0.00    +0.000 NA
ATOM     11  C   UNL     1       6.152   5.368  18.981  0.00  0.00    +0.000 C 
ATOM     12  C   UNL     1       5.672   4.056  18.348  0.00  0.00    +0.000 C 
ENDROOT
BRANCH   1  14
ATOM     13  C   UNL     1       1.853   5.778  20.902  0.00  0.00    +0.000 C 
ATOM     14  C   UNL     1       1.223   4.475  20.447  0.00  0.00    +0.000 C 
ENDBRANCH   1  14
BRANCH  10  15
ATOM     15  C   UNL     1       6.274   6.795  17.013  0.00  0.00    +0.000 C 
BRANCH  15  16
ATOM     16  C   UNL     1       7.091   5.587  16.549  0.00  0.00    +0.000 C 
BRANCH  16  17
ATOM     17  O   UNL     1       7.518   5.772  15.198  0.00  0.00    +0.000 OA
BRANCH  17  18
ATOM     18  C   UNL     1       6.919   4.941  14.287  0.00  0.00    +0.000 A 
ATOM     19  C   UNL     1       5.696   4.283  14.467  0.00  0.00    +0.000 A 
ATOM     20  C   UNL     1       5.183   3.469  13.459  0.00  0.00    +0.000 A 
ATOM     21  C   UNL     1       5.899   3.318  12.275  0.00  0.00    +0.000 A 
ATOM     22  F   UNL     1       5.399   2.540  11.306  0.00  0.00    +0.000 F 
ATOM     23  C   UNL     1       7.115   3.959  12.083  0.00  0.00    +0.000 A 
ATOM     24  C   UNL     1       7.627   4.773  13.093  0.00  0.00    +0.000 A 
ENDBRANCH  17  18
ENDBRANCH  16  17
ENDBRANCH  15  16
ENDBRANCH  10  15
TORSDOF 5
ENDMDL
MODEL 3
REMARK VINA RESULT:      -7.8      4.341      6.071
REMARK  Name = 
REMARK  6 active torsions:
REMARK  status: ('A' for Active; 'I' for Inactive)
REMARK    1  A    between atoms: C_1  and  C_2
REMARK    2  A    between atoms: C_2  and  N_3
REMARK    3  A    between atoms: N_12  and  C_13
REMARK    4  A    between atoms: C_13  and  C_14
REMARK    5  A    between atoms: C_14  and  O_15
REMARK    6  A    between atoms: O_15  and  C_16
REMARK                            x       y       z     vdW  Elec       q    Type
REMARK                         _______ _______ _______ _____ _____    ______ ____
ROOT
ATOM      1  N   UNL     1       2.402   3.527  18.298  0.00  0.00    +0.000 N 
ATOM      2  C   UNL     1       2.962   4.636  17.543  0.00  0.00    +0.000 C 
ATOM      3  C   UNL     1       3.639   5.663  18.463  0.00  0.00    +0.000 C 
ATOM      4  C   UNL     1       2.551   6.156  19.433  0.00  0.00    +0.000 C 
ATOM      5  C   UNL     1       1.871   5.018  20.187  0.00  0.00    +0.000 C 
ATOM      6  C   UNL     1       1.574   3.761  19.383  0.00  0.00    +0.000 C 
ATOM      7  O   UNL     1       0.759   2.935  19.796  0.00  0.00    +0.000 OA
ATOM      8  C   UNL     1       4.826   5.017  19.218  0.00  0.00    +0.000 C 
ATOM      9  C   UNL     1       5.971   4.668  18.263  0.00  0.00    +0.000 C 
ATOM     10  N   UNL     1       6.468   5.830  17.513  0.00  0.00    +0.000 NA
ATOM     11  C   UNL     1       5.381   6.471  16.762  0.00  0.00    +0.000 C 
ATOM     12  C   UNL     1       4.173   6.852  17.628  0.00  0.00    +0.000 C 
ENDROOT
BRANCH   1  14
ATOM     13  C   UNL     1       3.611   1.371  18.649  0.00  0.00    +0.000 C 
ATOM     14  C   UNL     1       2.623   2.168  17.818  0.00  0.00    +0.000 C 
ENDBRANCH   1  14
BRANCH  10  15
ATOM     15  C   UNL     1       7.193   6.806  18.351  0.00  0.00    +0.000 C 
BRANCH  15  16
ATOM     16  C   UNL     1       7.969   7.830  17.519  0.00  0.00    +0.000 C 
BRANCH  16  17
ATOM     17  O   UNL     1       7.421   9.136  17.709  0.00  0.00    +0.000 OA
BRANCH  17  18
ATOM     18  C   UNL     1       8.318  10.079  18.137  0.00  0.00    +0.000 A 
ATOM     19  C   UNL     1       9.359   9.859  19.046  0.00  0.00    +0.000 A 
ATOM     20  C   UNL     1      10.217  10.900  19.397  0.00  0.00    +0.000 A 
ATOM     21  C   UNL     1      10.026  12.159  18.834  0.00  0.00    +0.000 A 
ATOM     22  F   UNL     1      10.856  13.155  19.168  0.00  0.00    +0.000 F 
ATOM     23  C   UNL     1       8.996  12.395  17.934  0.00  0.00    +0.000 A 
ATOM     24  C   UNL     1       8.139  11.352  17.585  0.00  0.00    +0.000 A 
ENDBRANCH  17  18
ENDBRANCH  16  17
ENDBRANCH  15  16
ENDBRANCH  10  15
TORSDOF 5
ENDMDL
MODEL 4
REMARK VINA RESULT:      -7.4      4.559      6.243
REMARK  Name = 
REMARK  6 active torsions:
REMARK  status: ('A' for Active; 'I' for Inactive)
REMARK    1  A    between atoms: C_1  and  C_2
REMARK    2  A    between atoms: C_2  and  N_3
REMARK    3  A    between atoms: N_12  and  C_13
REMARK    4  A    between atoms: C_13  and  C_14
REMARK    5  A    between atoms: C_14  and  O_15
REMARK    6  A    between atoms: O_15  and  C_16
REMARK                            x       y       z     vdW  Elec       q    Type
REMARK                         _______ _______ _______ _____ _____    ______ ____
ROOT
ATOM      1  N   UNL     1       3.145   3.667  17.962  0.00  0.00    +0.000 N 
ATOM      2  C   UNL     1       3.998   4.485  17.114  0.00  0.00    +0.000 C 
ATOM      3  C   UNL     1       4.396   5.796  17.807  0.00  0.00    +0.000 C 
ATOM      4  C   UNL     1       3.081   6.529  18.130  0.00  0.00    +0.000 C 
ATOM      5  C   UNL     1       2.114   5.678  18.946  0.00  0.00    +0.000 C 
ATOM      6  C   UNL     1       2.019   4.209  18.559  0.00  0.00    +0.000 C 
ATOM      7  O   UNL     1       1.060   3.529  18.925  0.00  0.00    +0.000 OA
ATOM      8  C   UNL     1       5.216   5.506  19.087  0.00  0.00    +0.000 C 
ATOM      9  C   UNL     1       6.588   4.916  18.749  0.00  0.00    +0.000 C 
ATOM     10  N   UNL     1       7.384   5.781  17.867  0.00  0.00    +0.000 NA
ATOM     11  C   UNL     1       6.655   6.074  16.625  0.00  0.00    +0.000 C 
ATOM     12  C   UNL     1       5.256   6.659  16.854  0.00  0.00    +0.000 C 
ENDROOT
BRANCH   1  14
ATOM     13  C   UNL     1       4.040   1.826  19.391  0.00  0.00    +0.000 C 
ATOM     14  C   UNL     1       3.422   2.239  18.069  0.00  0.00    +0.000 C 
ENDBRANCH   1  14
BRANCH  10  15
ATOM     15  C   UNL     1       7.851   7.021  18.521  0.00  0.00    +0.000 C 
BRANCH  15  16
ATOM     16  C   UNL     1       8.225   8.110  17.513  0.00  0.00    +0.000 C 
BRANCH  16  17
ATOM     17  O   UNL     1       7.613   9.349  17.878  0.00  0.00    +0.000 OA
BRANCH  17  18
ATOM     18  C   UNL     1       8.490  10.339  18.238  0.00  0.00    +0.000 A 
ATOM     19  C   UNL     1       8.609  11.587  17.615  0.00  0.00    +0.000 A 
ATOM     20  C   UNL     1       9.535  12.519  18.080  0.00  0.00    +0.000 A 
ATOM     21  C   UNL     1      10.340  12.194  19.169  0.00  0.00    +0.000 A 
ATOM     22  F   UNL     1      11.223  13.094  19.617  0.00  0.00    +0.000 F 
ATOM     23  C   UNL     1      10.238  10.959  19.795  0.00  0.00    +0.000 A 
ATOM     24  C   UNL     1       9.311  10.029  19.327  0.00  0.00    +0.000 A 
ENDBRANCH  17  18
ENDBRANCH  16  17
ENDBRANCH  15  16
ENDBRANCH  10  15
TORSDOF 5
ENDMDL
MODEL 5
REMARK VINA RESULT:      -7.3      4.225      8.304
REMARK  Name = 
REMARK  6 active torsions:
REMARK  status: ('A' for Active; 'I' for Inactive)
REMARK    1  A    between atoms: C_1  and  C_2
REMARK    2  A    between atoms: C_2  and  N_3
REMARK    3  A    between atoms: N_12  and  C_13
REMARK    4  A    between atoms: C_13  and  C_14
REMARK    5  A    between atoms: C_14  and  O_15
REMARK    6  A    between atoms: O_15  and  C_16
REMARK                            x       y       z     vdW  Elec       q    Type
REMARK                         _______ _______ _______ _____ _____    ______ ____
ROOT
ATOM      1  N   UNL     1       5.855   5.151  16.442  0.00  0.00    +0.000 N 
ATOM      2  C   UNL     1       5.250   4.229  17.390  0.00  0.00    +0.000 C 
ATOM      3  C   UNL     1       5.071   4.873  18.772  0.00  0.00    +0.000 C 
ATOM      4  C   UNL     1       6.478   5.292  19.237  0.00  0.00    +0.000 C 
ATOM      5  C   UNL     1       7.189   6.191  18.233  0.00  0.00    +0.000 C 
ATOM      6  C   UNL     1       7.017   5.830  16.765  0.00  0.00    +0.000 C 
ATOM      7  O   UNL     1       7.790   6.279  15.918  0.00  0.00    +0.000 OA
ATOM      8  C   UNL     1       4.115   6.087  18.686  0.00  0.00    +0.000 C 
ATOM      9  C   UNL     1       2.682   5.648  18.372  0.00  0.00    +0.000 C 
ATOM     10  N   UNL     1       2.145   4.696  19.354  0.00  0.00    +0.000 NA
ATOM     11  C   UNL     1       3.010   3.512  19.462  0.00  0.00    +0.000 C 
ATOM     12  C   UNL     1       4.477   3.846  19.764  0.00  0.00    +0.000 C 
ENDROOT
BRANCH   1  14
ATOM     13  C   UNL     1       5.737   4.150  14.158  0.00  0.00    +0.000 C 
ATOM     14  C   UNL     1       5.290   5.251  15.101  0.00  0.00    +0.000 C 
ENDBRANCH   1  14
BRANCH  10  15
ATOM     15  C   UNL     1       1.888   5.297  20.678  0.00  0.00    +0.000 C 
BRANCH  15  16
ATOM     16  C   UNL     1       0.985   6.530  20.597  0.00  0.00    +0.000 C 
BRANCH  16  17
ATOM     17  O   UNL     1       1.631   7.654  21.198  0.00  0.00    +0.000 OA
BRANCH  17  18
ATOM     18  C   UNL     1       0.861   8.785  21.277  0.00  0.00    +0.000 A 
ATOM     19  C   UNL     1       0.508   9.606  20.199  0.00  0.00    +0.000 A 
ATOM     20  C   UNL     1      -0.292  10.729  20.404  0.00  0.00    +0.000 A 
ATOM     21  C   UNL     1      -0.734  11.024  21.691  0.00  0.00    +0.000 A 
ATOM     22  F   UNL     1      -1.507  12.099  21.884  0.00  0.00    +0.000 F 
ATOM     23  C   UNL     1      -0.389  10.223  22.771  0.00  0.00    +0.000 A 
ATOM     24  C   UNL     1       0.412   9.101  22.563  0.00  0.00    +0.000 A 
ENDBRANCH  17  18
ENDBRANCH  16  17
ENDBRANCH  15  16
ENDBRANCH  10  15
TORSDOF 5
ENDMDL
MODEL 6
REMARK VINA RESULT:      -7.3      4.043      8.111
REMARK  Name = 
REMARK  6 active torsions:
REMARK  status: ('A' for Active; 'I' for Inactive)
REMARK    1  A    between atoms: C_1  and  C_2
REMARK    2  A    between atoms: C_2  and  N_3
REMARK    3  A    between atoms: N_12  and  C_13
REMARK    4  A    between atoms: C_13  and  C_14
REMARK    5  A    between atoms: C_14  and  O_15
REMARK    6  A    between atoms: O_15  and  C_16
REMARK                            x       y       z     vdW  Elec       q    Type
REMARK                         _______ _______ _______ _____ _____    ______ ____
ROOT
ATOM      1  N   UNL     1       5.890   5.017  16.385  0.00  0.00    +0.000 N 
ATOM      2  C   UNL     1       5.337   4.086  17.356  0.00  0.00    +0.000 C 
ATOM      3  C   UNL     1       5.142   4.749  18.728  0.00  0.00    +0.000 C 
ATOM      4  C   UNL     1       6.532   5.240  19.170  0.00  0.00    +0.000 C 
ATOM      5  C   UNL     1       7.193   6.152  18.142  0.00  0.00    +0.000 C 
ATOM      6  C   UNL     1       7.023   5.754  16.683  0.00  0.00    +0.000 C 
ATOM      7  O   UNL     1       7.767   6.221  15.820  0.00  0.00    +0.000 OA
ATOM      8  C   UNL     1       4.130   5.916  18.628  0.00  0.00    +0.000 C 
ATOM      9  C   UNL     1       2.716   5.406  18.338  0.00  0.00    +0.000 C 
ATOM     10  N   UNL     1       2.233   4.449  19.343  0.00  0.00    +0.000 NA
ATOM     11  C   UNL     1       3.152   3.309  19.465  0.00  0.00    +0.000 C 
ATOM     12  C   UNL     1       4.605   3.714  19.745  0.00  0.00    +0.000 C 
ENDROOT
BRANCH   1  14
ATOM     13  C   UNL     1       5.847   4.009  14.101  0.00  0.00    +0.000 C 
ATOM     14  C   UNL     1       5.309   5.065  15.048  0.00  0.00    +0.000 C 
ENDBRANCH   1  14
BRANCH  10  15
ATOM     15  C   UNL     1       1.960   5.063  20.658  0.00  0.00    +0.000 C 
BRANCH  15  16
ATOM     16  C   UNL     1       1.062   6.299  20.554  0.00  0.00    +0.000 C 
BRANCH  16  17
ATOM     17  O   UNL     1       1.810   7.477  20.857  0.00  0.00    +0.000 OA
BRANCH  17  18
ATOM     18  C   UNL     1       1.056   8.610  21.024  0.00  0.00    +0.000 A 
ATOM     19  C   UNL     1       0.454   9.018  22.220  0.00  0.00    +0.000 A 
ATOM     20  C   UNL     1      -0.283  10.200  22.267  0.00  0.00    +0.000 A 
ATOM     21  C   UNL     1      -0.415  10.967  21.113  0.00  0.00    +0.000 A 
ATOM     22  F   UNL     1      -1.118  12.105  21.164  0.00  0.00    +0.000 F 
ATOM     23  C   UNL     1       0.172  10.574  19.918  0.00  0.00    +0.000 A 
ATOM     24  C   UNL     1       0.908   9.391  19.873  0.00  0.00    +0.000 A 
ENDBRANCH  17  18
ENDBRANCH  16  17
ENDBRANCH  15  16
ENDBRANCH  10  15
TORSDOF 5
ENDMDL
MODEL 7
REMARK VINA RESULT:      -7.3      4.305      6.084
REMARK  Name = 
REMARK  6 active torsions:
REMARK  status: ('A' for Active; 'I' for Inactive)
REMARK    1  A    between atoms: C_1  and  C_2
REMARK    2  A    between atoms: C_2  and  N_3
REMARK    3  A    between atoms: N_12  and  C_13
REMARK    4  A    between atoms: C_13  and  C_14
REMARK    5  A    between atoms: C_14  and  O_15
REMARK    6  A    between atoms: O_15  and  C_16
REMARK                            x       y       z     vdW  Elec       q    Type
REMARK                         _______ _______ _______ _____ _____    ______ ____
ROOT
ATOM      1  N   UNL     1       2.315   3.795  18.367  0.00  0.00    +0.000 N 
ATOM      2  C   UNL     1       2.912   4.839  17.550  0.00  0.00    +0.000 C 
ATOM      3  C   UNL     1       3.729   5.824  18.398  0.00  0.00    +0.000 C 
ATOM      4  C   UNL     1       2.751   6.423  19.424  0.00  0.00    +0.000 C 
ATOM      5  C   UNL     1       2.032   5.361  20.248  0.00  0.00    +0.000 C 
ATOM      6  C   UNL     1       1.581   4.117  19.496  0.00  0.00    +0.000 C 
ATOM      7  O   UNL     1       0.732   3.370  19.981  0.00  0.00    +0.000 OA
ATOM      8  C   UNL     1       4.906   5.097  19.091  0.00  0.00    +0.000 C 
ATOM      9  C   UNL     1       5.954   4.635  18.073  0.00  0.00    +0.000 C 
ATOM     10  N   UNL     1       6.493   5.737  17.264  0.00  0.00    +0.000 NA
ATOM     11  C   UNL     1       5.414   6.452  16.569  0.00  0.00    +0.000 C 
ATOM     12  C   UNL     1       4.301   6.948  17.502  0.00  0.00    +0.000 C 
ENDROOT
BRANCH   1  14
ATOM     13  C   UNL     1       3.528   1.618  18.523  0.00  0.00    +0.000 C 
ATOM     14  C   UNL     1       2.392   2.412  17.907  0.00  0.00    +0.000 C 
ENDBRANCH   1  14
BRANCH  10  15
ATOM     15  C   UNL     1       7.349   6.667  18.029  0.00  0.00    +0.000 C 
BRANCH  15  16
ATOM     16  C   UNL     1       7.059   8.134  17.703  0.00  0.00    +0.000 C 
BRANCH  16  17
ATOM     17  O   UNL     1       8.251   8.784  17.260  0.00  0.00    +0.000 OA
BRANCH  17  18
ATOM     18  C   UNL     1       8.618   9.878  17.999  0.00  0.00    +0.000 A 
ATOM     19  C   UNL     1       8.558  11.209  17.569  0.00  0.00    +0.000 A 
ATOM     20  C   UNL     1       8.951  12.241  18.420  0.00  0.00    +0.000 A 
ATOM     21  C   UNL     1       9.403  11.933  19.700  0.00  0.00    +0.000 A 
ATOM     22  F   UNL     1       9.772  12.927  20.517  0.00  0.00    +0.000 F 
ATOM     23  C   UNL     1       9.472  10.618  20.141  0.00  0.00    +0.000 A 
ATOM     24  C   UNL     1       9.079   9.588  19.288  0.00  0.00    +0.000 A 
ENDBRANCH  17  18
ENDBRANCH  16  17
ENDBRANCH  15  16
ENDBRANCH  10  15
TORSDOF 5
ENDMDL
MODEL 8
REMARK VINA RESULT:      -7.3      4.992      8.001
REMARK  Name = 
REMARK  6 active torsions:
REMARK  status: ('A' for Active; 'I' for Inactive)
REMARK    1  A    between atoms: C_1  and  C_2
REMARK    2  A    between atoms: C_2  and  N_3
REMARK    3  A    between atoms: N_12  and  C_13
REMARK    4  A    between atoms: C_13  and  C_14
REMARK    5  A    between atoms: C_14  and  O_15
REMARK    6  A    between atoms: O_15  and  C_16
REMARK                            x       y       z     vdW  Elec       q    Type
REMARK                         _______ _______ _______ _____ _____    ______ ____
ROOT
ATOM      1  N   UNL     1       6.009   4.305  16.940  0.00  0.00    +0.000 N 
ATOM      2  C   UNL     1       4.847   4.288  17.814  0.00  0.00    +0.000 C 
ATOM      3  C   UNL     1       4.817   5.512  18.741  0.00  0.00    +0.000 C 
ATOM      4  C   UNL     1       6.120   5.462  19.561  0.00  0.00    +0.000 C 
ATOM      5  C   UNL     1       7.367   5.390  18.687  0.00  0.00    +0.000 C 
ATOM      6  C   UNL     1       7.278   4.493  17.460  0.00  0.00    +0.000 C 
ATOM      7  O   UNL     1       8.301   4.119  16.887  0.00  0.00    +0.000 OA
ATOM      8  C   UNL     1       4.714   6.816  17.915  0.00  0.00    +0.000 C 
ATOM      9  C   UNL     1       3.353   6.932  17.223  0.00  0.00    +0.000 C 
ATOM     10  N   UNL     1       2.224   6.879  18.163  0.00  0.00    +0.000 NA
ATOM     11  C   UNL     1       2.266   5.647  18.962  0.00  0.00    +0.000 C 
ATOM     12  C   UNL     1       3.599   5.429  19.690  0.00  0.00    +0.000 C 
ENDROOT
BRANCH   1  14
ATOM     13  C   UNL     1       5.540   5.201  14.657  0.00  0.00    +0.000 C 
ATOM     14  C   UNL     1       5.830   3.992  15.526  0.00  0.00    +0.000 C 
ENDBRANCH   1  14
BRANCH  10  15
ATOM     15  C   UNL     1       2.116   8.075  19.023  0.00  0.00    +0.000 C 
BRANCH  15  16
ATOM     16  C   UNL     1       1.418   9.242  18.319  0.00  0.00    +0.000 C 
BRANCH  16  17
ATOM     17  O   UNL     1       0.458   9.839  19.193  0.00  0.00    +0.000 OA
BRANCH  17  18
ATOM     18  C   UNL     1      -0.678  10.294  18.575  0.00  0.00    +0.000 A 
ATOM     19  C   UNL     1      -1.195   9.811  17.367  0.00  0.00    +0.000 A 
ATOM     20  C   UNL     1      -2.369  10.349  16.842  0.00  0.00    +0.000 A 
ATOM     21  C   UNL     1      -3.019  11.369  17.531  0.00  0.00    +0.000 A 
ATOM     22  F   UNL     1      -4.150  11.879  17.027  0.00  0.00    +0.000 F 
ATOM     23  C   UNL     1      -2.516  11.862  18.727  0.00  0.00    +0.000 A 
ATOM     24  C   UNL     1      -1.341  11.323  19.251  0.00  0.00    +0.000 A 
ENDBRANCH  17  18
ENDBRANCH  16  17
ENDBRANCH  15  16
ENDBRANCH  10  15
TORSDOF 5
ENDMDL
MODEL 9
REMARK VINA RESULT:      -7.2      3.606      7.507
REMARK  Name = 
REMARK  6 active torsions:
REMARK  status: ('A' for Active; 'I' for Inactive)
REMARK    1  A    between atoms: C_1  and  C_2
REMARK    2  A    between atoms: C_2  and  N_3
REMARK    3  A    between atoms: N_12  and  C_13
REMARK    4  A    between atoms: C_13  and  C_14
REMARK    5  A    between atoms: C_14  and  O_15
REMARK    6  A    between atoms: O_15  and  C_16
REMARK                            x       y       z     vdW  Elec       q    Type
REMARK                         _______ _______ _______ _____ _____    ______ ____
ROOT
ATOM      1  N   UNL     1       5.853   4.617  15.786  0.00  0.00    +0.000 N 
ATOM      2  C   UNL     1       5.356   3.751  16.843  0.00  0.00    +0.000 C 
ATOM      3  C   UNL     1       5.319   4.474  18.197  0.00  0.00    +0.000 C 
ATOM      4  C   UNL     1       6.764   4.919  18.487  0.00  0.00    +0.000 C 
ATOM      5  C   UNL     1       7.362   5.759  17.364  0.00  0.00    +0.000 C 
ATOM      6  C   UNL     1       7.039   5.313  15.945  0.00  0.00    +0.000 C 
ATOM      7  O   UNL     1       7.716   5.713  14.998  0.00  0.00    +0.000 OA
ATOM      8  C   UNL     1       4.352   5.681  18.142  0.00  0.00    +0.000 C 
ATOM      9  C   UNL     1       2.897   5.225  18.006  0.00  0.00    +0.000 C 
ATOM     10  N   UNL     1       2.472   4.331  19.092  0.00  0.00    +0.000 NA
ATOM     11  C   UNL     1       3.349   3.156  19.176  0.00  0.00    +0.000 C 
ATOM     12  C   UNL     1       4.838   3.505  19.303  0.00  0.00    +0.000 C 
ENDROOT
BRANCH   1  14
ATOM     13  C   UNL     1       5.733   3.705  13.464  0.00  0.00    +0.000 C 
ATOM     14  C   UNL     1       5.151   4.640  14.508  0.00  0.00    +0.000 C 
ENDBRANCH   1  14
BRANCH  10  15
ATOM     15  C   UNL     1       2.350   5.007  20.399  0.00  0.00    +0.000 C 
BRANCH  15  16
ATOM     16  C   UNL     1       1.236   6.057  20.415  0.00  0.00    +0.000 C 
BRANCH  16  17
ATOM     17  O   UNL     1       1.691   7.247  21.061  0.00  0.00    +0.000 OA
BRANCH  17  18
ATOM     18  C   UNL     1       1.267   8.414  20.479  0.00  0.00    +0.000 A 
ATOM     19  C   UNL     1       0.455   9.378  21.088  0.00  0.00    +0.000 A 
ATOM     20  C   UNL     1       0.098  10.534  20.396  0.00  0.00    +0.000 A 
ATOM     21  C   UNL     1       0.556  10.717  19.094  0.00  0.00    +0.000 A 
ATOM     22  F   UNL     1       0.217  11.831  18.434  0.00  0.00    +0.000 F 
ATOM     23  C   UNL     1       1.358   9.768  18.474  0.00  0.00    +0.000 A 
ATOM     24  C   UNL     1       1.713   8.612  19.169  0.00  0.00    +0.000 A 
ENDBRANCH  17  18
ENDBRANCH  16  17
ENDBRANCH  15  16
ENDBRANCH  10  15
TORSDOF 5
ENDMDL
