MODEL 1
REMARK VINA RESULT:      -7.5      0.000      0.000
REMARK  Name = 
REMARK  13 active torsions:
REMARK  status: ('A' for Active; 'I' for Inactive)
REMARK    1  A    between atoms: C_1  and  C_2
REMARK    2  A    between atoms: C_2  and  N_3
REMARK    3  A    between atoms: N_3  and  C_4
REMARK    4  A    between atoms: N_3  and  C_6
REMARK    5  A    between atoms: C_4  and  C_5
REMARK    6  A    between atoms: C_6  and  C_7
REMARK    7  A    between atoms: C_7  and  C_8
REMARK    8  A    between atoms: C_8  and  C_9
REMARK    9  A    between atoms: C_9  and  N_10
REMARK   10  A    between atoms: N_10  and  C_11
REMARK   11  A    between atoms: C_11  and  C_12
REMARK   12  A    between atoms: N_21  and  C_22
REMARK   13  A    between atoms: C_22  and  C_23
REMARK                            x       y       z     vdW  Elec       q    Type
REMARK                         _______ _______ _______ _____ _____    ______ ____
ROOT
ATOM      1  C   UNL     1       2.523   7.691  18.277  0.00  0.00    +0.000 A 
ATOM      2  C   UNL     1       2.040   7.761  19.583  0.00  0.00    +0.000 A 
ATOM      3  C   UNL     1       1.247   8.866  19.918  0.00  0.00    +0.000 A 
ATOM      4  C   UNL     1       0.602   9.291  21.120  0.00  0.00    +0.000 A 
ATOM      5  C   UNL     1       0.553   8.774  22.431  0.00  0.00    +0.000 A 
ATOM      6  C   UNL     1      -0.160   9.462  23.418  0.00  0.00    +0.000 A 
ATOM      7  C   UNL     1      -0.829  10.642  23.111  0.00  0.00    +0.000 A 
ATOM      8  C   UNL     1      -0.811  11.166  21.816  0.00  0.00    +0.000 A 
ATOM      9  C   UNL     1      -0.083  10.472  20.833  0.00  0.00    +0.000 A 
ATOM     10  N   UNL     1       0.123  10.745  19.493  0.00  0.00    +0.000 N 
ATOM     11  C   UNL     1       0.987   9.820  18.937  0.00  0.00    +0.000 A 
ATOM     12  C   UNL     1       1.554   9.734  17.671  0.00  0.00    +0.000 A 
ATOM     13  N   UNL     1       2.311   8.660  17.355  0.00  0.00    +0.000 NA
ENDROOT
BRANCH   1  14
ATOM     14  C   UNL     1       3.326   6.483  17.838  0.00  0.00    +0.000 C 
BRANCH  14  15
ATOM     15  N   UNL     1       4.735   6.810  17.567  0.00  0.00    +0.000 NA
ATOM     16  H   UNL     1       4.884   6.841  16.560  0.00  0.00    +0.000 HD
BRANCH  15  17
ATOM     17  C   UNL     1       5.609   5.819  18.185  0.00  0.00    +0.000 C 
BRANCH  17  18
ATOM     18  C   UNL     1       4.926   5.175  19.391  0.00  0.00    +0.000 C 
BRANCH  18  19
ATOM     19  C   UNL     1       5.023   3.650  19.288  0.00  0.00    +0.000 C 
BRANCH  19  20
ATOM     20  C   UNL     1       3.698   2.974  19.653  0.00  0.00    +0.000 C 
BRANCH  20  21
ATOM     21  N   UNL     1       2.603   3.916  19.958  0.00  0.00    +0.000 NA
BRANCH  21  23
ATOM     22  C   UNL     1       1.653   2.467  18.116  0.00  0.00    +0.000 C 
ATOM     23  C   UNL     1       1.501   3.701  19.001  0.00  0.00    +0.000 C 
ENDBRANCH  21  23
BRANCH  21  24
ATOM     24  C   UNL     1       2.177   3.908  21.367  0.00  0.00    +0.000 C 
ATOM     25  C   UNL     1       1.688   2.570  21.913  0.00  0.00    +0.000 C 
ENDBRANCH  21  24
ENDBRANCH  20  21
ENDBRANCH  19  20
ENDBRANCH  18  19
ENDBRANCH  17  18
ENDBRANCH  15  17
ENDBRANCH  14  15
ENDBRANCH   1  14
BRANCH  10  26
ATOM     26  C   UNL     1      -0.542  11.814  18.751  0.00  0.00    +0.000 C 
BRANCH  26  27
ATOM     27  C   UNL     1      -1.907  11.454  18.213  0.00  0.00    +0.000 A 
ATOM     28  C   UNL     1      -2.111  10.664  17.072  0.00  0.00    +0.000 A 
ATOM     29  C   UNL     1      -3.398  10.426  16.589  0.00  0.00    +0.000 A 
ATOM     30  C   UNL     1      -4.503  10.957  17.251  0.00  0.00    +0.000 A 
ATOM     31  C   UNL     1      -4.322  11.708  18.409  0.00  0.00    +0.000 A 
ATOM     32  C   UNL     1      -3.034  11.951  18.889  0.00  0.00    +0.000 A 
ENDBRANCH  26  27
ENDBRANCH  10  26
TORSDOF 11
ENDMDL
MODEL 2
REMARK VINA RESULT:      -7.4      1.482      3.010
REMARK  Name = 
REMARK  13 active torsions:
REMARK  status: ('A' for Active; 'I' for Inactive)
REMARK    1  A    between atoms: C_1  and  C_2
REMARK    2  A    between atoms: C_2  and  N_3
REMARK    3  A    between atoms: N_3  and  C_4
REMARK    4  A    between atoms: N_3  and  C_6
REMARK    5  A    between atoms: C_4  and  C_5
REMARK    6  A    between atoms: C_6  and  C_7
REMARK    7  A    between atoms: C_7  and  C_8
REMARK    8  A    between atoms: C_8  and  C_9
REMARK    9  A    between atoms: C_9  and  N_10
REMARK   10  A    between atoms: N_10  and  C_11
REMARK   11  A    between atoms: C_11  and  C_12
REMARK   12  A    between atoms: N_21  and  C_22
REMARK   13  A    between atoms: C_22  and  C_23
REMARK                            x       y       z     vdW  Elec       q    Type
REMARK                         _______ _______ _______ _____ _____    ______ ____
ROOT
ATOM      1  C   UNL     1       2.306   7.771  18.898  0.00  0.00    +0.000 A 
ATOM      2  C   UNL     1       1.687   8.021  20.123  0.00  0.00    +0.000 A 
ATOM      3  C   UNL     1       0.895   9.171  20.224  0.00  0.00    +0.000 A 
ATOM      4  C   UNL     1       0.137   9.759  21.282  0.00  0.00    +0.000 A 
ATOM      5  C   UNL     1      -0.067   9.421  22.635  0.00  0.00    +0.000 A 
ATOM      6  C   UNL     1      -0.861  10.243  23.441  0.00  0.00    +0.000 A 
ATOM      7  C   UNL     1      -1.459  11.382  22.913  0.00  0.00    +0.000 A 
ATOM      8  C   UNL     1      -1.287  11.730  21.570  0.00  0.00    +0.000 A 
ATOM      9  C   UNL     1      -0.479  10.903  20.771  0.00  0.00    +0.000 A 
ATOM     10  N   UNL     1      -0.122  10.993  19.438  0.00  0.00    +0.000 N 
ATOM     11  C   UNL     1       0.769   9.991  19.105  0.00  0.00    +0.000 A 
ATOM     12  C   UNL     1       1.467   9.731  17.930  0.00  0.00    +0.000 A 
ATOM     13  N   UNL     1       2.222   8.614  17.841  0.00  0.00    +0.000 NA
ENDROOT
BRANCH   1  14
ATOM     14  C   UNL     1       3.116   6.505  18.710  0.00  0.00    +0.000 C 
BRANCH  14  15
ATOM     15  N   UNL     1       3.318   5.772  19.970  0.00  0.00    +0.000 NA
ATOM     16  H   UNL     1       4.236   5.999  20.347  0.00  0.00    +0.000 HD
BRANCH  15  17
ATOM     17  C   UNL     1       3.198   4.336  19.741  0.00  0.00    +0.000 C 
BRANCH  17  18
ATOM     18  C   UNL     1       3.011   4.041  18.254  0.00  0.00    +0.000 C 
BRANCH  18  19
ATOM     19  C   UNL     1       4.224   3.274  17.720  0.00  0.00    +0.000 C 
BRANCH  19  20
ATOM     20  C   UNL     1       4.856   3.983  16.519  0.00  0.00    +0.000 C 
BRANCH  20  21
ATOM     21  N   UNL     1       6.220   4.493  16.767  0.00  0.00    +0.000 NA
BRANCH  21  23
ATOM     22  C   UNL     1       6.092   4.279  14.249  0.00  0.00    +0.000 C 
ATOM     23  C   UNL     1       6.931   4.612  15.479  0.00  0.00    +0.000 C 
ENDBRANCH  21  23
BRANCH  21  24
ATOM     24  C   UNL     1       6.266   5.715  17.586  0.00  0.00    +0.000 C 
ATOM     25  C   UNL     1       7.458   6.638  17.350  0.00  0.00    +0.000 C 
ENDBRANCH  21  24
ENDBRANCH  20  21
ENDBRANCH  19  20
ENDBRANCH  18  19
ENDBRANCH  17  18
ENDBRANCH  15  17
ENDBRANCH  14  15
ENDBRANCH   1  14
BRANCH  10  26
ATOM     26  C   UNL     1      -0.673  11.965  18.496  0.00  0.00    +0.000 C 
BRANCH  26  27
ATOM     27  C   UNL     1      -2.057  11.637  17.988  0.00  0.00    +0.000 A 
ATOM     28  C   UNL     1      -3.236  11.953  18.679  0.00  0.00    +0.000 A 
ATOM     29  C   UNL     1      -4.481  11.560  18.185  0.00  0.00    +0.000 A 
ATOM     30  C   UNL     1      -4.568  10.865  16.982  0.00  0.00    +0.000 A 
ATOM     31  C   UNL     1      -3.412  10.580  16.260  0.00  0.00    +0.000 A 
ATOM     32  C   UNL     1      -2.166  10.967  16.757  0.00  0.00    +0.000 A 
ENDBRANCH  26  27
ENDBRANCH  10  26
TORSDOF 11
ENDMDL
MODEL 3
REMARK VINA RESULT:      -7.4      0.495      1.007
REMARK  Name = 
REMARK  13 active torsions:
REMARK  status: ('A' for Active; 'I' for Inactive)
REMARK    1  A    between atoms: C_1  and  C_2
REMARK    2  A    between atoms: C_2  and  N_3
REMARK    3  A    between atoms: N_3  and  C_4
REMARK    4  A    between atoms: N_3  and  C_6
REMARK    5  A    between atoms: C_4  and  C_5
REMARK    6  A    between atoms: C_6  and  C_7
REMARK    7  A    between atoms: C_7  and  C_8
REMARK    8  A    between atoms: C_8  and  C_9
REMARK    9  A    between atoms: C_9  and  N_10
REMARK   10  A    between atoms: N_10  and  C_11
REMARK   11  A    between atoms: C_11  and  C_12
REMARK   12  A    between atoms: N_21  and  C_22
REMARK   13  A    between atoms: C_22  and  C_23
REMARK                            x       y       z     vdW  Elec       q    Type
REMARK                         _______ _______ _______ _____ _____    ______ ____
ROOT
ATOM      1  C   UNL     1       2.413   7.779  18.530  0.00  0.00    +0.000 A 
ATOM      2  C   UNL     1       1.869   7.918  19.806  0.00  0.00    +0.000 A 
ATOM      3  C   UNL     1       1.078   9.048  20.052  0.00  0.00    +0.000 A 
ATOM      4  C   UNL     1       0.384   9.537  21.200  0.00  0.00    +0.000 A 
ATOM      5  C   UNL     1       0.265   9.083  22.530  0.00  0.00    +0.000 A 
ATOM      6  C   UNL     1      -0.483   9.827  23.449  0.00  0.00    +0.000 A 
ATOM      7  C   UNL     1      -1.118  11.000  23.056  0.00  0.00    +0.000 A 
ATOM      8  C   UNL     1      -1.031  11.462  21.740  0.00  0.00    +0.000 A 
ATOM      9  C   UNL     1      -0.268  10.713  20.826  0.00  0.00    +0.000 A 
ATOM     10  N   UNL     1       0.006  10.919  19.486  0.00  0.00    +0.000 N 
ATOM     11  C   UNL     1       0.880   9.958  19.016  0.00  0.00    +0.000 A 
ATOM     12  C   UNL     1       1.506   9.805  17.783  0.00  0.00    +0.000 A 
ATOM     13  N   UNL     1       2.260   8.707  17.554  0.00  0.00    +0.000 NA
ENDROOT
BRANCH   1  14
ATOM     14  C   UNL     1       3.217   6.541  18.186  0.00  0.00    +0.000 C 
BRANCH  14  15
ATOM     15  N   UNL     1       4.422   6.851  17.402  0.00  0.00    +0.000 NA
ATOM     16  H   UNL     1       4.261   6.603  16.428  0.00  0.00    +0.000 HD
BRANCH  15  17
ATOM     17  C   UNL     1       5.569   6.124  17.935  0.00  0.00    +0.000 C 
BRANCH  17  18
ATOM     18  C   UNL     1       5.134   5.167  19.043  0.00  0.00    +0.000 C 
BRANCH  18  19
ATOM     19  C   UNL     1       5.076   3.736  18.501  0.00  0.00    +0.000 C 
BRANCH  19  20
ATOM     20  C   UNL     1       4.418   2.780  19.501  0.00  0.00    +0.000 C 
BRANCH  20  21
ATOM     21  N   UNL     1       3.050   3.168  19.898  0.00  0.00    +0.000 NA
BRANCH  21  23
ATOM     22  C   UNL     1       1.374   3.400  18.018  0.00  0.00    +0.000 C 
ATOM     23  C   UNL     1       2.081   2.489  19.017  0.00  0.00    +0.000 C 
ENDBRANCH  21  23
BRANCH  21  24
ATOM     24  C   UNL     1       2.769   2.999  21.333  0.00  0.00    +0.000 C 
ATOM     25  C   UNL     1       1.331   2.648  21.700  0.00  0.00    +0.000 C 
ENDBRANCH  21  24
ENDBRANCH  20  21
ENDBRANCH  19  20
ENDBRANCH  18  19
ENDBRANCH  17  18
ENDBRANCH  15  17
ENDBRANCH  14  15
ENDBRANCH   1  14
BRANCH  10  26
ATOM     26  C   UNL     1      -0.607  11.961  18.665  0.00  0.00    +0.000 C 
BRANCH  26  27
ATOM     27  C   UNL     1      -1.985  11.627  18.146  0.00  0.00    +0.000 A 
ATOM     28  C   UNL     1      -3.173  11.999  18.793  0.00  0.00    +0.000 A 
ATOM     29  C   UNL     1      -4.414  11.599  18.295  0.00  0.00    +0.000 A 
ATOM     30  C   UNL     1      -4.488  10.839  17.130  0.00  0.00    +0.000 A 
ATOM     31  C   UNL     1      -3.322  10.497  16.451  0.00  0.00    +0.000 A 
ATOM     32  C   UNL     1      -2.080  10.891  16.952  0.00  0.00    +0.000 A 
ENDBRANCH  26  27
ENDBRANCH  10  26
TORSDOF 11
ENDMDL
MODEL 4
REMARK VINA RESULT:      -7.4      1.605      8.541
REMARK  Name = 
REMARK  13 active torsions:
REMARK  status: ('A' for Active; 'I' for Inactive)
REMARK    1  A    between atoms: C_1  and  C_2
REMARK    2  A    between atoms: C_2  and  N_3
REMARK    3  A    between atoms: N_3  and  C_4
REMARK    4  A    between atoms: N_3  and  C_6
REMARK    5  A    between atoms: C_4  and  C_5
REMARK    6  A    between atoms: C_6  and  C_7
REMARK    7  A    between atoms: C_7  and  C_8
REMARK    8  A    between atoms: C_8  and  C_9
REMARK    9  A    between atoms: C_9  and  N_10
REMARK   10  A    between atoms: N_10  and  C_11
REMARK   11  A    between atoms: C_11  and  C_12
REMARK   12  A    between atoms: N_21  and  C_22
REMARK   13  A    between atoms: C_22  and  C_23
REMARK                            x       y       z     vdW  Elec       q    Type
REMARK                         _______ _______ _______ _____ _____    ______ ____
ROOT
ATOM      1  C   UNL     1       1.235   8.459  20.303  0.00  0.00    +0.000 A 
ATOM      2  C   UNL     1       1.313   7.198  20.892  0.00  0.00    +0.000 A 
ATOM      3  C   UNL     1       2.062   6.219  20.225  0.00  0.00    +0.000 A 
ATOM      4  C   UNL     1       2.354   4.847  20.492  0.00  0.00    +0.000 A 
ATOM      5  C   UNL     1       1.967   3.951  21.509  0.00  0.00    +0.000 A 
ATOM      6  C   UNL     1       2.410   2.625  21.467  0.00  0.00    +0.000 A 
ATOM      7  C   UNL     1       3.237   2.191  20.437  0.00  0.00    +0.000 A 
ATOM      8  C   UNL     1       3.649   3.062  19.426  0.00  0.00    +0.000 A 
ATOM      9  C   UNL     1       3.190   4.391  19.472  0.00  0.00    +0.000 A 
ATOM     10  N   UNL     1       3.415   5.460  18.624  0.00  0.00    +0.000 N 
ATOM     11  C   UNL     1       2.681   6.560  19.024  0.00  0.00    +0.000 A 
ATOM     12  C   UNL     1       2.510   7.814  18.448  0.00  0.00    +0.000 A 
ATOM     13  N   UNL     1       1.793   8.753  19.104  0.00  0.00    +0.000 NA
ENDROOT
BRANCH   1  14
ATOM     14  C   UNL     1       0.499   9.576  21.015  0.00  0.00    +0.000 C 
BRANCH  14  15
ATOM     15  N   UNL     1       0.813  10.902  20.460  0.00  0.00    +0.000 NA
ATOM     16  H   UNL     1       1.630  11.280  20.935  0.00  0.00    +0.000 HD
BRANCH  15  17
ATOM     17  C   UNL     1      -0.330  11.795  20.616  0.00  0.00    +0.000 C 
BRANCH  17  18
ATOM     18  C   UNL     1      -0.662  12.482  19.292  0.00  0.00    +0.000 C 
BRANCH  18  19
ATOM     19  C   UNL     1      -2.030  12.011  18.791  0.00  0.00    +0.000 C 
BRANCH  19  20
ATOM     20  C   UNL     1      -1.910  10.761  17.914  0.00  0.00    +0.000 C 
BRANCH  20  21
ATOM     21  N   UNL     1      -3.036  10.569  16.978  0.00  0.00    +0.000 NA
BRANCH  21  23
ATOM     22  C   UNL     1      -5.383  10.933  17.850  0.00  0.00    +0.000 C 
ATOM     23  C   UNL     1      -4.098  11.543  17.295  0.00  0.00    +0.000 C 
ENDBRANCH  21  23
BRANCH  21  24
ATOM     24  C   UNL     1      -2.644  10.558  15.559  0.00  0.00    +0.000 C 
ATOM     25  C   UNL     1      -3.710  10.093  14.571  0.00  0.00    +0.000 C 
ENDBRANCH  21  24
ENDBRANCH  20  21
ENDBRANCH  19  20
ENDBRANCH  18  19
ENDBRANCH  17  18
ENDBRANCH  15  17
ENDBRANCH  14  15
ENDBRANCH   1  14
BRANCH  10  26
ATOM     26  C   UNL     1       4.359   5.450  17.508  0.00  0.00    +0.000 C 
BRANCH  26  27
ATOM     27  C   UNL     1       5.702   6.072  17.812  0.00  0.00    +0.000 A 
ATOM     28  C   UNL     1       6.205   7.201  17.150  0.00  0.00    +0.000 A 
ATOM     29  C   UNL     1       7.485   7.683  17.432  0.00  0.00    +0.000 A 
ATOM     30  C   UNL     1       8.271   7.057  18.396  0.00  0.00    +0.000 A 
ATOM     31  C   UNL     1       7.771   5.960  19.093  0.00  0.00    +0.000 A 
ATOM     32  C   UNL     1       6.495   5.474  18.807  0.00  0.00    +0.000 A 
ENDBRANCH  26  27
ENDBRANCH  10  26
TORSDOF 11
ENDMDL
MODEL 5
REMARK VINA RESULT:      -7.4      0.731      1.586
REMARK  Name = 
REMARK  13 active torsions:
REMARK  status: ('A' for Active; 'I' for Inactive)
REMARK    1  A    between atoms: C_1  and  C_2
REMARK    2  A    between atoms: C_2  and  N_3
REMARK    3  A    between atoms: N_3  and  C_4
REMARK    4  A    between atoms: N_3  and  C_6
REMARK    5  A    between atoms: C_4  and  C_5
REMARK    6  A    between atoms: C_6  and  C_7
REMARK    7  A    between atoms: C_7  and  C_8
REMARK    8  A    between atoms: C_8  and  C_9
REMARK    9  A    between atoms: C_9  and  N_10
REMARK   10  A    between atoms: N_10  and  C_11
REMARK   11  A    between atoms: C_11  and  C_12
REMARK   12  A    between atoms: N_21  and  C_22
REMARK   13  A    between atoms: C_22  and  C_23
REMARK                            x       y       z     vdW  Elec       q    Type
REMARK                         _______ _______ _______ _____ _____    ______ ____
ROOT
ATOM      1  C   UNL     1       2.421   7.720  18.366  0.00  0.00    +0.000 A 
ATOM      2  C   UNL     1       1.914   7.819  19.661  0.00  0.00    +0.000 A 
ATOM      3  C   UNL     1       1.146   8.950  19.969  0.00  0.00    +0.000 A 
ATOM      4  C   UNL     1       0.491   9.406  21.154  0.00  0.00    +0.000 A 
ATOM      5  C   UNL     1       0.402   8.906  22.469  0.00  0.00    +0.000 A 
ATOM      6  C   UNL     1      -0.309   9.625  23.434  0.00  0.00    +0.000 A 
ATOM      7  C   UNL     1      -0.939  10.820  23.102  0.00  0.00    +0.000 A 
ATOM      8  C   UNL     1      -0.882  11.328  21.801  0.00  0.00    +0.000 A 
ATOM      9  C   UNL     1      -0.155  10.602  20.840  0.00  0.00    +0.000 A 
ATOM     10  N   UNL     1       0.085  10.854  19.501  0.00  0.00    +0.000 N 
ATOM     11  C   UNL     1       0.932   9.899  18.972  0.00  0.00    +0.000 A 
ATOM     12  C   UNL     1       1.521   9.783  17.718  0.00  0.00    +0.000 A 
ATOM     13  N   UNL     1       2.254   8.684  17.429  0.00  0.00    +0.000 NA
ENDROOT
BRANCH   1  14
ATOM     14  C   UNL     1       3.198   6.485  17.956  0.00  0.00    +0.000 C 
BRANCH  14  15
ATOM     15  N   UNL     1       4.642   6.619  18.204  0.00  0.00    +0.000 NA
ATOM     16  H   UNL     1       5.002   7.407  17.670  0.00  0.00    +0.000 HD
BRANCH  15  17
ATOM     17  C   UNL     1       5.332   5.388  17.833  0.00  0.00    +0.000 C 
BRANCH  17  18
ATOM     18  C   UNL     1       4.460   4.538  16.910  0.00  0.00    +0.000 C 
BRANCH  18  19
ATOM     19  C   UNL     1       4.379   3.106  17.447  0.00  0.00    +0.000 C 
BRANCH  19  20
ATOM     20  C   UNL     1       4.392   3.075  18.978  0.00  0.00    +0.000 C 
BRANCH  20  21
ATOM     21  N   UNL     1       3.119   2.637  19.584  0.00  0.00    +0.000 NA
BRANCH  21  23
ATOM     22  C   UNL     1       2.143   3.465  21.766  0.00  0.00    +0.000 C 
ATOM     23  C   UNL     1       2.520   3.768  20.319  0.00  0.00    +0.000 C 
ENDBRANCH  21  23
BRANCH  21  24
ATOM     24  C   UNL     1       2.195   1.985  18.641  0.00  0.00    +0.000 C 
ATOM     25  C   UNL     1       0.732   2.405  18.734  0.00  0.00    +0.000 C 
ENDBRANCH  21  24
ENDBRANCH  20  21
ENDBRANCH  19  20
ENDBRANCH  18  19
ENDBRANCH  17  18
ENDBRANCH  15  17
ENDBRANCH  14  15
ENDBRANCH   1  14
BRANCH  10  26
ATOM     26  C   UNL     1      -0.536  11.932  18.735  0.00  0.00    +0.000 C 
BRANCH  26  27
ATOM     27  C   UNL     1      -1.947  11.650  18.277  0.00  0.00    +0.000 A 
ATOM     28  C   UNL     1      -3.091  12.057  18.979  0.00  0.00    +0.000 A 
ATOM     29  C   UNL     1      -4.366  11.703  18.535  0.00  0.00    +0.000 A 
ATOM     30  C   UNL     1      -4.518  10.956  17.369  0.00  0.00    +0.000 A 
ATOM     31  C   UNL     1      -3.396  10.581  16.635  0.00  0.00    +0.000 A 
ATOM     32  C   UNL     1      -2.121  10.928  17.083  0.00  0.00    +0.000 A 
ENDBRANCH  26  27
ENDBRANCH  10  26
TORSDOF 11
ENDMDL
MODEL 6
REMARK VINA RESULT:      -7.3      1.671      8.451
REMARK  Name = 
REMARK  13 active torsions:
REMARK  status: ('A' for Active; 'I' for Inactive)
REMARK    1  A    between atoms: C_1  and  C_2
REMARK    2  A    between atoms: C_2  and  N_3
REMARK    3  A    between atoms: N_3  and  C_4
REMARK    4  A    between atoms: N_3  and  C_6
REMARK    5  A    between atoms: C_4  and  C_5
REMARK    6  A    between atoms: C_6  and  C_7
REMARK    7  A    between atoms: C_7  and  C_8
REMARK    8  A    between atoms: C_8  and  C_9
REMARK    9  A    between atoms: C_9  and  N_10
REMARK   10  A    between atoms: N_10  and  C_11
REMARK   11  A    between atoms: C_11  and  C_12
REMARK   12  A    between atoms: N_21  and  C_22
REMARK   13  A    between atoms: C_22  and  C_23
REMARK                            x       y       z     vdW  Elec       q    Type
REMARK                         _______ _______ _______ _____ _____    ______ ____
ROOT
ATOM      1  C   UNL     1       1.382   8.215  20.538  0.00  0.00    +0.000 A 
ATOM      2  C   UNL     1       1.229   6.855  20.803  0.00  0.00    +0.000 A 
ATOM      3  C   UNL     1       1.870   5.953  19.943  0.00  0.00    +0.000 A 
ATOM      4  C   UNL     1       1.934   4.528  19.877  0.00  0.00    +0.000 A 
ATOM      5  C   UNL     1       1.346   3.492  20.632  0.00  0.00    +0.000 A 
ATOM      6  C   UNL     1       1.589   2.160  20.282  0.00  0.00    +0.000 A 
ATOM      7  C   UNL     1       2.414   1.852  19.206  0.00  0.00    +0.000 A 
ATOM      8  C   UNL     1       3.024   2.859  18.453  0.00  0.00    +0.000 A 
ATOM      9  C   UNL     1       2.766   4.196  18.806  0.00  0.00    +0.000 A 
ATOM     10  N   UNL     1       3.208   5.384  18.253  0.00  0.00    +0.000 N 
ATOM     11  C   UNL     1       2.618   6.462  18.885  0.00  0.00    +0.000 A 
ATOM     12  C   UNL     1       2.678   7.827  18.626  0.00  0.00    +0.000 A 
ATOM     13  N   UNL     1       2.063   8.689  19.467  0.00  0.00    +0.000 NA
ENDROOT
BRANCH   1  14
ATOM     14  C   UNL     1       0.772   9.237  21.476  0.00  0.00    +0.000 C 
BRANCH  14  15
ATOM     15  N   UNL     1      -0.429   9.873  20.913  0.00  0.00    +0.000 NA
ATOM     16  H   UNL     1      -0.741   9.343  20.102  0.00  0.00    +0.000 HD
BRANCH  15  17
ATOM     17  C   UNL     1      -0.139  11.255  20.544  0.00  0.00    +0.000 C 
BRANCH  17  18
ATOM     18  C   UNL     1      -0.956  11.669  19.321  0.00  0.00    +0.000 C 
BRANCH  18  19
ATOM     19  C   UNL     1      -0.905  10.563  18.263  0.00  0.00    +0.000 C 
BRANCH  19  20
ATOM     20  C   UNL     1      -2.266   9.881  18.093  0.00  0.00    +0.000 C 
BRANCH  20  21
ATOM     21  N   UNL     1      -3.170  10.564  17.146  0.00  0.00    +0.000 NA
BRANCH  21  23
ATOM     22  C   UNL     1      -2.984  10.279  14.640  0.00  0.00    +0.000 C 
ATOM     23  C   UNL     1      -3.401   9.687  15.983  0.00  0.00    +0.000 C 
ENDBRANCH  21  23
BRANCH  21  24
ATOM     24  C   UNL     1      -4.406  11.079  17.758  0.00  0.00    +0.000 C 
ATOM     25  C   UNL     1      -5.209  12.069  16.920  0.00  0.00    +0.000 C 
ENDBRANCH  21  24
ENDBRANCH  20  21
ENDBRANCH  19  20
ENDBRANCH  18  19
ENDBRANCH  17  18
ENDBRANCH  15  17
ENDBRANCH  14  15
ENDBRANCH   1  14
BRANCH  10  26
ATOM     26  C   UNL     1       4.217   5.485  17.202  0.00  0.00    +0.000 C 
BRANCH  26  27
ATOM     27  C   UNL     1       5.588   5.903  17.680  0.00  0.00    +0.000 A 
ATOM     28  C   UNL     1       6.292   5.244  18.699  0.00  0.00    +0.000 A 
ATOM     29  C   UNL     1       7.526   5.724  19.140  0.00  0.00    +0.000 A 
ATOM     30  C   UNL     1       8.086   6.857  18.555  0.00  0.00    +0.000 A 
ATOM     31  C   UNL     1       7.422   7.498  17.513  0.00  0.00    +0.000 A 
ATOM     32  C   UNL     1       6.184   7.023  17.076  0.00  0.00    +0.000 A 
ENDBRANCH  26  27
ENDBRANCH  10  26
TORSDOF 11
ENDMDL
MODEL 7
REMARK VINA RESULT:      -7.3      2.169      4.119
REMARK  Name = 
REMARK  13 active torsions:
REMARK  status: ('A' for Active; 'I' for Inactive)
REMARK    1  A    between atoms: C_1  and  C_2
REMARK    2  A    between atoms: C_2  and  N_3
REMARK    3  A    between atoms: N_3  and  C_4
REMARK    4  A    between atoms: N_3  and  C_6
REMARK    5  A    between atoms: C_4  and  C_5
REMARK    6  A    between atoms: C_6  and  C_7
REMARK    7  A    between atoms: C_7  and  C_8
REMARK    8  A    between atoms: C_8  and  C_9
REMARK    9  A    between atoms: C_9  and  N_10
REMARK   10  A    between atoms: N_10  and  C_11
REMARK   11  A    between atoms: C_11  and  C_12
REMARK   12  A    between atoms: N_21  and  C_22
REMARK   13  A    between atoms: C_22  and  C_23
REMARK                            x       y       z     vdW  Elec       q    Type
REMARK                         _______ _______ _______ _____ _____    ______ ____
ROOT
ATOM      1  C   UNL     1       2.337   7.775  18.446  0.00  0.00    +0.000 A 
ATOM      2  C   UNL     1       1.723   7.932  19.688  0.00  0.00    +0.000 A 
ATOM      3  C   UNL     1       1.084   9.152  19.943  0.00  0.00    +0.000 A 
ATOM      4  C   UNL     1       0.381   9.683  21.068  0.00  0.00    +0.000 A 
ATOM      5  C   UNL     1       0.097   9.189  22.357  0.00  0.00    +0.000 A 
ATOM      6  C   UNL     1      -0.605   9.990  23.264  0.00  0.00    +0.000 A 
ATOM      7  C   UNL     1      -1.035  11.260  22.896  0.00  0.00    +0.000 A 
ATOM      8  C   UNL     1      -0.784  11.766  21.618  0.00  0.00    +0.000 A 
ATOM      9  C   UNL     1      -0.068  10.957  20.718  0.00  0.00    +0.000 A 
ATOM     10  N   UNL     1       0.334  11.184  19.414  0.00  0.00    +0.000 N 
ATOM     11  C   UNL     1       1.097  10.129  18.950  0.00  0.00    +0.000 A 
ATOM     12  C   UNL     1       1.786   9.944  17.757  0.00  0.00    +0.000 A 
ATOM     13  N   UNL     1       2.392   8.760  17.518  0.00  0.00    +0.000 NA
ENDROOT
BRANCH   1  14
ATOM     14  C   UNL     1       2.981   6.451  18.088  0.00  0.00    +0.000 C 
BRANCH  14  15
ATOM     15  N   UNL     1       3.920   5.983  19.120  0.00  0.00    +0.000 NA
ATOM     16  H   UNL     1       4.864   6.270  18.870  0.00  0.00    +0.000 HD
BRANCH  15  17
ATOM     17  C   UNL     1       3.840   4.532  19.251  0.00  0.00    +0.000 C 
BRANCH  17  18
ATOM     18  C   UNL     1       5.232   3.907  19.175  0.00  0.00    +0.000 C 
BRANCH  18  19
ATOM     19  C   UNL     1       6.287   5.005  19.015  0.00  0.00    +0.000 C 
BRANCH  19  20
ATOM     20  C   UNL     1       7.285   4.671  17.902  0.00  0.00    +0.000 C 
BRANCH  20  21
ATOM     21  N   UNL     1       7.420   5.723  16.875  0.00  0.00    +0.000 NA
BRANCH  21  23
ATOM     22  C   UNL     1       5.438   4.920  15.524  0.00  0.00    +0.000 C 
ATOM     23  C   UNL     1       6.937   5.200  15.583  0.00  0.00    +0.000 C 
ENDBRANCH  21  23
BRANCH  21  24
ATOM     24  C   UNL     1       6.824   7.015  17.254  0.00  0.00    +0.000 C 
ATOM     25  C   UNL     1       7.804   8.131  17.602  0.00  0.00    +0.000 C 
ENDBRANCH  21  24
ENDBRANCH  20  21
ENDBRANCH  19  20
ENDBRANCH  18  19
ENDBRANCH  17  18
ENDBRANCH  15  17
ENDBRANCH  14  15
ENDBRANCH   1  14
BRANCH  10  26
ATOM     26  C   UNL     1      -0.060  12.341  18.613  0.00  0.00    +0.000 C 
BRANCH  26  27
ATOM     27  C   UNL     1       0.881  13.520  18.701  0.00  0.00    +0.000 A 
ATOM     28  C   UNL     1       2.146  13.554  18.097  0.00  0.00    +0.000 A 
ATOM     29  C   UNL     1       2.994  14.648  18.275  0.00  0.00    +0.000 A 
ATOM     30  C   UNL     1       2.580  15.735  19.041  0.00  0.00    +0.000 A 
ATOM     31  C   UNL     1       1.311  15.738  19.613  0.00  0.00    +0.000 A 
ATOM     32  C   UNL     1       0.466  14.641  19.441  0.00  0.00    +0.000 A 
ENDBRANCH  26  27
ENDBRANCH  10  26
TORSDOF 11
ENDMDL
MODEL 8
REMARK VINA RESULT:      -7.2      2.360      4.414
REMARK  Name = 
REMARK  13 active torsions:
REMARK  status: ('A' for Active; 'I' for Inactive)
REMARK    1  A    between atoms: C_1  and  C_2
REMARK    2  A    between atoms: C_2  and  N_3
REMARK    3  A    between atoms: N_3  and  C_4
REMARK    4  A    between atoms: N_3  and  C_6
REMARK    5  A    between atoms: C_4  and  C_5
REMARK    6  A    between atoms: C_6  and  C_7
REMARK    7  A    between atoms: C_7  and  C_8
REMARK    8  A    between atoms: C_8  and  C_9
REMARK    9  A    between atoms: C_9  and  N_10
REMARK   10  A    between atoms: N_10  and  C_11
REMARK   11  A    between atoms: C_11  and  C_12
REMARK   12  A    between atoms: N_21  and  C_22
REMARK   13  A    between atoms: C_22  and  C_23
REMARK                            x       y       z     vdW  Elec       q    Type
REMARK                         _______ _______ _______ _____ _____    ______ ____
ROOT
ATOM      1  C   UNL     1       2.272   6.951  19.673  0.00  0.00    +0.000 A 
ATOM      2  C   UNL     1       1.533   7.443  20.749  0.00  0.00    +0.000 A 
ATOM      3  C   UNL     1       0.968   8.718  20.615  0.00  0.00    +0.000 A 
ATOM      4  C   UNL     1       0.185   9.546  21.476  0.00  0.00    +0.000 A 
ATOM      5  C   UNL     1      -0.284   9.405  22.798  0.00  0.00    +0.000 A 
ATOM      6  C   UNL     1      -1.019  10.440  23.384  0.00  0.00    +0.000 A 
ATOM      7  C   UNL     1      -1.301  11.598  22.667  0.00  0.00    +0.000 A 
ATOM      8  C   UNL     1      -0.865  11.755  21.350  0.00  0.00    +0.000 A 
ATOM      9  C   UNL     1      -0.117  10.713  20.773  0.00  0.00    +0.000 A 
ATOM     10  N   UNL     1       0.449  10.588  19.517  0.00  0.00    +0.000 N 
ATOM     11  C   UNL     1       1.173   9.414  19.426  0.00  0.00    +0.000 A 
ATOM     12  C   UNL     1       1.979   8.904  18.414  0.00  0.00    +0.000 A 
ATOM     13  N   UNL     1       2.512   7.669  18.550  0.00  0.00    +0.000 NA
ENDROOT
BRANCH   1  14
ATOM     14  C   UNL     1       2.845   5.550  19.733  0.00  0.00    +0.000 C 
BRANCH  14  15
ATOM     15  N   UNL     1       4.311   5.544  19.854  0.00  0.00    +0.000 NA
ATOM     16  H   UNL     1       4.684   6.401  19.451  0.00  0.00    +0.000 HD
BRANCH  15  17
ATOM     17  C   UNL     1       4.866   4.374  19.182  0.00  0.00    +0.000 C 
BRANCH  17  18
ATOM     18  C   UNL     1       4.093   4.071  17.900  0.00  0.00    +0.000 C 
BRANCH  18  19
ATOM     19  C   UNL     1       5.071   3.874  16.738  0.00  0.00    +0.000 C 
BRANCH  19  20
ATOM     20  C   UNL     1       5.080   5.082  15.796  0.00  0.00    +0.000 C 
BRANCH  20  21
ATOM     21  N   UNL     1       6.431   5.571  15.452  0.00  0.00    +0.000 NA
BRANCH  21  23
ATOM     22  C   UNL     1       7.046   7.107  17.365  0.00  0.00    +0.000 C 
ATOM     23  C   UNL     1       7.210   5.747  16.693  0.00  0.00    +0.000 C 
ENDBRANCH  21  23
BRANCH  21  24
ATOM     24  C   UNL     1       7.118   4.768  14.428  0.00  0.00    +0.000 C 
ATOM     25  C   UNL     1       6.221   3.972  13.485  0.00  0.00    +0.000 C 
ENDBRANCH  21  24
ENDBRANCH  20  21
ENDBRANCH  19  20
ENDBRANCH  18  19
ENDBRANCH  17  18
ENDBRANCH  15  17
ENDBRANCH  14  15
ENDBRANCH   1  14
BRANCH  10  26
ATOM     26  C   UNL     1       0.244  11.526  18.416  0.00  0.00    +0.000 C 
BRANCH  26  27
ATOM     27  C   UNL     1       1.038  12.807  18.522  0.00  0.00    +0.000 A 
ATOM     28  C   UNL     1       0.470  14.053  18.822  0.00  0.00    +0.000 A 
ATOM     29  C   UNL     1       1.251  15.210  18.837  0.00  0.00    +0.000 A 
ATOM     30  C   UNL     1       2.617  15.135  18.573  0.00  0.00    +0.000 A 
ATOM     31  C   UNL     1       3.206  13.900  18.315  0.00  0.00    +0.000 A 
ATOM     32  C   UNL     1       2.424  12.744  18.294  0.00  0.00    +0.000 A 
ENDBRANCH  26  27
ENDBRANCH  10  26
TORSDOF 11
ENDMDL
MODEL 9
REMARK VINA RESULT:      -7.1      2.061      8.640
REMARK  Name = 
REMARK  13 active torsions:
REMARK  status: ('A' for Active; 'I' for Inactive)
REMARK    1  A    between atoms: C_1  and  C_2
REMARK    2  A    between atoms: C_2  and  N_3
REMARK    3  A    between atoms: N_3  and  C_4
REMARK    4  A    between atoms: N_3  and  C_6
REMARK    5  A    between atoms: C_4  and  C_5
REMARK    6  A    between atoms: C_6  and  C_7
REMARK    7  A    between atoms: C_7  and  C_8
REMARK    8  A    between atoms: C_8  and  C_9
REMARK    9  A    between atoms: C_9  and  N_10
REMARK   10  A    between atoms: N_10  and  C_11
REMARK   11  A    between atoms: C_11  and  C_12
REMARK   12  A    between atoms: N_21  and  C_22
REMARK   13  A    between atoms: C_22  and  C_23
REMARK                            x       y       z     vdW  Elec       q    Type
REMARK                         _______ _______ _______ _____ _____    ______ ____
ROOT
ATOM      1  C   UNL     1       2.283   8.444  18.104  0.00  0.00    +0.000 A 
ATOM      2  C   UNL     1       1.783   7.454  18.949  0.00  0.00    +0.000 A 
ATOM      3  C   UNL     1       2.528   6.275  19.074  0.00  0.00    +0.000 A 
ATOM      4  C   UNL     1       2.342   5.062  19.805  0.00  0.00    +0.000 A 
ATOM      5  C   UNL     1       1.319   4.583  20.649  0.00  0.00    +0.000 A 
ATOM      6  C   UNL     1       1.423   3.302  21.201  0.00  0.00    +0.000 A 
ATOM      7  C   UNL     1       2.533   2.507  20.935  0.00  0.00    +0.000 A 
ATOM      8  C   UNL     1       3.569   2.965  20.117  0.00  0.00    +0.000 A 
ATOM      9  C   UNL     1       3.450   4.250  19.558  0.00  0.00    +0.000 A 
ATOM     10  N   UNL     1       4.291   4.958  18.719  0.00  0.00    +0.000 N 
ATOM     11  C   UNL     1       3.716   6.160  18.356  0.00  0.00    +0.000 A 
ATOM     12  C   UNL     1       4.130   7.151  17.472  0.00  0.00    +0.000 A 
ATOM     13  N   UNL     1       3.408   8.288  17.366  0.00  0.00    +0.000 NA
ENDROOT
BRANCH   1  14
ATOM     14  C   UNL     1       1.556   9.768  17.986  0.00  0.00    +0.000 C 
BRANCH  14  15
ATOM     15  N   UNL     1       1.415  10.452  19.281  0.00  0.00    +0.000 NA
ATOM     16  H   UNL     1       1.416   9.760  20.027  0.00  0.00    +0.000 HD
BRANCH  15  17
ATOM     17  C   UNL     1       0.183  11.233  19.305  0.00  0.00    +0.000 C 
BRANCH  17  18
ATOM     18  C   UNL     1      -0.923  10.520  18.529  0.00  0.00    +0.000 C 
BRANCH  18  19
ATOM     19  C   UNL     1      -2.229  11.311  18.642  0.00  0.00    +0.000 C 
BRANCH  19  20
ATOM     20  C   UNL     1      -3.362  10.647  17.853  0.00  0.00    +0.000 C 
BRANCH  20  21
ATOM     21  N   UNL     1      -4.008  11.531  16.862  0.00  0.00    +0.000 NA
BRANCH  21  23
ATOM     22  C   UNL     1      -2.923   9.734  15.451  0.00  0.00    +0.000 C 
ATOM     23  C   UNL     1      -3.661  11.069  15.505  0.00  0.00    +0.000 C 
ENDBRANCH  21  23
BRANCH  21  24
ATOM     24  C   UNL     1      -5.452  11.721  17.075  0.00  0.00    +0.000 C 
ATOM     25  C   UNL     1      -6.043  11.044  18.308  0.00  0.00    +0.000 C 
ENDBRANCH  21  24
ENDBRANCH  20  21
ENDBRANCH  19  20
ENDBRANCH  18  19
ENDBRANCH  17  18
ENDBRANCH  15  17
ENDBRANCH  14  15
ENDBRANCH   1  14
BRANCH  10  26
ATOM     26  C   UNL     1       5.634   4.528  18.334  0.00  0.00    +0.000 C 
BRANCH  26  27
ATOM     27  C   UNL     1       5.888   4.504  16.845  0.00  0.00    +0.000 A 
ATOM     28  C   UNL     1       5.008   3.934  15.914  0.00  0.00    +0.000 A 
ATOM     29  C   UNL     1       5.335   3.885  14.558  0.00  0.00    +0.000 A 
ATOM     30  C   UNL     1       6.538   4.425  14.110  0.00  0.00    +0.000 A 
ATOM     31  C   UNL     1       7.405   5.033  15.014  0.00  0.00    +0.000 A 
ATOM     32  C   UNL     1       7.080   5.077  16.371  0.00  0.00    +0.000 A 
ENDBRANCH  26  27
ENDBRANCH  10  26
TORSDOF 11
ENDMDL
