MODEL 1
REMARK VINA RESULT:      -7.5      0.000      0.000
REMARK  Name = 
REMARK  13 active torsions:
REMARK  status: ('A' for Active; 'I' for Inactive)
REMARK    1  A    between atoms: C_1  and  C_2
REMARK    2  A    between atoms: C_2  and  C_3
REMARK    3  A    between atoms: C_3  and  C_4
REMARK    4  A    between atoms: C_4  and  C_5
REMARK    5  A    between atoms: C_5  and  C_6
REMARK    6  A    between atoms: N_8  and  C_9
REMARK    7  A    between atoms: C_9  and  C_10
REMARK    8  A    between atoms: C_12  and  O_13
REMARK    9  A    between atoms: O_13  and  C_14
REMARK   10  A    between atoms: C_14  and  C_15
REMARK   11  A    between atoms: C_15  and  C_16
REMARK   12  A    between atoms: C_16  and  C_17
REMARK   13  A    between atoms: C_16  and  C_18
REMARK                            x       y       z     vdW  Elec       q    Type
REMARK                         _______ _______ _______ _____ _____    ______ ____
ROOT
ATOM      1  C   UNL     1       5.316   5.003  18.143  0.00  0.00    +0.000 C 
ATOM      2  O   UNL     1       4.549   5.577  17.083  0.00  0.00    +0.000 OA
ATOM      3  C   UNL     1       3.326   6.193  17.447  0.00  0.00    +0.000 C 
ATOM      4  C   UNL     1       2.523   5.327  18.353  0.00  0.00    +0.000 C 
ATOM      5  C   UNL     1       3.031   4.371  19.136  0.00  0.00    +0.000 C 
ATOM      6  C   UNL     1       4.495   4.171  19.131  0.00  0.00    +0.000 C 
ATOM      7  O   UNL     1       4.993   3.350  19.907  0.00  0.00    +0.000 OA
ENDROOT
BRANCH   1   8
ATOM      8  C   UNL     1       6.305   4.047  17.476  0.00  0.00    +0.000 C 
BRANCH   8  11
ATOM      9  C   UNL     1       6.775   4.433  13.950  0.00  0.00    +0.000 A 
ATOM     10  C   UNL     1       6.162   3.751  14.976  0.00  0.00    +0.000 A 
ATOM     11  N   UNL     1       6.575   4.398  16.101  0.00  0.00    +0.000 N 
ATOM     12  N   UNL     1       7.382   5.431  15.800  0.00  0.00    +0.000 NA
ATOM     13  N   UNL     1       7.514   5.459  14.481  0.00  0.00    +0.000 NA
BRANCH   9  14
ATOM     14  C   UNL     1       6.734   4.181  12.490  0.00  0.00    +0.000 C 
BRANCH  14  15
ATOM     15  C   UNL     1       5.665   3.155  12.100  0.00  0.00    +0.000 C 
BRANCH  15  16
ATOM     16  C   UNL     1       4.344   3.840  11.748  0.00  0.00    +0.000 C 
BRANCH  16  18
ATOM     17  C   UNL     1       2.980   3.977   9.641  0.00  0.00    +0.000 C 
ATOM     18  C   UNL     1       3.564   3.053  10.696  0.00  0.00    +0.000 C 
ENDBRANCH  16  18
ENDBRANCH  15  16
ENDBRANCH  14  15
ENDBRANCH   9  14
ENDBRANCH   8  11
ENDBRANCH   1   8
BRANCH   3  19
ATOM     19  O   UNL     1       3.484   7.457  18.079  0.00  0.00    +0.000 OA
BRANCH  19  20
ATOM     20  C   UNL     1       2.267   7.902  18.678  0.00  0.00    +0.000 C 
BRANCH  20  21
ATOM     21  C   UNL     1       1.586   8.918  17.759  0.00  0.00    +0.000 C 
BRANCH  21  22
ATOM     22  C   UNL     1       0.775   9.972  18.534  0.00  0.00    +0.000 C 
ATOM     23  C   UNL     1      -0.661  10.101  18.019  0.00  0.00    +0.000 C 
ATOM     24  C   UNL     1       0.752   9.645  20.029  0.00  0.00    +0.000 C 
ENDBRANCH  21  22
ENDBRANCH  20  21
ENDBRANCH  19  20
ENDBRANCH   3  19
TORSDOF 10
ENDMDL
MODEL 2
REMARK VINA RESULT:      -7.1      2.680      3.770
REMARK  Name = 
REMARK  13 active torsions:
REMARK  status: ('A' for Active; 'I' for Inactive)
REMARK    1  A    between atoms: C_1  and  C_2
REMARK    2  A    between atoms: C_2  and  C_3
REMARK    3  A    between atoms: C_3  and  C_4
REMARK    4  A    between atoms: C_4  and  C_5
REMARK    5  A    between atoms: C_5  and  C_6
REMARK    6  A    between atoms: N_8  and  C_9
REMARK    7  A    between atoms: C_9  and  C_10
REMARK    8  A    between atoms: C_12  and  O_13
REMARK    9  A    between atoms: O_13  and  C_14
REMARK   10  A    between atoms: C_14  and  C_15
REMARK   11  A    between atoms: C_15  and  C_16
REMARK   12  A    between atoms: C_16  and  C_17
REMARK   13  A    between atoms: C_16  and  C_18
REMARK                            x       y       z     vdW  Elec       q    Type
REMARK                         _______ _______ _______ _____ _____    ______ ____
ROOT
ATOM      1  C   UNL     1       5.526   4.805  16.995  0.00  0.00    +0.000 C 
ATOM      2  O   UNL     1       5.512   3.656  17.844  0.00  0.00    +0.000 OA
ATOM      3  C   UNL     1       4.565   3.658  18.899  0.00  0.00    +0.000 C 
ATOM      4  C   UNL     1       4.579   4.944  19.647  0.00  0.00    +0.000 C 
ATOM      5  C   UNL     1       5.002   6.108  19.148  0.00  0.00    +0.000 C 
ATOM      6  C   UNL     1       5.463   6.139  17.744  0.00  0.00    +0.000 C 
ATOM      7  O   UNL     1       5.779   7.218  17.237  0.00  0.00    +0.000 OA
ENDROOT
BRANCH   1   8
ATOM      8  C   UNL     1       6.868   4.772  16.265  0.00  0.00    +0.000 C 
BRANCH   8  11
ATOM      9  C   UNL     1       6.136   3.922  12.868  0.00  0.00    +0.000 A 
ATOM     10  C   UNL     1       5.753   3.876  14.189  0.00  0.00    +0.000 A 
ATOM     11  N   UNL     1       6.721   4.577  14.841  0.00  0.00    +0.000 N 
ATOM     12  N   UNL     1       7.644   5.048  13.984  0.00  0.00    +0.000 NA
ATOM     13  N   UNL     1       7.295   4.648  12.769  0.00  0.00    +0.000 NA
BRANCH   9  14
ATOM     14  C   UNL     1       5.497   3.313  11.677  0.00  0.00    +0.000 C 
BRANCH  14  15
ATOM     15  C   UNL     1       4.059   3.800  11.467  0.00  0.00    +0.000 C 
BRANCH  15  16
ATOM     16  C   UNL     1       3.324   2.928  10.449  0.00  0.00    +0.000 C 
BRANCH  16  18
ATOM     17  C   UNL     1       2.318   4.874   9.216  0.00  0.00    +0.000 C 
ATOM     18  C   UNL     1       3.185   3.631   9.100  0.00  0.00    +0.000 C 
ENDBRANCH  16  18
ENDBRANCH  15  16
ENDBRANCH  14  15
ENDBRANCH   9  14
ENDBRANCH   8  11
ENDBRANCH   1   8
BRANCH   3  19
ATOM     19  O   UNL     1       3.230   3.417  18.473  0.00  0.00    +0.000 OA
BRANCH  19  20
ATOM     20  C   UNL     1       2.749   2.155  18.939  0.00  0.00    +0.000 C 
BRANCH  20  21
ATOM     21  C   UNL     1       1.297   2.299  19.396  0.00  0.00    +0.000 C 
BRANCH  21  22
ATOM     22  C   UNL     1       1.168   3.007  20.758  0.00  0.00    +0.000 C 
ATOM     23  C   UNL     1       2.342   2.700  21.691  0.00  0.00    +0.000 C 
ATOM     24  C   UNL     1       1.048   4.521  20.570  0.00  0.00    +0.000 C 
ENDBRANCH  21  22
ENDBRANCH  20  21
ENDBRANCH  19  20
ENDBRANCH   3  19
TORSDOF 10
ENDMDL
MODEL 3
REMARK VINA RESULT:      -7.1      1.250      1.634
REMARK  Name = 
REMARK  13 active torsions:
REMARK  status: ('A' for Active; 'I' for Inactive)
REMARK    1  A    between atoms: C_1  and  C_2
REMARK    2  A    between atoms: C_2  and  C_3
REMARK    3  A    between atoms: C_3  and  C_4
REMARK    4  A    between atoms: C_4  and  C_5
REMARK    5  A    between atoms: C_5  and  C_6
REMARK    6  A    between atoms: N_8  and  C_9
REMARK    7  A    between atoms: C_9  and  C_10
REMARK    8  A    between atoms: C_12  and  O_13
REMARK    9  A    between atoms: O_13  and  C_14
REMARK   10  A    between atoms: C_14  and  C_15
REMARK   11  A    between atoms: C_15  and  C_16
REMARK   12  A    between atoms: C_16  and  C_17
REMARK   13  A    between atoms: C_16  and  C_18
REMARK                            x       y       z     vdW  Elec       q    Type
REMARK                         _______ _______ _______ _____ _____    ______ ____
ROOT
ATOM      1  C   UNL     1       4.468   4.681  19.290  0.00  0.00    +0.000 C 
ATOM      2  O   UNL     1       4.207   5.936  18.660  0.00  0.00    +0.000 OA
ATOM      3  C   UNL     1       2.845   6.296  18.503  0.00  0.00    +0.000 C 
ATOM      4  C   UNL     1       2.043   5.175  17.940  0.00  0.00    +0.000 C 
ATOM      5  C   UNL     1       2.370   3.884  18.037  0.00  0.00    +0.000 C 
ATOM      6  C   UNL     1       3.598   3.530  18.778  0.00  0.00    +0.000 C 
ATOM      7  O   UNL     1       3.875   2.340  18.951  0.00  0.00    +0.000 OA
ENDROOT
BRANCH   1   8
ATOM      8  C   UNL     1       5.914   4.329  18.942  0.00  0.00    +0.000 C 
BRANCH   8  11
ATOM      9  C   UNL     1       6.639   4.984  15.500  0.00  0.00    +0.000 A 
ATOM     10  C   UNL     1       5.928   4.250  16.422  0.00  0.00    +0.000 A 
ATOM     11  N   UNL     1       6.293   4.779  17.622  0.00  0.00    +0.000 N 
ATOM     12  N   UNL     1       7.165   5.791  17.464  0.00  0.00    +0.000 NA
ATOM     13  N   UNL     1       7.387   5.922  16.164  0.00  0.00    +0.000 NA
BRANCH   9  14
ATOM     14  C   UNL     1       6.686   4.857  14.024  0.00  0.00    +0.000 C 
BRANCH  14  15
ATOM     15  C   UNL     1       5.797   3.722  13.503  0.00  0.00    +0.000 C 
BRANCH  15  16
ATOM     16  C   UNL     1       6.336   3.158  12.187  0.00  0.00    +0.000 C 
BRANCH  16  18
ATOM     17  C   UNL     1       4.021   3.372  11.230  0.00  0.00    +0.000 C 
ATOM     18  C   UNL     1       5.237   2.472  11.377  0.00  0.00    +0.000 C 
ENDBRANCH  16  18
ENDBRANCH  15  16
ENDBRANCH  14  15
ENDBRANCH   9  14
ENDBRANCH   8  11
ENDBRANCH   1   8
BRANCH   3  19
ATOM     19  O   UNL     1       2.219   6.717  19.708  0.00  0.00    +0.000 OA
BRANCH  19  20
ATOM     20  C   UNL     1       1.690   8.039  19.591  0.00  0.00    +0.000 C 
BRANCH  20  21
ATOM     21  C   UNL     1       2.350   8.752  18.410  0.00  0.00    +0.000 C 
BRANCH  21  22
ATOM     22  C   UNL     1       1.475   9.879  17.830  0.00  0.00    +0.000 C 
ATOM     23  C   UNL     1       0.100   9.954  18.497  0.00  0.00    +0.000 C 
ATOM     24  C   UNL     1       2.180  11.231  17.960  0.00  0.00    +0.000 C 
ENDBRANCH  21  22
ENDBRANCH  20  21
ENDBRANCH  19  20
ENDBRANCH   3  19
TORSDOF 10
ENDMDL
MODEL 4
REMARK VINA RESULT:      -6.9      3.119      7.309
REMARK  Name = 
REMARK  13 active torsions:
REMARK  status: ('A' for Active; 'I' for Inactive)
REMARK    1  A    between atoms: C_1  and  C_2
REMARK    2  A    between atoms: C_2  and  C_3
REMARK    3  A    between atoms: C_3  and  C_4
REMARK    4  A    between atoms: C_4  and  C_5
REMARK    5  A    between atoms: C_5  and  C_6
REMARK    6  A    between atoms: N_8  and  C_9
REMARK    7  A    between atoms: C_9  and  C_10
REMARK    8  A    between atoms: C_12  and  O_13
REMARK    9  A    between atoms: O_13  and  C_14
REMARK   10  A    between atoms: C_14  and  C_15
REMARK   11  A    between atoms: C_15  and  C_16
REMARK   12  A    between atoms: C_16  and  C_17
REMARK   13  A    between atoms: C_16  and  C_18
REMARK                            x       y       z     vdW  Elec       q    Type
REMARK                         _______ _______ _______ _____ _____    ______ ____
ROOT
ATOM      1  C   UNL     1       7.078   5.358  17.064  0.00  0.00    +0.000 C 
ATOM      2  O   UNL     1       6.416   4.190  16.577  0.00  0.00    +0.000 OA
ATOM      3  C   UNL     1       5.983   4.223  15.227  0.00  0.00    +0.000 C 
ATOM      4  C   UNL     1       5.261   5.486  14.913  0.00  0.00    +0.000 C 
ATOM      5  C   UNL     1       5.415   6.634  15.577  0.00  0.00    +0.000 C 
ATOM      6  C   UNL     1       6.392   6.673  16.685  0.00  0.00    +0.000 C 
ATOM      7  O   UNL     1       6.611   7.744  17.258  0.00  0.00    +0.000 OA
ENDROOT
BRANCH   1   8
ATOM      8  C   UNL     1       7.034   5.260  18.589  0.00  0.00    +0.000 C 
BRANCH   8  11
ATOM      9  C   UNL     1       3.735   4.763  19.882  0.00  0.00    +0.000 A 
ATOM     10  C   UNL     1       4.657   5.632  19.346  0.00  0.00    +0.000 A 
ATOM     11  N   UNL     1       5.740   4.848  19.081  0.00  0.00    +0.000 N 
ATOM     12  N   UNL     1       5.507   3.567  19.415  0.00  0.00    +0.000 NA
ATOM     13  N   UNL     1       4.279   3.505  19.912  0.00  0.00    +0.000 NA
BRANCH   9  14
ATOM     14  C   UNL     1       2.370   5.031  20.394  0.00  0.00    +0.000 C 
BRANCH  14  15
ATOM     15  C   UNL     1       1.708   3.782  20.985  0.00  0.00    +0.000 C 
BRANCH  15  16
ATOM     16  C   UNL     1       0.673   3.198  20.023  0.00  0.00    +0.000 C 
BRANCH  16  18
ATOM     17  C   UNL     1       1.798   2.618  17.851  0.00  0.00    +0.000 C 
ATOM     18  C   UNL     1       1.267   2.079  19.169  0.00  0.00    +0.000 C 
ENDBRANCH  16  18
ENDBRANCH  15  16
ENDBRANCH  14  15
ENDBRANCH   9  14
ENDBRANCH   8  11
ENDBRANCH   1   8
BRANCH   3  19
ATOM     19  O   UNL     1       7.036   4.077  14.283  0.00  0.00    +0.000 OA
BRANCH  19  20
ATOM     20  C   UNL     1       6.640   4.516  12.983  0.00  0.00    +0.000 C 
BRANCH  20  21
ATOM     21  C   UNL     1       6.831   3.379  11.978  0.00  0.00    +0.000 C 
BRANCH  21  22
ATOM     22  C   UNL     1       5.591   2.474  11.860  0.00  0.00    +0.000 C 
ATOM     23  C   UNL     1       4.383   3.209  11.276  0.00  0.00    +0.000 C 
ATOM     24  C   UNL     1       5.900   1.242  11.006  0.00  0.00    +0.000 C 
ENDBRANCH  21  22
ENDBRANCH  20  21
ENDBRANCH  19  20
ENDBRANCH   3  19
TORSDOF 10
ENDMDL
MODEL 5
REMARK VINA RESULT:      -6.9      4.107      6.643
REMARK  Name = 
REMARK  13 active torsions:
REMARK  status: ('A' for Active; 'I' for Inactive)
REMARK    1  A    between atoms: C_1  and  C_2
REMARK    2  A    between atoms: C_2  and  C_3
REMARK    3  A    between atoms: C_3  and  C_4
REMARK    4  A    between atoms: C_4  and  C_5
REMARK    5  A    between atoms: C_5  and  C_6
REMARK    6  A    between atoms: N_8  and  C_9
REMARK    7  A    between atoms: C_9  and  C_10
REMARK    8  A    between atoms: C_12  and  O_13
REMARK    9  A    between atoms: O_13  and  C_14
REMARK   10  A    between atoms: C_14  and  C_15
REMARK   11  A    between atoms: C_15  and  C_16
REMARK   12  A    between atoms: C_16  and  C_17
REMARK   13  A    between atoms: C_16  and  C_18
REMARK                            x       y       z     vdW  Elec       q    Type
REMARK                         _______ _______ _______ _____ _____    ______ ____
ROOT
ATOM      1  C   UNL     1       5.827   4.611  18.612  0.00  0.00    +0.000 C 
ATOM      2  O   UNL     1       5.305   5.827  19.151  0.00  0.00    +0.000 OA
ATOM      3  C   UNL     1       3.895   5.964  19.158  0.00  0.00    +0.000 C 
ATOM      4  C   UNL     1       3.301   5.601  17.842  0.00  0.00    +0.000 C 
ATOM      5  C   UNL     1       3.874   4.788  16.950  0.00  0.00    +0.000 C 
ATOM      6  C   UNL     1       5.174   4.179  17.296  0.00  0.00    +0.000 C 
ATOM      7  O   UNL     1       5.681   3.361  16.523  0.00  0.00    +0.000 OA
ENDROOT
BRANCH   1   8
ATOM      8  C   UNL     1       7.299   4.885  18.305  0.00  0.00    +0.000 C 
BRANCH   8  11
ATOM      9  C   UNL     1       8.053   8.356  17.878  0.00  0.00    +0.000 A 
ATOM     10  C   UNL     1       8.195   7.218  18.639  0.00  0.00    +0.000 A 
ATOM     11  N   UNL     1       7.541   6.258  17.927  0.00  0.00    +0.000 N 
ATOM     12  N   UNL     1       7.036   6.757  16.786  0.00  0.00    +0.000 NA
ATOM     13  N   UNL     1       7.342   8.047  16.748  0.00  0.00    +0.000 NA
BRANCH   9  14
ATOM     14  C   UNL     1       8.525   9.736  18.145  0.00  0.00    +0.000 C 
BRANCH  14  15
ATOM     15  C   UNL     1       9.164   9.881  19.530  0.00  0.00    +0.000 C 
BRANCH  15  16
ATOM     16  C   UNL     1       9.959  11.183  19.638  0.00  0.00    +0.000 C 
BRANCH  16  18
ATOM     17  C   UNL     1      11.735  11.786  17.964  0.00  0.00    +0.000 C 
ATOM     18  C   UNL     1      10.245  11.783  18.263  0.00  0.00    +0.000 C 
ENDBRANCH  16  18
ENDBRANCH  15  16
ENDBRANCH  14  15
ENDBRANCH   9  14
ENDBRANCH   8  11
ENDBRANCH   1   8
BRANCH   3  19
ATOM     19  O   UNL     1       3.247   5.189  20.158  0.00  0.00    +0.000 OA
BRANCH  19  20
ATOM     20  C   UNL     1       1.925   5.663  20.416  0.00  0.00    +0.000 C 
BRANCH  20  21
ATOM     21  C   UNL     1       0.976   4.474  20.572  0.00  0.00    +0.000 C 
BRANCH  21  22
ATOM     22  C   UNL     1       1.658   3.125  20.278  0.00  0.00    +0.000 C 
ATOM     23  C   UNL     1       1.704   2.212  21.505  0.00  0.00    +0.000 C 
ATOM     24  C   UNL     1       0.951   2.401  19.130  0.00  0.00    +0.000 C 
ENDBRANCH  21  22
ENDBRANCH  20  21
ENDBRANCH  19  20
ENDBRANCH   3  19
TORSDOF 10
ENDMDL
MODEL 6
REMARK VINA RESULT:      -6.9      1.421      1.888
REMARK  Name = 
REMARK  13 active torsions:
REMARK  status: ('A' for Active; 'I' for Inactive)
REMARK    1  A    between atoms: C_1  and  C_2
REMARK    2  A    between atoms: C_2  and  C_3
REMARK    3  A    between atoms: C_3  and  C_4
REMARK    4  A    between atoms: C_4  and  C_5
REMARK    5  A    between atoms: C_5  and  C_6
REMARK    6  A    between atoms: N_8  and  C_9
REMARK    7  A    between atoms: C_9  and  C_10
REMARK    8  A    between atoms: C_12  and  O_13
REMARK    9  A    between atoms: O_13  and  C_14
REMARK   10  A    between atoms: C_14  and  C_15
REMARK   11  A    between atoms: C_15  and  C_16
REMARK   12  A    between atoms: C_16  and  C_17
REMARK   13  A    between atoms: C_16  and  C_18
REMARK                            x       y       z     vdW  Elec       q    Type
REMARK                         _______ _______ _______ _____ _____    ______ ____
ROOT
ATOM      1  C   UNL     1       4.469   4.854  19.265  0.00  0.00    +0.000 C 
ATOM      2  O   UNL     1       4.061   5.975  18.479  0.00  0.00    +0.000 OA
ATOM      3  C   UNL     1       2.671   6.108  18.238  0.00  0.00    +0.000 C 
ATOM      4  C   UNL     1       2.066   4.824  17.791  0.00  0.00    +0.000 C 
ATOM      5  C   UNL     1       2.570   3.615  18.054  0.00  0.00    +0.000 C 
ATOM      6  C   UNL     1       3.799   3.535  18.871  0.00  0.00    +0.000 C 
ATOM      7  O   UNL     1       4.235   2.427  19.196  0.00  0.00    +0.000 OA
ENDROOT
BRANCH   1   8
ATOM      8  C   UNL     1       5.966   4.683  19.007  0.00  0.00    +0.000 C 
BRANCH   8  11
ATOM      9  C   UNL     1       6.828   5.147  15.566  0.00  0.00    +0.000 A 
ATOM     10  C   UNL     1       6.225   4.360  16.520  0.00  0.00    +0.000 A 
ATOM     11  N   UNL     1       6.348   5.077  17.671  0.00  0.00    +0.000 N 
ATOM     12  N   UNL     1       6.973   6.247  17.452  0.00  0.00    +0.000 NA
ATOM     13  N   UNL     1       7.276   6.298  16.162  0.00  0.00    +0.000 NA
BRANCH   9  14
ATOM     14  C   UNL     1       7.036   4.889  14.121  0.00  0.00    +0.000 C 
BRANCH  14  15
ATOM     15  C   UNL     1       5.985   3.938  13.537  0.00  0.00    +0.000 C 
BRANCH  15  16
ATOM     16  C   UNL     1       6.529   3.200  12.314  0.00  0.00    +0.000 C 
BRANCH  16  18
ATOM     17  C   UNL     1       4.143   3.343  11.538  0.00  0.00    +0.000 C 
ATOM     18  C   UNL     1       5.413   2.510  11.531  0.00  0.00    +0.000 C 
ENDBRANCH  16  18
ENDBRANCH  15  16
ENDBRANCH  14  15
ENDBRANCH   9  14
ENDBRANCH   8  11
ENDBRANCH   1   8
BRANCH   3  19
ATOM     19  O   UNL     1       1.934   6.569  19.362  0.00  0.00    +0.000 OA
BRANCH  19  20
ATOM     20  C   UNL     1       2.292   7.906  19.714  0.00  0.00    +0.000 C 
BRANCH  20  21
ATOM     21  C   UNL     1       1.035   8.774  19.773  0.00  0.00    +0.000 C 
BRANCH  21  22
ATOM     22  C   UNL     1       0.820   9.419  21.155  0.00  0.00    +0.000 C 
ATOM     23  C   UNL     1       0.552  10.923  21.065  0.00  0.00    +0.000 C 
ATOM     24  C   UNL     1      -0.334   8.738  21.895  0.00  0.00    +0.000 C 
ENDBRANCH  21  22
ENDBRANCH  20  21
ENDBRANCH  19  20
ENDBRANCH   3  19
TORSDOF 10
ENDMDL
MODEL 7
REMARK VINA RESULT:      -6.9      1.988      4.333
REMARK  Name = 
REMARK  13 active torsions:
REMARK  status: ('A' for Active; 'I' for Inactive)
REMARK    1  A    between atoms: C_1  and  C_2
REMARK    2  A    between atoms: C_2  and  C_3
REMARK    3  A    between atoms: C_3  and  C_4
REMARK    4  A    between atoms: C_4  and  C_5
REMARK    5  A    between atoms: C_5  and  C_6
REMARK    6  A    between atoms: N_8  and  C_9
REMARK    7  A    between atoms: C_9  and  C_10
REMARK    8  A    between atoms: C_12  and  O_13
REMARK    9  A    between atoms: O_13  and  C_14
REMARK   10  A    between atoms: C_14  and  C_15
REMARK   11  A    between atoms: C_15  and  C_16
REMARK   12  A    between atoms: C_16  and  C_17
REMARK   13  A    between atoms: C_16  and  C_18
REMARK                            x       y       z     vdW  Elec       q    Type
REMARK                         _______ _______ _______ _____ _____    ______ ____
ROOT
ATOM      1  C   UNL     1       3.295   6.378  18.483  0.00  0.00    +0.000 C 
ATOM      2  O   UNL     1       3.374   5.643  19.706  0.00  0.00    +0.000 OA
ATOM      3  C   UNL     1       2.187   5.569  20.478  0.00  0.00    +0.000 C 
ATOM      4  C   UNL     1       1.549   6.905  20.633  0.00  0.00    +0.000 C 
ATOM      5  C   UNL     1       1.717   7.928  19.792  0.00  0.00    +0.000 C 
ATOM      6  C   UNL     1       2.572   7.722  18.605  0.00  0.00    +0.000 C 
ATOM      7  O   UNL     1       2.675   8.626  17.772  0.00  0.00    +0.000 OA
ENDROOT
BRANCH   1   8
ATOM      8  C   UNL     1       4.739   6.687  18.086  0.00  0.00    +0.000 C 
BRANCH   8  11
ATOM      9  C   UNL     1       5.811   4.876  15.193  0.00  0.00    +0.000 A 
ATOM     10  C   UNL     1       5.508   4.854  16.535  0.00  0.00    +0.000 A 
ATOM     11  N   UNL     1       5.095   6.124  16.805  0.00  0.00    +0.000 N 
ATOM     12  N   UNL     1       5.120   6.889  15.700  0.00  0.00    +0.000 NA
ATOM     13  N   UNL     1       5.562   6.133  14.704  0.00  0.00    +0.000 NA
BRANCH   9  14
ATOM     14  C   UNL     1       6.341   3.797  14.326  0.00  0.00    +0.000 C 
BRANCH  14  15
ATOM     15  C   UNL     1       6.017   4.020  12.845  0.00  0.00    +0.000 C 
BRANCH  15  16
ATOM     16  C   UNL     1       6.362   2.785  12.012  0.00  0.00    +0.000 C 
BRANCH  16  18
ATOM     17  C   UNL     1       4.005   3.261  11.277  0.00  0.00    +0.000 C 
ATOM     18  C   UNL     1       5.141   2.252  11.263  0.00  0.00    +0.000 C 
ENDBRANCH  16  18
ENDBRANCH  15  16
ENDBRANCH  14  15
ENDBRANCH   9  14
ENDBRANCH   8  11
ENDBRANCH   1   8
BRANCH   3  19
ATOM     19  O   UNL     1       1.213   4.678  19.952  0.00  0.00    +0.000 OA
BRANCH  19  20
ATOM     20  C   UNL     1       1.278   3.397  20.578  0.00  0.00    +0.000 C 
BRANCH  20  21
ATOM     21  C   UNL     1       1.504   2.319  19.517  0.00  0.00    +0.000 C 
BRANCH  21  22
ATOM     22  C   UNL     1       2.754   2.583  18.656  0.00  0.00    +0.000 C 
ATOM     23  C   UNL     1       3.663   1.356  18.554  0.00  0.00    +0.000 C 
ATOM     24  C   UNL     1       2.356   3.041  17.251  0.00  0.00    +0.000 C 
ENDBRANCH  21  22
ENDBRANCH  20  21
ENDBRANCH  19  20
ENDBRANCH   3  19
TORSDOF 10
ENDMDL
MODEL 8
REMARK VINA RESULT:      -6.8      1.779      2.622
REMARK  Name = 
REMARK  13 active torsions:
REMARK  status: ('A' for Active; 'I' for Inactive)
REMARK    1  A    between atoms: C_1  and  C_2
REMARK    2  A    between atoms: C_2  and  C_3
REMARK    3  A    between atoms: C_3  and  C_4
REMARK    4  A    between atoms: C_4  and  C_5
REMARK    5  A    between atoms: C_5  and  C_6
REMARK    6  A    between atoms: N_8  and  C_9
REMARK    7  A    between atoms: C_9  and  C_10
REMARK    8  A    between atoms: C_12  and  O_13
REMARK    9  A    between atoms: O_13  and  C_14
REMARK   10  A    between atoms: C_14  and  C_15
REMARK   11  A    between atoms: C_15  and  C_16
REMARK   12  A    between atoms: C_16  and  C_17
REMARK   13  A    between atoms: C_16  and  C_18
REMARK                            x       y       z     vdW  Elec       q    Type
REMARK                         _______ _______ _______ _____ _____    ______ ____
ROOT
ATOM      1  C   UNL     1       3.462   4.184  19.538  0.00  0.00    +0.000 C 
ATOM      2  O   UNL     1       3.868   5.551  19.448  0.00  0.00    +0.000 OA
ATOM      3  C   UNL     1       2.849   6.500  19.185  0.00  0.00    +0.000 C 
ATOM      4  C   UNL     1       1.975   6.069  18.059  0.00  0.00    +0.000 C 
ATOM      5  C   UNL     1       1.803   4.802  17.674  0.00  0.00    +0.000 C 
ATOM      6  C   UNL     1       2.500   3.743  18.431  0.00  0.00    +0.000 C 
ATOM      7  O   UNL     1       2.290   2.560  18.145  0.00  0.00    +0.000 OA
ENDROOT
BRANCH   1   8
ATOM      8  C   UNL     1       4.736   3.355  19.373  0.00  0.00    +0.000 C 
BRANCH   8  11
ATOM      9  C   UNL     1       6.610   4.347  16.492  0.00  0.00    +0.000 A 
ATOM     10  C   UNL     1       5.465   3.776  16.996  0.00  0.00    +0.000 A 
ATOM     11  N   UNL     1       5.608   3.877  18.347  0.00  0.00    +0.000 N 
ATOM     12  N   UNL     1       6.761   4.488  18.670  0.00  0.00    +0.000 NA
ATOM     13  N   UNL     1       7.387   4.778  17.537  0.00  0.00    +0.000 NA
BRANCH   9  14
ATOM     14  C   UNL     1       7.047   4.506  15.084  0.00  0.00    +0.000 C 
BRANCH  14  15
ATOM     15  C   UNL     1       5.874   4.480  14.098  0.00  0.00    +0.000 C 
BRANCH  15  16
ATOM     16  C   UNL     1       6.341   4.097  12.694  0.00  0.00    +0.000 C 
BRANCH  16  18
ATOM     17  C   UNL     1       4.394   3.172  11.401  0.00  0.00    +0.000 C 
ATOM     18  C   UNL     1       5.645   2.832  12.194  0.00  0.00    +0.000 C 
ENDBRANCH  16  18
ENDBRANCH  15  16
ENDBRANCH  14  15
ENDBRANCH   9  14
ENDBRANCH   8  11
ENDBRANCH   1   8
BRANCH   3  19
ATOM     19  O   UNL     1       2.015   6.773  20.304  0.00  0.00    +0.000 OA
BRANCH  19  20
ATOM     20  C   UNL     1       1.780   8.173  20.456  0.00  0.00    +0.000 C 
BRANCH  20  21
ATOM     21  C   UNL     1       1.088   8.434  21.794  0.00  0.00    +0.000 C 
BRANCH  21  22
ATOM     22  C   UNL     1       0.352   9.787  21.830  0.00  0.00    +0.000 C 
ATOM     23  C   UNL     1      -0.363  10.099  20.513  0.00  0.00    +0.000 C 
ATOM     24  C   UNL     1      -0.658   9.822  22.980  0.00  0.00    +0.000 C 
ENDBRANCH  21  22
ENDBRANCH  20  21
ENDBRANCH  19  20
ENDBRANCH   3  19
TORSDOF 10
ENDMDL
MODEL 9
REMARK VINA RESULT:      -6.7      2.175      3.763
REMARK  Name = 
REMARK  13 active torsions:
REMARK  status: ('A' for Active; 'I' for Inactive)
REMARK    1  A    between atoms: C_1  and  C_2
REMARK    2  A    between atoms: C_2  and  C_3
REMARK    3  A    between atoms: C_3  and  C_4
REMARK    4  A    between atoms: C_4  and  C_5
REMARK    5  A    between atoms: C_5  and  C_6
REMARK    6  A    between atoms: N_8  and  C_9
REMARK    7  A    between atoms: C_9  and  C_10
REMARK    8  A    between atoms: C_12  and  O_13
REMARK    9  A    between atoms: O_13  and  C_14
REMARK   10  A    between atoms: C_14  and  C_15
REMARK   11  A    between atoms: C_15  and  C_16
REMARK   12  A    between atoms: C_16  and  C_17
REMARK   13  A    between atoms: C_16  and  C_18
REMARK                            x       y       z     vdW  Elec       q    Type
REMARK                         _______ _______ _______ _____ _____    ______ ____
ROOT
ATOM      1  C   UNL     1       4.185   5.655  17.080  0.00  0.00    +0.000 C 
ATOM      2  O   UNL     1       5.014   4.597  17.563  0.00  0.00    +0.000 OA
ATOM      3  C   UNL     1       4.511   3.847  18.656  0.00  0.00    +0.000 C 
ATOM      4  C   UNL     1       3.994   4.730  19.736  0.00  0.00    +0.000 C 
ATOM      5  C   UNL     1       3.568   5.983  19.553  0.00  0.00    +0.000 C 
ATOM      6  C   UNL     1       3.580   6.530  18.181  0.00  0.00    +0.000 C 
ATOM      7  O   UNL     1       3.114   7.654  17.977  0.00  0.00    +0.000 OA
ENDROOT
BRANCH   1   8
ATOM      8  C   UNL     1       5.099   6.559  16.251  0.00  0.00    +0.000 C 
BRANCH   8  11
ATOM      9  C   UNL     1       6.712   4.445  13.858  0.00  0.00    +0.000 A 
ATOM     10  C   UNL     1       5.534   4.944  14.365  0.00  0.00    +0.000 A 
ATOM     11  N   UNL     1       5.930   5.815  15.333  0.00  0.00    +0.000 N 
ATOM     12  N   UNL     1       7.271   5.873  15.418  0.00  0.00    +0.000 NA
ATOM     13  N   UNL     1       7.760   5.031  14.518  0.00  0.00    +0.000 NA
BRANCH   9  14
ATOM     14  C   UNL     1       6.930   3.431  12.799  0.00  0.00    +0.000 C 
BRANCH  14  15
ATOM     15  C   UNL     1       6.146   3.739  11.519  0.00  0.00    +0.000 C 
BRANCH  15  16
ATOM     16  C   UNL     1       4.887   2.877  11.422  0.00  0.00    +0.000 C 
BRANCH  16  18
ATOM     17  C   UNL     1       2.957   3.143   9.833  0.00  0.00    +0.000 C 
ATOM     18  C   UNL     1       3.661   3.711  11.055  0.00  0.00    +0.000 C 
ENDBRANCH  16  18
ENDBRANCH  15  16
ENDBRANCH  14  15
ENDBRANCH   9  14
ENDBRANCH   8  11
ENDBRANCH   1   8
BRANCH   3  19
ATOM     19  O   UNL     1       3.477   2.938  18.303  0.00  0.00    +0.000 OA
BRANCH  19  20
ATOM     20  C   UNL     1       3.071   2.143  19.417  0.00  0.00    +0.000 C 
BRANCH  20  21
ATOM     21  C   UNL     1       1.545   2.077  19.470  0.00  0.00    +0.000 C 
BRANCH  21  22
ATOM     22  C   UNL     1       0.959   2.784  20.707  0.00  0.00    +0.000 C 
ATOM     23  C   UNL     1       1.862   2.654  21.937  0.00  0.00    +0.000 C 
ATOM     24  C   UNL     1       0.707   4.265  20.414  0.00  0.00    +0.000 C 
ENDBRANCH  21  22
ENDBRANCH  20  21
ENDBRANCH  19  20
ENDBRANCH   3  19
TORSDOF 10
ENDMDL
