MODEL 1
REMARK VINA RESULT:      -8.0      0.000      0.000
REMARK  Name = 
REMARK  8 active torsions:
REMARK  status: ('A' for Active; 'I' for Inactive)
REMARK    1  A    between atoms: CB_1  and  CA_2
REMARK    2  A    between atoms: CA_2  and  N_3
REMARK    3  A    between atoms: CA_2  and  C_30
REMARK    4  A    between atoms: N_3  and  C_4
REMARK    5  A    between atoms: C_7  and  C_8
REMARK    6  A    between atoms: C_13  and  C_14
REMARK    7  A    between atoms: C_18  and  C_19
REMARK    8  A    between atoms: C_30  and  OXT_32
REMARK                            x       y       z     vdW  Elec       q    Type
REMARK                         _______ _______ _______ _____ _____    ______ ____
ROOT
ATOM      1  C   UNK A   0       0.248   9.735  21.174  0.00  0.00    +0.000 C 
ATOM      2  O   UNK A   0       0.535   8.840  21.960  0.00  0.00    +0.000 OA
ATOM      3  N   UNK A   0       0.662   9.856  19.872  0.00  0.00    +0.000 N 
ATOM      4  C   UNK A   0       1.490   8.938  19.284  0.00  0.00    +0.000 A 
ATOM      5  N   UNK A   0       1.899   7.773  19.714  0.00  0.00    +0.000 NA
ATOM      6  C   UNK A   0       2.711   7.180  18.756  0.00  0.00    +0.000 A 
ATOM      7  C   UNK A   0       2.975   7.983  17.660  0.00  0.00    +0.000 A 
ATOM      8  S   UNK A   0       2.059   9.428  17.753  0.00  0.00    +0.000 S 
ATOM      9  H   UNK A   0       0.386  10.625  19.283  0.00  0.00    +0.000 HD
ENDROOT
BRANCH   1  13
ATOM     10  C   UNK A   0      -2.274  12.725  22.861  0.00  0.00    +0.000 A 
ATOM     11  N   UNK A   0      -1.935  11.622  23.570  0.00  0.00    +0.000 NA
ATOM     12  C   UNK A   0      -1.116  10.710  22.975  0.00  0.00    +0.000 A 
ATOM     13  C   UNK A   0      -0.638  10.818  21.677  0.00  0.00    +0.000 A 
ATOM     14  C   UNK A   0      -0.981  11.961  20.955  0.00  0.00    +0.000 A 
ATOM     15  C   UNK A   0      -1.786  12.933  21.561  0.00  0.00    +0.000 A 
ATOM     16 CL   UNK A   0      -2.165  14.360  20.663  0.00  0.00    +0.000 Cl
BRANCH  10  17
ATOM     17  N   ALA A   1      -3.111  13.646  23.481  0.00  0.00    +0.000 N 
ATOM     18  H   ALA A   1      -2.827  13.827  24.443  0.00  0.00    +0.000 HD
BRANCH  17  20
ATOM     19  CB  ALA A   1      -5.177  14.930  23.384  0.00  0.00    +0.000 C 
ATOM     20  CA  ALA A   1      -4.571  13.528  23.296  0.00  0.00    +0.000 C 
BRANCH  20  21
ATOM     21  C   ALA A   1      -5.238  12.597  24.326  0.00  0.00    +0.000 C 
ATOM     22  O   ALA A   1      -6.315  12.040  24.170  0.00  0.00    +0.000 OA
BRANCH  21  23
ATOM     23  OXT ALA A   1      -4.503  12.410  25.449  0.00  0.00    +0.000 OA
ATOM     24  HXT ALA A   1      -3.564  12.203  25.218  0.00  0.00    +0.000 HD
ENDBRANCH  21  23
ENDBRANCH  20  21
ENDBRANCH  17  20
ENDBRANCH  10  17
ENDBRANCH   1  13
BRANCH   6  25
ATOM     25  C   UNK A   0       3.227   5.825  18.934  0.00  0.00    +0.000 A 
ATOM     26  C   UNK A   0       4.605   5.608  19.046  0.00  0.00    +0.000 A 
ATOM     27  C   UNK A   0       5.115   4.322  19.245  0.00  0.00    +0.000 A 
ATOM     28  C   UNK A   0       4.246   3.234  19.347  0.00  0.00    +0.000 A 
ATOM     29  C   UNK A   0       2.861   3.429  19.246  0.00  0.00    +0.000 A 
ATOM     30  C   UNK A   0       2.371   4.721  19.048  0.00  0.00    +0.000 A 
ATOM     31  F   UNK A   0       1.038   4.878  18.986  0.00  0.00    +0.000 F 
BRANCH  29  32
ATOM     32  C   UNK A   0       1.887   2.295  19.371  0.00  0.00    +0.000 C 
ATOM     33  F   UNK A   0       0.925   2.304  18.403  0.00  0.00    +0.000 F 
ATOM     34  F   UNK A   0       2.480   1.075  19.286  0.00  0.00    +0.000 F 
ATOM     35  F   UNK A   0       1.216   2.311  20.554  0.00  0.00    +0.000 F 
ENDBRANCH  29  32
ENDBRANCH   6  25
TORSDOF 7
ENDMDL
MODEL 2
REMARK VINA RESULT:      -8.0      0.912      1.225
REMARK  Name = 
REMARK  8 active torsions:
REMARK  status: ('A' for Active; 'I' for Inactive)
REMARK    1  A    between atoms: CB_1  and  CA_2
REMARK    2  A    between atoms: CA_2  and  N_3
REMARK    3  A    between atoms: CA_2  and  C_30
REMARK    4  A    between atoms: N_3  and  C_4
REMARK    5  A    between atoms: C_7  and  C_8
REMARK    6  A    between atoms: C_13  and  C_14
REMARK    7  A    between atoms: C_18  and  C_19
REMARK    8  A    between atoms: C_30  and  OXT_32
REMARK                            x       y       z     vdW  Elec       q    Type
REMARK                         _______ _______ _______ _____ _____    ______ ____
ROOT
ATOM      1  C   UNK A   0       0.388  10.071  21.561  0.00  0.00    +0.000 C 
ATOM      2  O   UNK A   0       0.796   9.239  22.362  0.00  0.00    +0.000 OA
ATOM      3  N   UNK A   0       0.608  10.092  20.206  0.00  0.00    +0.000 N 
ATOM      4  C   UNK A   0       1.352   9.132  19.576  0.00  0.00    +0.000 A 
ATOM      5  N   UNK A   0       1.832   8.003  20.029  0.00  0.00    +0.000 NA
ATOM      6  C   UNK A   0       2.503   7.338  19.011  0.00  0.00    +0.000 A 
ATOM      7  C   UNK A   0       2.596   8.055  17.829  0.00  0.00    +0.000 A 
ATOM      8  S   UNK A   0       1.687   9.503  17.945  0.00  0.00    +0.000 S 
ATOM      9  H   UNK A   0       0.241  10.814  19.608  0.00  0.00    +0.000 HD
ENDROOT
BRANCH   1  13
ATOM     10  C   UNK A   0      -2.051  13.102  23.296  0.00  0.00    +0.000 A 
ATOM     11  N   UNK A   0      -2.212  11.801  23.636  0.00  0.00    +0.000 NA
ATOM     12  C   UNK A   0      -1.392  10.884  23.052  0.00  0.00    +0.000 A 
ATOM     13  C   UNK A   0      -0.427  11.190  22.103  0.00  0.00    +0.000 A 
ATOM     14  C   UNK A   0      -0.257  12.532  21.764  0.00  0.00    +0.000 A 
ATOM     15  C   UNK A   0      -1.060  13.498  22.384  0.00  0.00    +0.000 A 
ATOM     16 CL   UNK A   0      -0.803  15.158  21.980  0.00  0.00    +0.000 Cl
BRANCH  10  17
ATOM     17  N   ALA A   1      -2.896  14.027  23.899  0.00  0.00    +0.000 N 
ATOM     18  H   ALA A   1      -2.797  14.023  24.914  0.00  0.00    +0.000 HD
BRANCH  17  20
ATOM     19  CB  ALA A   1      -4.860  15.463  23.935  0.00  0.00    +0.000 C 
ATOM     20  CA  ALA A   1      -4.292  14.136  23.431  0.00  0.00    +0.000 C 
BRANCH  20  21
ATOM     21  C   ALA A   1      -5.180  12.967  23.897  0.00  0.00    +0.000 C 
ATOM     22  O   ALA A   1      -6.027  12.415  23.210  0.00  0.00    +0.000 OA
BRANCH  21  23
ATOM     23  OXT ALA A   1      -4.926  12.561  25.164  0.00  0.00    +0.000 OA
ATOM     24  HXT ALA A   1      -3.951  12.515  25.325  0.00  0.00    +0.000 HD
ENDBRANCH  21  23
ENDBRANCH  20  21
ENDBRANCH  17  20
ENDBRANCH  10  17
ENDBRANCH   1  13
BRANCH   6  25
ATOM     25  C   UNK A   0       3.054   6.001  19.214  0.00  0.00    +0.000 A 
ATOM     26  C   UNK A   0       4.344   5.698  18.764  0.00  0.00    +0.000 A 
ATOM     27  C   UNK A   0       4.898   4.432  18.975  0.00  0.00    +0.000 A 
ATOM     28  C   UNK A   0       4.168   3.454  19.652  0.00  0.00    +0.000 A 
ATOM     29  C   UNK A   0       2.876   3.737  20.119  0.00  0.00    +0.000 A 
ATOM     30  C   UNK A   0       2.341   5.007  19.899  0.00  0.00    +0.000 A 
ATOM     31  F   UNK A   0       1.113   5.257  20.385  0.00  0.00    +0.000 F 
BRANCH  29  32
ATOM     32  C   UNK A   0       2.062   2.726  20.870  0.00  0.00    +0.000 C 
ATOM     33  F   UNK A   0       2.722   2.192  21.939  0.00  0.00    +0.000 F 
ATOM     34  F   UNK A   0       0.909   3.241  21.372  0.00  0.00    +0.000 F 
ATOM     35  F   UNK A   0       1.702   1.668  20.096  0.00  0.00    +0.000 F 
ENDBRANCH  29  32
ENDBRANCH   6  25
TORSDOF 7
ENDMDL
MODEL 3
REMARK VINA RESULT:      -8.0      3.364      4.015
REMARK  Name = 
REMARK  8 active torsions:
REMARK  status: ('A' for Active; 'I' for Inactive)
REMARK    1  A    between atoms: CB_1  and  CA_2
REMARK    2  A    between atoms: CA_2  and  N_3
REMARK    3  A    between atoms: CA_2  and  C_30
REMARK    4  A    between atoms: N_3  and  C_4
REMARK    5  A    between atoms: C_7  and  C_8
REMARK    6  A    between atoms: C_13  and  C_14
REMARK    7  A    between atoms: C_18  and  C_19
REMARK    8  A    between atoms: C_30  and  OXT_32
REMARK                            x       y       z     vdW  Elec       q    Type
REMARK                         _______ _______ _______ _____ _____    ______ ____
ROOT
ATOM      1  C   UNK A   0       1.245   9.161  18.779  0.00  0.00    +0.000 C 
ATOM      2  O   UNK A   0       1.991   9.341  17.824  0.00  0.00    +0.000 OA
ATOM      3  N   UNK A   0       1.280   8.117  19.670  0.00  0.00    +0.000 N 
ATOM      4  C   UNK A   0       2.202   7.111  19.575  0.00  0.00    +0.000 A 
ATOM      5  N   UNK A   0       3.255   7.001  18.808  0.00  0.00    +0.000 NA
ATOM      6  C   UNK A   0       3.913   5.809  19.084  0.00  0.00    +0.000 A 
ATOM      7  C   UNK A   0       3.258   4.997  19.994  0.00  0.00    +0.000 A 
ATOM      8  S   UNK A   0       1.894   5.813  20.636  0.00  0.00    +0.000 S 
ATOM      9  H   UNK A   0       0.629   8.033  20.433  0.00  0.00    +0.000 HD
ENDROOT
BRANCH   1  13
ATOM     10  C   UNK A   0      -1.656  12.169  19.607  0.00  0.00    +0.000 A 
ATOM     11  N   UNK A   0      -0.556  12.032  20.385  0.00  0.00    +0.000 NA
ATOM     12  C   UNK A   0       0.338  11.057  20.058  0.00  0.00    +0.000 A 
ATOM     13  C   UNK A   0       0.177  10.170  19.003  0.00  0.00    +0.000 A 
ATOM     14  C   UNK A   0      -0.952  10.322  18.199  0.00  0.00    +0.000 A 
ATOM     15  C   UNK A   0      -1.863  11.345  18.489  0.00  0.00    +0.000 A 
ATOM     16 CL   UNK A   0      -3.233  11.541  17.454  0.00  0.00    +0.000 Cl
BRANCH  10  17
ATOM     17  N   ALA A   1      -2.559  13.168  19.953  0.00  0.00    +0.000 N 
ATOM     18  H   ALA A   1      -2.085  14.017  20.256  0.00  0.00    +0.000 HD
BRANCH  17  20
ATOM     19  CB  ALA A   1      -4.857  13.808  20.433  0.00  0.00    +0.000 C 
ATOM     20  CA  ALA A   1      -3.742  12.816  20.764  0.00  0.00    +0.000 C 
BRANCH  20  21
ATOM     21  C   ALA A   1      -3.460  12.822  22.279  0.00  0.00    +0.000 C 
ATOM     22  O   ALA A   1      -4.141  12.252  23.119  0.00  0.00    +0.000 OA
BRANCH  21  23
ATOM     23  OXT ALA A   1      -2.342  13.506  22.623  0.00  0.00    +0.000 OA
ATOM     24  HXT ALA A   1      -2.318  14.382  22.166  0.00  0.00    +0.000 HD
ENDBRANCH  21  23
ENDBRANCH  20  21
ENDBRANCH  17  20
ENDBRANCH  10  17
ENDBRANCH   1  13
BRANCH   6  25
ATOM     25  C   UNK A   0       5.181   5.477  18.440  0.00  0.00    +0.000 A 
ATOM     26  C   UNK A   0       6.359   5.429  19.195  0.00  0.00    +0.000 A 
ATOM     27  C   UNK A   0       7.577   5.085  18.601  0.00  0.00    +0.000 A 
ATOM     28  C   UNK A   0       7.628   4.772  17.242  0.00  0.00    +0.000 A 
ATOM     29  C   UNK A   0       6.459   4.806  16.468  0.00  0.00    +0.000 A 
ATOM     30  C   UNK A   0       5.252   5.151  17.079  0.00  0.00    +0.000 A 
ATOM     31  F   UNK A   0       4.145   5.145  16.317  0.00  0.00    +0.000 F 
BRANCH  29  32
ATOM     32  C   UNK A   0       6.460   4.457  15.009  0.00  0.00    +0.000 C 
ATOM     33  F   UNK A   0       5.549   5.170  14.285  0.00  0.00    +0.000 F 
ATOM     34  F   UNK A   0       7.660   4.681  14.411  0.00  0.00    +0.000 F 
ATOM     35  F   UNK A   0       6.161   3.149  14.785  0.00  0.00    +0.000 F 
ENDBRANCH  29  32
ENDBRANCH   6  25
TORSDOF 7
ENDMDL
MODEL 4
REMARK VINA RESULT:      -7.8      3.251      4.054
REMARK  Name = 
REMARK  8 active torsions:
REMARK  status: ('A' for Active; 'I' for Inactive)
REMARK    1  A    between atoms: CB_1  and  CA_2
REMARK    2  A    between atoms: CA_2  and  N_3
REMARK    3  A    between atoms: CA_2  and  C_30
REMARK    4  A    between atoms: N_3  and  C_4
REMARK    5  A    between atoms: C_7  and  C_8
REMARK    6  A    between atoms: C_13  and  C_14
REMARK    7  A    between atoms: C_18  and  C_19
REMARK    8  A    between atoms: C_30  and  OXT_32
REMARK                            x       y       z     vdW  Elec       q    Type
REMARK                         _______ _______ _______ _____ _____    ______ ____
ROOT
ATOM      1  C   UNK A   0       1.475   8.675  20.224  0.00  0.00    +0.000 C 
ATOM      2  O   UNK A   0       2.195   9.116  19.337  0.00  0.00    +0.000 OA
ATOM      3  N   UNK A   0       1.469   7.396  20.724  0.00  0.00    +0.000 N 
ATOM      4  C   UNK A   0       2.313   6.428  20.254  0.00  0.00    +0.000 A 
ATOM      5  N   UNK A   0       3.327   6.518  19.433  0.00  0.00    +0.000 NA
ATOM      6  C   UNK A   0       3.908   5.267  19.268  0.00  0.00    +0.000 A 
ATOM      7  C   UNK A   0       3.231   4.239  19.903  0.00  0.00    +0.000 A 
ATOM      8  S   UNK A   0       1.954   4.872  20.853  0.00  0.00    +0.000 S 
ATOM      9  H   UNK A   0       0.842   7.103  21.456  0.00  0.00    +0.000 HD
ENDROOT
BRANCH   1  13
ATOM     10  C   UNK A   0      -1.216  11.333  22.183  0.00  0.00    +0.000 A 
ATOM     11  N   UNK A   0      -0.308  10.620  22.889  0.00  0.00    +0.000 NA
ATOM     12  C   UNK A   0       0.530   9.796  22.200  0.00  0.00    +0.000 A 
ATOM     13  C   UNK A   0       0.489   9.611  20.825  0.00  0.00    +0.000 A 
ATOM     14  C   UNK A   0      -0.441  10.356  20.101  0.00  0.00    +0.000 A 
ATOM     15  C   UNK A   0      -1.284  11.242  20.783  0.00  0.00    +0.000 A 
ATOM     16 CL   UNK A   0      -2.400  12.186  19.862  0.00  0.00    +0.000 Cl
BRANCH  10  17
ATOM     17  N   ALA A   1      -2.065  12.169  22.900  0.00  0.00    +0.000 N 
ATOM     18  H   ALA A   1      -2.947  12.319  22.413  0.00  0.00    +0.000 HD
BRANCH  17  20
ATOM     19  CB  ALA A   1      -2.678  14.212  24.071  0.00  0.00    +0.000 C 
ATOM     20  CA  ALA A   1      -1.512  13.383  23.532  0.00  0.00    +0.000 C 
BRANCH  20  21
ATOM     21  C   ALA A   1      -0.658  14.230  22.570  0.00  0.00    +0.000 C 
ATOM     22  O   ALA A   1       0.565  14.245  22.550  0.00  0.00    +0.000 OA
BRANCH  21  23
ATOM     23  OXT ALA A   1      -1.387  14.964  21.695  0.00  0.00    +0.000 OA
ATOM     24  HXT ALA A   1      -1.856  14.375  21.055  0.00  0.00    +0.000 HD
ENDBRANCH  21  23
ENDBRANCH  20  21
ENDBRANCH  17  20
ENDBRANCH  10  17
ENDBRANCH   1  13
BRANCH   6  25
ATOM     25  C   UNK A   0       5.124   5.095  18.479  0.00  0.00    +0.000 A 
ATOM     26  C   UNK A   0       6.379   5.231  19.085  0.00  0.00    +0.000 A 
ATOM     27  C   UNK A   0       7.554   5.041  18.351  0.00  0.00    +0.000 A 
ATOM     28  C   UNK A   0       7.486   4.701  17.000  0.00  0.00    +0.000 A 
ATOM     29  C   UNK A   0       6.240   4.552  16.373  0.00  0.00    +0.000 A 
ATOM     30  C   UNK A   0       5.078   4.744  17.123  0.00  0.00    +0.000 A 
ATOM     31  F   UNK A   0       3.900   4.564  16.501  0.00  0.00    +0.000 F 
BRANCH  29  32
ATOM     32  C   UNK A   0       6.117   4.166  14.929  0.00  0.00    +0.000 C 
ATOM     33  F   UNK A   0       7.263   4.373  14.218  0.00  0.00    +0.000 F 
ATOM     34  F   UNK A   0       5.810   2.853  14.755  0.00  0.00    +0.000 F 
ATOM     35  F   UNK A   0       5.151   4.872  14.281  0.00  0.00    +0.000 F 
ENDBRANCH  29  32
ENDBRANCH   6  25
TORSDOF 7
ENDMDL
MODEL 5
REMARK VINA RESULT:      -7.8      3.172      3.906
REMARK  Name = 
REMARK  8 active torsions:
REMARK  status: ('A' for Active; 'I' for Inactive)
REMARK    1  A    between atoms: CB_1  and  CA_2
REMARK    2  A    between atoms: CA_2  and  N_3
REMARK    3  A    between atoms: CA_2  and  C_30
REMARK    4  A    between atoms: N_3  and  C_4
REMARK    5  A    between atoms: C_7  and  C_8
REMARK    6  A    between atoms: C_13  and  C_14
REMARK    7  A    between atoms: C_18  and  C_19
REMARK    8  A    between atoms: C_30  and  OXT_32
REMARK                            x       y       z     vdW  Elec       q    Type
REMARK                         _______ _______ _______ _____ _____    ______ ____
ROOT
ATOM      1  C   UNK A   0       1.398   8.978  19.752  0.00  0.00    +0.000 C 
ATOM      2  O   UNK A   0       2.150   9.341  18.857  0.00  0.00    +0.000 OA
ATOM      3  N   UNK A   0       1.381   7.755  20.374  0.00  0.00    +0.000 N 
ATOM      4  C   UNK A   0       2.252   6.755  20.034  0.00  0.00    +0.000 A 
ATOM      5  N   UNK A   0       3.297   6.777  19.249  0.00  0.00    +0.000 NA
ATOM      6  C   UNK A   0       3.894   5.523  19.230  0.00  0.00    +0.000 A 
ATOM      7  C   UNK A   0       3.201   4.553  19.934  0.00  0.00    +0.000 A 
ATOM      8  S   UNK A   0       1.880   5.261  20.766  0.00  0.00    +0.000 S 
ATOM      9  H   UNK A   0       0.728   7.526  21.105  0.00  0.00    +0.000 HD
ENDROOT
BRANCH   1  13
ATOM     10  C   UNK A   0      -1.360  11.825  21.313  0.00  0.00    +0.000 A 
ATOM     11  N   UNK A   0      -0.331  11.370  22.066  0.00  0.00    +0.000 NA
ATOM     12  C   UNK A   0       0.521  10.469  21.503  0.00  0.00    +0.000 A 
ATOM     13  C   UNK A   0       0.382   9.957  20.220  0.00  0.00    +0.000 A 
ATOM     14  C   UNK A   0      -0.673  10.437  19.445  0.00  0.00    +0.000 A 
ATOM     15  C   UNK A   0      -1.537  11.396  19.987  0.00  0.00    +0.000 A 
ATOM     16 CL   UNK A   0      -2.812  12.008  18.994  0.00  0.00    +0.000 Cl
BRANCH  10  17
ATOM     17  N   ALA A   1      -2.222  12.744  21.902  0.00  0.00    +0.000 N 
ATOM     18  H   ALA A   1      -2.234  13.628  21.396  0.00  0.00    +0.000 HD
BRANCH  17  20
ATOM     19  CB  ALA A   1      -3.605  12.497  23.889  0.00  0.00    +0.000 C 
ATOM     20  CA  ALA A   1      -2.221  12.890  23.371  0.00  0.00    +0.000 C 
BRANCH  20  21
ATOM     21  C   ALA A   1      -1.863  14.314  23.837  0.00  0.00    +0.000 C 
ATOM     22  O   ALA A   1      -2.666  15.131  24.263  0.00  0.00    +0.000 OA
BRANCH  21  23
ATOM     23  OXT ALA A   1      -0.540  14.596  23.763  0.00  0.00    +0.000 OA
ATOM     24  HXT ALA A   1      -0.085  14.346  24.604  0.00  0.00    +0.000 HD
ENDBRANCH  21  23
ENDBRANCH  20  21
ENDBRANCH  17  20
ENDBRANCH  10  17
ENDBRANCH   1  13
BRANCH   6  25
ATOM     25  C   UNK A   0       5.143   5.290  18.511  0.00  0.00    +0.000 A 
ATOM     26  C   UNK A   0       6.365   5.339  19.192  0.00  0.00    +0.000 A 
ATOM     27  C   UNK A   0       7.569   5.090  18.524  0.00  0.00    +0.000 A 
ATOM     28  C   UNK A   0       7.561   4.776  17.165  0.00  0.00    +0.000 A 
ATOM     29  C   UNK A   0       6.349   4.713  16.463  0.00  0.00    +0.000 A 
ATOM     30  C   UNK A   0       5.158   4.964  17.147  0.00  0.00    +0.000 A 
ATOM     31  F   UNK A   0       4.010   4.867  16.454  0.00  0.00    +0.000 F 
BRANCH  29  32
ATOM     32  C   UNK A   0       6.289   4.359  15.007  0.00  0.00    +0.000 C 
ATOM     33  F   UNK A   0       5.992   3.045  14.786  0.00  0.00    +0.000 F 
ATOM     34  F   UNK A   0       5.348   5.066  14.327  0.00  0.00    +0.000 F 
ATOM     35  F   UNK A   0       7.469   4.580  14.368  0.00  0.00    +0.000 F 
ENDBRANCH  29  32
ENDBRANCH   6  25
TORSDOF 7
ENDMDL
MODEL 6
REMARK VINA RESULT:      -7.8      2.304      2.599
REMARK  Name = 
REMARK  8 active torsions:
REMARK  status: ('A' for Active; 'I' for Inactive)
REMARK    1  A    between atoms: CB_1  and  CA_2
REMARK    2  A    between atoms: CA_2  and  N_3
REMARK    3  A    between atoms: CA_2  and  C_30
REMARK    4  A    between atoms: N_3  and  C_4
REMARK    5  A    between atoms: C_7  and  C_8
REMARK    6  A    between atoms: C_13  and  C_14
REMARK    7  A    between atoms: C_18  and  C_19
REMARK    8  A    between atoms: C_30  and  OXT_32
REMARK                            x       y       z     vdW  Elec       q    Type
REMARK                         _______ _______ _______ _____ _____    ______ ____
ROOT
ATOM      1  C   UNK A   0       0.294  10.441  21.602  0.00  0.00    +0.000 C 
ATOM      2  O   UNK A   0       0.802   9.652  22.390  0.00  0.00    +0.000 OA
ATOM      3  N   UNK A   0       0.387  10.418  20.233  0.00  0.00    +0.000 N 
ATOM      4  C   UNK A   0       1.101   9.457  19.570  0.00  0.00    +0.000 A 
ATOM      5  N   UNK A   0       1.659   8.362  20.015  0.00  0.00    +0.000 NA
ATOM      6  C   UNK A   0       2.255   7.680  18.962  0.00  0.00    +0.000 A 
ATOM      7  C   UNK A   0       2.214   8.354  17.753  0.00  0.00    +0.000 A 
ATOM      8  S   UNK A   0       1.272   9.777  17.903  0.00  0.00    +0.000 S 
ATOM      9  H   UNK A   0      -0.058  11.105  19.647  0.00  0.00    +0.000 HD
ENDROOT
BRANCH   1  13
ATOM     10  C   UNK A   0      -1.843  13.804  23.109  0.00  0.00    +0.000 A 
ATOM     11  N   UNK A   0      -0.716  13.968  22.378  0.00  0.00    +0.000 NA
ATOM     12  C   UNK A   0      -0.087  12.852  21.917  0.00  0.00    +0.000 A 
ATOM     13  C   UNK A   0      -0.505  11.554  22.179  0.00  0.00    +0.000 A 
ATOM     14  C   UNK A   0      -1.673  11.390  22.923  0.00  0.00    +0.000 A 
ATOM     15  C   UNK A   0      -2.361  12.525  23.371  0.00  0.00    +0.000 A 
ATOM     16 CL   UNK A   0      -3.828  12.299  24.254  0.00  0.00    +0.000 Cl
BRANCH  10  17
ATOM     17  N   ALA A   1      -2.474  14.953  23.573  0.00  0.00    +0.000 N 
ATOM     18  H   ALA A   1      -2.272  15.759  22.983  0.00  0.00    +0.000 HD
BRANCH  17  20
ATOM     19  CB  ALA A   1      -3.496  16.334  25.297  0.00  0.00    +0.000 C 
ATOM     20  CA  ALA A   1      -2.457  15.247  25.020  0.00  0.00    +0.000 C 
BRANCH  20  21
ATOM     21  C   ALA A   1      -1.074  15.692  25.530  0.00  0.00    +0.000 C 
ATOM     22  O   ALA A   1      -0.737  15.716  26.705  0.00  0.00    +0.000 OA
BRANCH  21  23
ATOM     23  OXT ALA A   1      -0.214  16.041  24.543  0.00  0.00    +0.000 OA
ATOM     24  HXT ALA A   1       0.409  16.741  24.857  0.00  0.00    +0.000 HD
ENDBRANCH  21  23
ENDBRANCH  20  21
ENDBRANCH  17  20
ENDBRANCH  10  17
ENDBRANCH   1  13
BRANCH   6  25
ATOM     25  C   UNK A   0       2.867   6.368  19.159  0.00  0.00    +0.000 A 
ATOM     26  C   UNK A   0       4.054   6.041  18.493  0.00  0.00    +0.000 A 
ATOM     27  C   UNK A   0       4.669   4.801  18.692  0.00  0.00    +0.000 A 
ATOM     28  C   UNK A   0       4.106   3.875  19.571  0.00  0.00    +0.000 A 
ATOM     29  C   UNK A   0       2.921   4.184  20.255  0.00  0.00    +0.000 A 
ATOM     30  C   UNK A   0       2.322   5.427  20.044  0.00  0.00    +0.000 A 
ATOM     31  F   UNK A   0       1.204   5.705  20.736  0.00  0.00    +0.000 F 
BRANCH  29  32
ATOM     32  C   UNK A   0       2.290   3.230  21.225  0.00  0.00    +0.000 C 
ATOM     33  F   UNK A   0       1.006   2.902  20.898  0.00  0.00    +0.000 F 
ATOM     34  F   UNK A   0       2.958   2.050  21.319  0.00  0.00    +0.000 F 
ATOM     35  F   UNK A   0       2.229   3.734  22.487  0.00  0.00    +0.000 F 
ENDBRANCH  29  32
ENDBRANCH   6  25
TORSDOF 7
ENDMDL
MODEL 7
REMARK VINA RESULT:      -7.7      5.418     10.981
REMARK  Name = 
REMARK  8 active torsions:
REMARK  status: ('A' for Active; 'I' for Inactive)
REMARK    1  A    between atoms: CB_1  and  CA_2
REMARK    2  A    between atoms: CA_2  and  N_3
REMARK    3  A    between atoms: CA_2  and  C_30
REMARK    4  A    between atoms: N_3  and  C_4
REMARK    5  A    between atoms: C_7  and  C_8
REMARK    6  A    between atoms: C_13  and  C_14
REMARK    7  A    between atoms: C_18  and  C_19
REMARK    8  A    between atoms: C_30  and  OXT_32
REMARK                            x       y       z     vdW  Elec       q    Type
REMARK                         _______ _______ _______ _____ _____    ______ ____
ROOT
ATOM      1  C   UNK A   0       1.434   8.670  19.945  0.00  0.00    +0.000 C 
ATOM      2  O   UNK A   0       1.584   8.848  21.147  0.00  0.00    +0.000 OA
ATOM      3  N   UNK A   0       0.642   9.400  19.093  0.00  0.00    +0.000 N 
ATOM      4  C   UNK A   0      -0.106  10.460  19.527  0.00  0.00    +0.000 A 
ATOM      5  N   UNK A   0      -0.115  11.070  20.683  0.00  0.00    +0.000 NA
ATOM      6  C   UNK A   0      -1.025  12.119  20.651  0.00  0.00    +0.000 A 
ATOM      7  C   UNK A   0      -1.761  12.197  19.480  0.00  0.00    +0.000 A 
ATOM      8  S   UNK A   0      -1.186  11.049  18.345  0.00  0.00    +0.000 S 
ATOM      9  H   UNK A   0       0.566   9.192  18.111  0.00  0.00    +0.000 HD
ENDROOT
BRANCH   1  13
ATOM     10  C   UNK A   0       3.661   5.602  18.002  0.00  0.00    +0.000 A 
ATOM     11  N   UNK A   0       3.551   6.834  17.452  0.00  0.00    +0.000 NA
ATOM     12  C   UNK A   0       2.834   7.772  18.131  0.00  0.00    +0.000 A 
ATOM     13  C   UNK A   0       2.176   7.538  19.330  0.00  0.00    +0.000 A 
ATOM     14  C   UNK A   0       2.301   6.270  19.898  0.00  0.00    +0.000 A 
ATOM     15  C   UNK A   0       3.070   5.302  19.240  0.00  0.00    +0.000 A 
ATOM     16 CL   UNK A   0       3.246   3.752  19.982  0.00  0.00    +0.000 Cl
BRANCH  10  17
ATOM     17  N   ALA A   1       4.395   4.655  17.297  0.00  0.00    +0.000 N 
ATOM     18  H   ALA A   1       4.500   3.789  17.825  0.00  0.00    +0.000 HD
BRANCH  17  20
ATOM     19  CB  ALA A   1       5.507   4.617  15.133  0.00  0.00    +0.000 C 
ATOM     20  CA  ALA A   1       5.618   5.078  16.587  0.00  0.00    +0.000 C 
BRANCH  20  21
ATOM     21  C   ALA A   1       6.908   4.525  17.221  0.00  0.00    +0.000 C 
ATOM     22  O   ALA A   1       7.987   4.441  16.652  0.00  0.00    +0.000 OA
BRANCH  21  23
ATOM     23  OXT ALA A   1       6.763   4.150  18.515  0.00  0.00    +0.000 OA
ATOM     24  HXT ALA A   1       6.015   3.510  18.609  0.00  0.00    +0.000 HD
ENDBRANCH  21  23
ENDBRANCH  20  21
ENDBRANCH  17  20
ENDBRANCH  10  17
ENDBRANCH   1  13
BRANCH   6  25
ATOM     25  C   UNK A   0      -1.167  13.034  21.780  0.00  0.00    +0.000 A 
ATOM     26  C   UNK A   0      -0.201  14.021  22.009  0.00  0.00    +0.000 A 
ATOM     27  C   UNK A   0      -0.336  14.923  23.069  0.00  0.00    +0.000 A 
ATOM     28  C   UNK A   0      -1.449  14.854  23.908  0.00  0.00    +0.000 A 
ATOM     29  C   UNK A   0      -2.433  13.879  23.694  0.00  0.00    +0.000 A 
ATOM     30  C   UNK A   0      -2.281  12.988  22.630  0.00  0.00    +0.000 A 
ATOM     31  F   UNK A   0      -3.256  12.083  22.432  0.00  0.00    +0.000 F 
BRANCH  29  32
ATOM     32  C   UNK A   0      -3.656  13.779  24.555  0.00  0.00    +0.000 C 
ATOM     33  F   UNK A   0      -3.593  14.563  25.671  0.00  0.00    +0.000 F 
ATOM     34  F   UNK A   0      -4.792  14.153  23.909  0.00  0.00    +0.000 F 
ATOM     35  F   UNK A   0      -3.874  12.515  25.008  0.00  0.00    +0.000 F 
ENDBRANCH  29  32
ENDBRANCH   6  25
TORSDOF 7
ENDMDL
MODEL 8
REMARK VINA RESULT:      -7.7      1.908      2.244
REMARK  Name = 
REMARK  8 active torsions:
REMARK  status: ('A' for Active; 'I' for Inactive)
REMARK    1  A    between atoms: CB_1  and  CA_2
REMARK    2  A    between atoms: CA_2  and  N_3
REMARK    3  A    between atoms: CA_2  and  C_30
REMARK    4  A    between atoms: N_3  and  C_4
REMARK    5  A    between atoms: C_7  and  C_8
REMARK    6  A    between atoms: C_13  and  C_14
REMARK    7  A    between atoms: C_18  and  C_19
REMARK    8  A    between atoms: C_30  and  OXT_32
REMARK                            x       y       z     vdW  Elec       q    Type
REMARK                         _______ _______ _______ _____ _____    ______ ____
ROOT
ATOM      1  C   UNK A   0       0.083  10.588  21.792  0.00  0.00    +0.000 C 
ATOM      2  O   UNK A   0       0.591   9.759  22.537  0.00  0.00    +0.000 OA
ATOM      3  N   UNK A   0       0.185  10.644  20.425  0.00  0.00    +0.000 N 
ATOM      4  C   UNK A   0       0.910   9.727  19.713  0.00  0.00    +0.000 A 
ATOM      5  N   UNK A   0       1.471   8.611  20.099  0.00  0.00    +0.000 NA
ATOM      6  C   UNK A   0       2.078   7.993  19.013  0.00  0.00    +0.000 A 
ATOM      7  C   UNK A   0       2.041   8.734  17.844  0.00  0.00    +0.000 A 
ATOM      8  S   UNK A   0       1.089  10.141  18.068  0.00  0.00    +0.000 S 
ATOM      9  H   UNK A   0      -0.260  11.361  19.875  0.00  0.00    +0.000 HD
ENDROOT
BRANCH   1  13
ATOM     10  C   UNK A   0      -2.086  13.848  23.471  0.00  0.00    +0.000 A 
ATOM     11  N   UNK A   0      -0.959  14.061  22.750  0.00  0.00    +0.000 NA
ATOM     12  C   UNK A   0      -0.320  12.976  22.232  0.00  0.00    +0.000 A 
ATOM     13  C   UNK A   0      -0.726  11.662  22.426  0.00  0.00    +0.000 A 
ATOM     14  C   UNK A   0      -1.893  11.449  23.159  0.00  0.00    +0.000 A 
ATOM     15  C   UNK A   0      -2.591  12.553  23.665  0.00  0.00    +0.000 A 
ATOM     16 CL   UNK A   0      -4.057  12.267  24.534  0.00  0.00    +0.000 Cl
BRANCH  10  17
ATOM     17  N   ALA A   1      -2.727  14.966  23.994  0.00  0.00    +0.000 N 
ATOM     18  H   ALA A   1      -2.910  14.864  24.991  0.00  0.00    +0.000 HD
BRANCH  17  20
ATOM     19  CB  ALA A   1      -3.294  16.799  22.497  0.00  0.00    +0.000 C 
ATOM     20  CA  ALA A   1      -3.838  15.576  23.236  0.00  0.00    +0.000 C 
BRANCH  20  21
ATOM     21  C   ALA A   1      -5.027  15.980  24.128  0.00  0.00    +0.000 C 
ATOM     22  O   ALA A   1      -5.174  17.079  24.642  0.00  0.00    +0.000 OA
BRANCH  21  23
ATOM     23  OXT ALA A   1      -5.950  14.999  24.284  0.00  0.00    +0.000 OA
ATOM     24  HXT ALA A   1      -5.644  14.164  23.852  0.00  0.00    +0.000 HD
ENDBRANCH  21  23
ENDBRANCH  20  21
ENDBRANCH  17  20
ENDBRANCH  10  17
ENDBRANCH   1  13
BRANCH   6  25
ATOM     25  C   UNK A   0       2.697   6.676  19.139  0.00  0.00    +0.000 A 
ATOM     26  C   UNK A   0       3.851   6.370  18.409  0.00  0.00    +0.000 A 
ATOM     27  C   UNK A   0       4.473   5.125  18.539  0.00  0.00    +0.000 A 
ATOM     28  C   UNK A   0       3.950   4.171  19.414  0.00  0.00    +0.000 A 
ATOM     29  C   UNK A   0       2.799   4.458  20.162  0.00  0.00    +0.000 A 
ATOM     30  C   UNK A   0       2.193   5.707  20.019  0.00  0.00    +0.000 A 
ATOM     31  F   UNK A   0       1.109   5.963  20.771  0.00  0.00    +0.000 F 
BRANCH  29  32
ATOM     32  C   UNK A   0       2.214   3.474  21.131  0.00  0.00    +0.000 C 
ATOM     33  F   UNK A   0       0.886   3.239  20.921  0.00  0.00    +0.000 F 
ATOM     34  F   UNK A   0       2.814   2.256  21.078  0.00  0.00    +0.000 F 
ATOM     35  F   UNK A   0       2.312   3.891  22.421  0.00  0.00    +0.000 F 
ENDBRANCH  29  32
ENDBRANCH   6  25
TORSDOF 7
ENDMDL
MODEL 9
REMARK VINA RESULT:      -7.7      3.339      4.089
REMARK  Name = 
REMARK  8 active torsions:
REMARK  status: ('A' for Active; 'I' for Inactive)
REMARK    1  A    between atoms: CB_1  and  CA_2
REMARK    2  A    between atoms: CA_2  and  N_3
REMARK    3  A    between atoms: CA_2  and  C_30
REMARK    4  A    between atoms: N_3  and  C_4
REMARK    5  A    between atoms: C_7  and  C_8
REMARK    6  A    between atoms: C_13  and  C_14
REMARK    7  A    between atoms: C_18  and  C_19
REMARK    8  A    between atoms: C_30  and  OXT_32
REMARK                            x       y       z     vdW  Elec       q    Type
REMARK                         _______ _______ _______ _____ _____    ______ ____
ROOT
ATOM      1  C   UNK A   0       1.321   9.173  19.152  0.00  0.00    +0.000 C 
ATOM      2  O   UNK A   0       2.077   9.416  18.220  0.00  0.00    +0.000 OA
ATOM      3  N   UNK A   0       1.321   8.054  19.947  0.00  0.00    +0.000 N 
ATOM      4  C   UNK A   0       2.216   7.035  19.766  0.00  0.00    +0.000 A 
ATOM      5  N   UNK A   0       3.270   6.964  18.996  0.00  0.00    +0.000 NA
ATOM      6  C   UNK A   0       3.893   5.734  19.168  0.00  0.00    +0.000 A 
ATOM      7  C   UNK A   0       3.210   4.863  20.000  0.00  0.00    +0.000 A 
ATOM      8  S   UNK A   0       1.865   5.656  20.706  0.00  0.00    +0.000 S 
ATOM      9  H   UNK A   0       0.663   7.921  20.697  0.00  0.00    +0.000 HD
ENDROOT
BRANCH   1  13
ATOM     10  C   UNK A   0      -1.754  12.053  19.780  0.00  0.00    +0.000 A 
ATOM     11  N   UNK A   0      -1.483  11.586  18.539  0.00  0.00    +0.000 NA
ATOM     12  C   UNK A   0      -0.495  10.658  18.409  0.00  0.00    +0.000 A 
ATOM     13  C   UNK A   0       0.279  10.187  19.461  0.00  0.00    +0.000 A 
ATOM     14  C   UNK A   0      -0.011  10.663  20.739  0.00  0.00    +0.000 A 
ATOM     15  C   UNK A   0      -1.052  11.586  20.903  0.00  0.00    +0.000 A 
ATOM     16 CL   UNK A   0      -1.421  12.129  22.501  0.00  0.00    +0.000 Cl
BRANCH  10  17
ATOM     17  N   ALA A   1      -2.765  13.000  19.897  0.00  0.00    +0.000 N 
ATOM     18  H   ALA A   1      -2.437  13.849  20.354  0.00  0.00    +0.000 HD
BRANCH  17  20
ATOM     19  CB  ALA A   1      -4.937  12.271  19.077  0.00  0.00    +0.000 C 
ATOM     20  CA  ALA A   1      -4.109  12.566  20.328  0.00  0.00    +0.000 C 
BRANCH  20  21
ATOM     21  C   ALA A   1      -4.828  13.607  21.207  0.00  0.00    +0.000 C 
ATOM     22  O   ALA A   1      -5.369  14.621  20.788  0.00  0.00    +0.000 OA
BRANCH  21  23
ATOM     23  OXT ALA A   1      -4.842  13.293  22.524  0.00  0.00    +0.000 OA
ATOM     24  HXT ALA A   1      -5.746  13.004  22.802  0.00  0.00    +0.000 HD
ENDBRANCH  21  23
ENDBRANCH  20  21
ENDBRANCH  17  20
ENDBRANCH  10  17
ENDBRANCH   1  13
BRANCH   6  25
ATOM     25  C   UNK A   0       5.155   5.424  18.502  0.00  0.00    +0.000 A 
ATOM     26  C   UNK A   0       6.345   5.388  19.238  0.00  0.00    +0.000 A 
ATOM     27  C   UNK A   0       7.559   5.065  18.623  0.00  0.00    +0.000 A 
ATOM     28  C   UNK A   0       7.593   4.764  17.261  0.00  0.00    +0.000 A 
ATOM     29  C   UNK A   0       6.412   4.786  16.505  0.00  0.00    +0.000 A 
ATOM     30  C   UNK A   0       5.211   5.109  17.137  0.00  0.00    +0.000 A 
ATOM     31  F   UNK A   0       4.092   5.094  16.393  0.00  0.00    +0.000 F 
BRANCH  29  32
ATOM     32  C   UNK A   0       6.396   4.448  15.044  0.00  0.00    +0.000 C 
ATOM     33  F   UNK A   0       7.594   4.669  14.428  0.00  0.00    +0.000 F 
ATOM     34  F   UNK A   0       6.095   3.145  14.804  0.00  0.00    +0.000 F 
ATOM     35  F   UNK A   0       5.486   5.183  14.349  0.00  0.00    +0.000 F 
ENDBRANCH  29  32
ENDBRANCH   6  25
TORSDOF 7
ENDMDL
