MODEL 1
REMARK VINA RESULT:      -6.6      0.000      0.000
REMARK  Name = 
REMARK  7 active torsions:
REMARK  status: ('A' for Active; 'I' for Inactive)
REMARK    1  A    between atoms: C_1  and  C_2
REMARK    2  A    between atoms: C_8  and  N_9
REMARK    3  A    between atoms: C_10  and  S_11
REMARK    4  A    between atoms: N_12  and  C_13
REMARK    5  A    between atoms: C_13  and  C_14
REMARK    6  A    between atoms: C_14  and  C_15
REMARK    7  A    between atoms: C_15  and  O_17
REMARK                            x       y       z     vdW  Elec       q    Type
REMARK                         _______ _______ _______ _____ _____    ______ ____
ROOT
ATOM      1  N   UNL     1       5.593   3.983  17.403  0.00  0.00    +0.000 NA
ATOM      2  C   UNL     1       4.629   4.571  18.060  0.00  0.00    +0.000 C 
ATOM      3  N   UNL     1       4.302   4.054  19.284  0.00  0.00    +0.000 N 
ATOM      4  H   UNL     1       4.935   3.320  19.603  0.00  0.00    +0.000 HD
ENDROOT
BRANCH   1  12
ATOM      5  C   UNL     1       7.458   6.219  17.136  0.00  0.00    +0.000 C 
ATOM      6  C   UNL     1       7.011   5.371  15.976  0.00  0.00    +0.000 A 
ATOM      7  C   UNL     1       7.589   5.622  14.716  0.00  0.00    +0.000 A 
ATOM      8  C   UNL     1       7.192   4.896  13.596  0.00  0.00    +0.000 A 
ATOM      9  C   UNL     1       6.167   3.970  13.718  0.00  0.00    +0.000 A 
ATOM     10 CL   UNL     1       5.668   3.058  12.348  0.00  0.00    +0.000 Cl
ATOM     11  C   UNL     1       5.567   3.735  14.953  0.00  0.00    +0.000 A 
ATOM     12  C   UNL     1       6.057   4.339  16.119  0.00  0.00    +0.000 A 
ENDBRANCH   1  12
BRANCH   2  13
ATOM     13  S   UNL     1       3.694   5.962  17.523  0.00  0.00    +0.000 S 
ATOM     14  H   UNL     1       3.423   6.483  18.721  0.00  0.00    +0.000 HD
ENDBRANCH   2  13
BRANCH   3  15
ATOM     15  C   UNL     1       3.195   4.388  20.162  0.00  0.00    +0.000 C 
BRANCH  15  16
ATOM     16  C   UNL     1       2.144   3.270  20.206  0.00  0.00    +0.000 C 
ATOM     17  C   UNL     1       0.732   3.795  19.758  0.00  0.00    +0.000 C 
ATOM     18  C   UNL     1       0.513   2.444  19.054  0.00  0.00    +0.000 C 
ATOM     19  C   UNL     1       2.041   2.316  18.960  0.00  0.00    +0.000 C 
BRANCH  16  20
ATOM     20  C   UNL     1       2.172   2.573  21.616  0.00  0.00    +0.000 C 
ATOM     21  O   UNL     1       1.238   2.486  22.402  0.00  0.00    +0.000 OA
BRANCH  20  22
ATOM     22  O   UNL     1       3.393   2.068  21.961  0.00  0.00    +0.000 OA
ATOM     23  H   UNL     1       3.340   1.351  22.624  0.00  0.00    +0.000 HD
ENDBRANCH  20  22
ENDBRANCH  16  20
ENDBRANCH  15  16
ENDBRANCH   3  15
TORSDOF 6
ENDMDL
MODEL 2
REMARK VINA RESULT:      -6.6      1.541      1.969
REMARK  Name = 
REMARK  7 active torsions:
REMARK  status: ('A' for Active; 'I' for Inactive)
REMARK    1  A    between atoms: C_1  and  C_2
REMARK    2  A    between atoms: C_8  and  N_9
REMARK    3  A    between atoms: C_10  and  S_11
REMARK    4  A    between atoms: N_12  and  C_13
REMARK    5  A    between atoms: C_13  and  C_14
REMARK    6  A    between atoms: C_14  and  C_15
REMARK    7  A    between atoms: C_15  and  O_17
REMARK                            x       y       z     vdW  Elec       q    Type
REMARK                         _______ _______ _______ _____ _____    ______ ____
ROOT
ATOM      1  N   UNL     1       5.478   3.660  16.576  0.00  0.00    +0.000 NA
ATOM      2  C   UNL     1       4.799   4.427  17.386  0.00  0.00    +0.000 C 
ATOM      3  N   UNL     1       4.475   3.910  18.611  0.00  0.00    +0.000 N 
ATOM      4  H   UNL     1       4.905   3.005  18.803  0.00  0.00    +0.000 HD
ENDROOT
BRANCH   1  12
ATOM      5  C   UNL     1       7.716   5.503  16.198  0.00  0.00    +0.000 C 
ATOM      6  C   UNL     1       7.002   4.824  15.061  0.00  0.00    +0.000 A 
ATOM      7  C   UNL     1       7.497   5.028  13.758  0.00  0.00    +0.000 A 
ATOM      8  C   UNL     1       6.860   4.457  12.659  0.00  0.00    +0.000 A 
ATOM      9  C   UNL     1       5.687   3.741  12.854  0.00  0.00    +0.000 A 
ATOM     10 CL   UNL     1       4.889   3.021  11.510  0.00  0.00    +0.000 Cl
ATOM     11  C   UNL     1       5.172   3.558  14.135  0.00  0.00    +0.000 A 
ATOM     12  C   UNL     1       5.880   3.990  15.265  0.00  0.00    +0.000 A 
ENDBRANCH   1  12
BRANCH   2  13
ATOM     13  S   UNL     1       4.243   6.064  17.055  0.00  0.00    +0.000 S 
ATOM     14  H   UNL     1       3.473   5.794  16.000  0.00  0.00    +0.000 HD
ENDBRANCH   2  13
BRANCH   3  15
ATOM     15  C   UNL     1       3.612   4.454  19.643  0.00  0.00    +0.000 C 
BRANCH  15  16
ATOM     16  C   UNL     1       2.424   3.528  19.941  0.00  0.00    +0.000 C 
ATOM     17  C   UNL     1       2.699   2.633  21.204  0.00  0.00    +0.000 C 
ATOM     18  C   UNL     1       1.218   2.810  21.585  0.00  0.00    +0.000 C 
ATOM     19  C   UNL     1       1.232   4.119  20.780  0.00  0.00    +0.000 C 
BRANCH  16  20
ATOM     20  C   UNL     1       2.034   2.732  18.642  0.00  0.00    +0.000 C 
ATOM     21  O   UNL     1       1.392   3.160  17.693  0.00  0.00    +0.000 OA
BRANCH  20  22
ATOM     22  O   UNL     1       2.445   1.430  18.646  0.00  0.00    +0.000 OA
ATOM     23  H   UNL     1       1.880   0.849  19.193  0.00  0.00    +0.000 HD
ENDBRANCH  20  22
ENDBRANCH  16  20
ENDBRANCH  15  16
ENDBRANCH   3  15
TORSDOF 6
ENDMDL
MODEL 3
REMARK VINA RESULT:      -6.3      5.178      6.238
REMARK  Name = 
REMARK  7 active torsions:
REMARK  status: ('A' for Active; 'I' for Inactive)
REMARK    1  A    between atoms: C_1  and  C_2
REMARK    2  A    between atoms: C_8  and  N_9
REMARK    3  A    between atoms: C_10  and  S_11
REMARK    4  A    between atoms: N_12  and  C_13
REMARK    5  A    between atoms: C_13  and  C_14
REMARK    6  A    between atoms: C_14  and  C_15
REMARK    7  A    between atoms: C_15  and  O_17
REMARK                            x       y       z     vdW  Elec       q    Type
REMARK                         _______ _______ _______ _____ _____    ______ ____
ROOT
ATOM      1  N   UNL     1       2.863   6.222  19.548  0.00  0.00    +0.000 NA
ATOM      2  C   UNL     1       2.430   7.408  19.213  0.00  0.00    +0.000 C 
ATOM      3  N   UNL     1       1.635   8.059  20.117  0.00  0.00    +0.000 N 
ATOM      4  H   UNL     1       1.559   7.584  21.016  0.00  0.00    +0.000 HD
ENDROOT
BRANCH   1  12
ATOM      5  C   UNL     1       1.562   4.278  17.793  0.00  0.00    +0.000 C 
ATOM      6  C   UNL     1       3.053   4.480  17.844  0.00  0.00    +0.000 A 
ATOM      7  C   UNL     1       3.846   3.749  16.938  0.00  0.00    +0.000 A 
ATOM      8  C   UNL     1       5.234   3.863  16.959  0.00  0.00    +0.000 A 
ATOM      9  C   UNL     1       5.834   4.650  17.931  0.00  0.00    +0.000 A 
ATOM     10 CL   UNL     1       7.546   4.809  17.968  0.00  0.00    +0.000 Cl
ATOM     11  C   UNL     1       5.060   5.353  18.851  0.00  0.00    +0.000 A 
ATOM     12  C   UNL     1       3.662   5.377  18.749  0.00  0.00    +0.000 A 
ENDBRANCH   1  12
BRANCH   2  13
ATOM     13  S   UNL     1       2.757   8.253  17.704  0.00  0.00    +0.000 S 
ATOM     14  H   UNL     1       2.111   7.427  16.880  0.00  0.00    +0.000 HD
ENDBRANCH   2  13
BRANCH   3  15
ATOM     15  C   UNL     1       0.892   9.297  19.968  0.00  0.00    +0.000 C 
BRANCH  15  16
ATOM     16  C   UNL     1       0.508   9.899  21.327  0.00  0.00    +0.000 C 
ATOM     17  C   UNL     1      -0.583   9.028  22.050  0.00  0.00    +0.000 C 
ATOM     18  C   UNL     1       0.136   9.328  23.378  0.00  0.00    +0.000 C 
ATOM     19  C   UNL     1       1.418   9.551  22.562  0.00  0.00    +0.000 C 
BRANCH  16  20
ATOM     20  C   UNL     1       0.127  11.415  21.147  0.00  0.00    +0.000 C 
ATOM     21  O   UNL     1      -0.937  11.852  20.731  0.00  0.00    +0.000 OA
BRANCH  20  22
ATOM     22  O   UNL     1       1.135  12.280  21.463  0.00  0.00    +0.000 OA
ATOM     23  H   UNL     1       1.182  12.484  22.419  0.00  0.00    +0.000 HD
ENDBRANCH  20  22
ENDBRANCH  16  20
ENDBRANCH  15  16
ENDBRANCH   3  15
TORSDOF 6
ENDMDL
MODEL 4
REMARK VINA RESULT:      -6.3      5.194      6.761
REMARK  Name = 
REMARK  7 active torsions:
REMARK  status: ('A' for Active; 'I' for Inactive)
REMARK    1  A    between atoms: C_1  and  C_2
REMARK    2  A    between atoms: C_8  and  N_9
REMARK    3  A    between atoms: C_10  and  S_11
REMARK    4  A    between atoms: N_12  and  C_13
REMARK    5  A    between atoms: C_13  and  C_14
REMARK    6  A    between atoms: C_14  and  C_15
REMARK    7  A    between atoms: C_15  and  O_17
REMARK                            x       y       z     vdW  Elec       q    Type
REMARK                         _______ _______ _______ _____ _____    ______ ____
ROOT
ATOM      1  N   UNL     1       2.232   6.422  20.348  0.00  0.00    +0.000 NA
ATOM      2  C   UNL     1       1.953   7.549  19.750  0.00  0.00    +0.000 C 
ATOM      3  N   UNL     1       1.243   8.475  20.465  0.00  0.00    +0.000 N 
ATOM      4  H   UNL     1       1.104   8.222  21.443  0.00  0.00    +0.000 HD
ENDROOT
BRANCH   1  12
ATOM      5  C   UNL     1       0.864   3.848  20.104  0.00  0.00    +0.000 C 
ATOM      6  C   UNL     1       2.256   4.099  19.588  0.00  0.00    +0.000 A 
ATOM      7  C   UNL     1       2.891   3.060  18.880  0.00  0.00    +0.000 A 
ATOM      8  C   UNL     1       4.192   3.216  18.407  0.00  0.00    +0.000 A 
ATOM      9  C   UNL     1       4.885   4.381  18.704  0.00  0.00    +0.000 A 
ATOM     10 CL   UNL     1       6.490   4.595  18.124  0.00  0.00    +0.000 Cl
ATOM     11  C   UNL     1       4.277   5.402  19.429  0.00  0.00    +0.000 A 
ATOM     12  C   UNL     1       2.921   5.331  19.778  0.00  0.00    +0.000 A 
ENDBRANCH   1  12
BRANCH   2  13
ATOM     13  S   UNL     1       2.389   7.996  18.105  0.00  0.00    +0.000 S 
ATOM     14  H   UNL     1       1.963   6.892  17.489  0.00  0.00    +0.000 HD
ENDBRANCH   2  13
BRANCH   3  15
ATOM     15  C   UNL     1       0.661   9.731  20.027  0.00  0.00    +0.000 C 
BRANCH  15  16
ATOM     16  C   UNL     1       0.165  10.573  21.211  0.00  0.00    +0.000 C 
ATOM     17  C   UNL     1       0.880  11.972  21.257  0.00  0.00    +0.000 C 
ATOM     18  C   UNL     1      -0.461  12.583  21.703  0.00  0.00    +0.000 C 
ATOM     19  C   UNL     1      -1.158  11.402  21.011  0.00  0.00    +0.000 C 
BRANCH  16  20
ATOM     20  C   UNL     1       0.268   9.736  22.538  0.00  0.00    +0.000 C 
ATOM     21  O   UNL     1       1.235   9.676  23.286  0.00  0.00    +0.000 OA
BRANCH  20  22
ATOM     22  O   UNL     1      -0.843   8.992  22.812  0.00  0.00    +0.000 OA
ATOM     23  H   UNL     1      -1.178   8.499  22.037  0.00  0.00    +0.000 HD
ENDBRANCH  20  22
ENDBRANCH  16  20
ENDBRANCH  15  16
ENDBRANCH   3  15
TORSDOF 6
ENDMDL
MODEL 5
REMARK VINA RESULT:      -6.2      5.106      6.272
REMARK  Name = 
REMARK  7 active torsions:
REMARK  status: ('A' for Active; 'I' for Inactive)
REMARK    1  A    between atoms: C_1  and  C_2
REMARK    2  A    between atoms: C_8  and  N_9
REMARK    3  A    between atoms: C_10  and  S_11
REMARK    4  A    between atoms: N_12  and  C_13
REMARK    5  A    between atoms: C_13  and  C_14
REMARK    6  A    between atoms: C_14  and  C_15
REMARK    7  A    between atoms: C_15  and  O_17
REMARK                            x       y       z     vdW  Elec       q    Type
REMARK                         _______ _______ _______ _____ _____    ______ ____
ROOT
ATOM      1  N   UNL     1       2.647   6.536  19.515  0.00  0.00    +0.000 NA
ATOM      2  C   UNL     1       2.261   7.706  19.081  0.00  0.00    +0.000 C 
ATOM      3  N   UNL     1       1.399   8.412  19.875  0.00  0.00    +0.000 N 
ATOM      4  H   UNL     1       1.237   7.986  20.788  0.00  0.00    +0.000 HD
ENDROOT
BRANCH   1  12
ATOM      5  C   UNL     1       1.475   4.448  17.835  0.00  0.00    +0.000 C 
ATOM      6  C   UNL     1       2.958   4.671  17.965  0.00  0.00    +0.000 A 
ATOM      7  C   UNL     1       3.813   3.883  17.170  0.00  0.00    +0.000 A 
ATOM      8  C   UNL     1       5.196   4.015  17.270  0.00  0.00    +0.000 A 
ATOM      9  C   UNL     1       5.726   4.882  18.214  0.00  0.00    +0.000 A 
ATOM     10 CL   UNL     1       7.432   5.064  18.348  0.00  0.00    +0.000 Cl
ATOM     11  C   UNL     1       4.890   5.643  19.027  0.00  0.00    +0.000 A 
ATOM     12  C   UNL     1       3.502   5.642  18.836  0.00  0.00    +0.000 A 
ENDBRANCH   1  12
BRANCH   2  13
ATOM     13  S   UNL     1       2.730   8.466  17.564  0.00  0.00    +0.000 S 
ATOM     14  H   UNL     1       1.598   9.132  17.328  0.00  0.00    +0.000 HD
ENDBRANCH   2  13
BRANCH   3  15
ATOM     15  C   UNL     1       0.688   9.646  19.596  0.00  0.00    +0.000 C 
BRANCH  15  16
ATOM     16  C   UNL     1       0.380  10.430  20.879  0.00  0.00    +0.000 C 
ATOM     17  C   UNL     1       1.128  11.813  20.897  0.00  0.00    +0.000 C 
ATOM     18  C   UNL     1      -0.123  12.420  21.557  0.00  0.00    +0.000 C 
ATOM     19  C   UNL     1      -0.937  11.290  20.910  0.00  0.00    +0.000 C 
BRANCH  16  20
ATOM     20  C   UNL     1       0.648   9.521  22.134  0.00  0.00    +0.000 C 
ATOM     21  O   UNL     1       1.701   9.421  22.747  0.00  0.00    +0.000 OA
BRANCH  20  22
ATOM     22  O   UNL     1      -0.424   8.761  22.506  0.00  0.00    +0.000 OA
ATOM     23  H   UNL     1      -0.373   8.449  23.431  0.00  0.00    +0.000 HD
ENDBRANCH  20  22
ENDBRANCH  16  20
ENDBRANCH  15  16
ENDBRANCH   3  15
TORSDOF 6
ENDMDL
MODEL 6
REMARK VINA RESULT:      -6.2      5.462      7.577
REMARK  Name = 
REMARK  7 active torsions:
REMARK  status: ('A' for Active; 'I' for Inactive)
REMARK    1  A    between atoms: C_1  and  C_2
REMARK    2  A    between atoms: C_8  and  N_9
REMARK    3  A    between atoms: C_10  and  S_11
REMARK    4  A    between atoms: N_12  and  C_13
REMARK    5  A    between atoms: C_13  and  C_14
REMARK    6  A    between atoms: C_14  and  C_15
REMARK    7  A    between atoms: C_15  and  O_17
REMARK                            x       y       z     vdW  Elec       q    Type
REMARK                         _______ _______ _______ _____ _____    ______ ____
ROOT
ATOM      1  N   UNL     1       0.762   8.061  21.169  0.00  0.00    +0.000 NA
ATOM      2  C   UNL     1       1.576   7.543  20.289  0.00  0.00    +0.000 C 
ATOM      3  N   UNL     1       2.097   6.309  20.572  0.00  0.00    +0.000 N 
ATOM      4  H   UNL     1       1.696   5.873  21.402  0.00  0.00    +0.000 HD
ENDROOT
BRANCH   1  12
ATOM      5  C   UNL     1       0.090   9.483  23.634  0.00  0.00    +0.000 C 
ATOM      6  C   UNL     1      -0.121  10.062  22.261  0.00  0.00    +0.000 A 
ATOM      7  C   UNL     1      -0.589  11.387  22.170  0.00  0.00    +0.000 A 
ATOM      8  C   UNL     1      -0.839  11.968  20.930  0.00  0.00    +0.000 A 
ATOM      9  C   UNL     1      -0.691  11.203  19.782  0.00  0.00    +0.000 A 
ATOM     10 CL   UNL     1      -0.988  11.905  18.240  0.00  0.00    +0.000 Cl
ATOM     11  C   UNL     1      -0.258   9.882  19.861  0.00  0.00    +0.000 A 
ATOM     12  C   UNL     1       0.148   9.328  21.083  0.00  0.00    +0.000 A 
ENDBRANCH   1  12
BRANCH   2  13
ATOM     13  S   UNL     1       2.085   8.279  18.773  0.00  0.00    +0.000 S 
ATOM     14  H   UNL     1       3.224   7.605  18.608  0.00  0.00    +0.000 HD
ENDBRANCH   2  13
BRANCH   3  15
ATOM     15  C   UNL     1       3.127   5.560  19.875  0.00  0.00    +0.000 C 
BRANCH  15  16
ATOM     16  C   UNL     1       2.750   4.081  19.716  0.00  0.00    +0.000 C 
ATOM     17  C   UNL     1       2.136   3.797  18.297  0.00  0.00    +0.000 C 
ATOM     18  C   UNL     1       2.882   2.451  18.302  0.00  0.00    +0.000 C 
ATOM     19  C   UNL     1       3.884   3.082  19.282  0.00  0.00    +0.000 C 
BRANCH  16  20
ATOM     20  C   UNL     1       1.850   3.630  20.925  0.00  0.00    +0.000 C 
ATOM     21  O   UNL     1       2.227   3.413  22.069  0.00  0.00    +0.000 OA
BRANCH  20  22
ATOM     22  O   UNL     1       0.538   3.442  20.600  0.00  0.00    +0.000 OA
ATOM     23  H   UNL     1       0.397   3.279  19.645  0.00  0.00    +0.000 HD
ENDBRANCH  20  22
ENDBRANCH  16  20
ENDBRANCH  15  16
ENDBRANCH   3  15
TORSDOF 6
ENDMDL
MODEL 7
REMARK VINA RESULT:      -6.2      5.579      7.672
REMARK  Name = 
REMARK  7 active torsions:
REMARK  status: ('A' for Active; 'I' for Inactive)
REMARK    1  A    between atoms: C_1  and  C_2
REMARK    2  A    between atoms: C_8  and  N_9
REMARK    3  A    between atoms: C_10  and  S_11
REMARK    4  A    between atoms: N_12  and  C_13
REMARK    5  A    between atoms: C_13  and  C_14
REMARK    6  A    between atoms: C_14  and  C_15
REMARK    7  A    between atoms: C_15  and  O_17
REMARK                            x       y       z     vdW  Elec       q    Type
REMARK                         _______ _______ _______ _____ _____    ______ ____
ROOT
ATOM      1  N   UNL     1       1.046   8.166  20.850  0.00  0.00    +0.000 NA
ATOM      2  C   UNL     1       1.839   7.744  19.903  0.00  0.00    +0.000 C 
ATOM      3  N   UNL     1       2.517   6.577  20.133  0.00  0.00    +0.000 N 
ATOM      4  H   UNL     1       2.237   6.099  20.989  0.00  0.00    +0.000 HD
ENDROOT
BRANCH   1  12
ATOM      5  C   UNL     1       0.266   9.409  23.380  0.00  0.00    +0.000 C 
ATOM      6  C   UNL     1      -0.040  10.009  22.033  0.00  0.00    +0.000 A 
ATOM      7  C   UNL     1      -0.660  11.273  22.003  0.00  0.00    +0.000 A 
ATOM      8  C   UNL     1      -1.003  11.866  20.790  0.00  0.00    +0.000 A 
ATOM      9  C   UNL     1      -0.791  11.167  19.611  0.00  0.00    +0.000 A 
ATOM     10 CL   UNL     1      -1.201  11.885  18.103  0.00  0.00    +0.000 Cl
ATOM     11  C   UNL     1      -0.206   9.903  19.632  0.00  0.00    +0.000 A 
ATOM     12  C   UNL     1       0.287   9.356  20.824  0.00  0.00    +0.000 A 
ENDBRANCH   1  12
BRANCH   2  13
ATOM     13  S   UNL     1       2.137   8.531  18.357  0.00  0.00    +0.000 S 
ATOM     14  H   UNL     1       2.959   9.489  18.788  0.00  0.00    +0.000 HD
ENDBRANCH   2  13
BRANCH   3  15
ATOM     15  C   UNL     1       3.566   5.950  19.349  0.00  0.00    +0.000 C 
BRANCH  15  16
ATOM     16  C   UNL     1       3.115   4.605  18.763  0.00  0.00    +0.000 C 
ATOM     17  C   UNL     1       2.197   3.821  19.770  0.00  0.00    +0.000 C 
ATOM     18  C   UNL     1       1.360   3.358  18.564  0.00  0.00    +0.000 C 
ATOM     19  C   UNL     1       1.855   4.608  17.820  0.00  0.00    +0.000 C 
BRANCH  16  20
ATOM     20  C   UNL     1       4.366   3.803  18.250  0.00  0.00    +0.000 C 
ATOM     21  O   UNL     1       4.685   3.623  17.082  0.00  0.00    +0.000 OA
BRANCH  20  22
ATOM     22  O   UNL     1       5.112   3.242  19.247  0.00  0.00    +0.000 OA
ATOM     23  H   UNL     1       5.967   2.885  18.935  0.00  0.00    +0.000 HD
ENDBRANCH  20  22
ENDBRANCH  16  20
ENDBRANCH  15  16
ENDBRANCH   3  15
TORSDOF 6
ENDMDL
MODEL 8
REMARK VINA RESULT:      -6.0      4.424      7.463
REMARK  Name = 
REMARK  7 active torsions:
REMARK  status: ('A' for Active; 'I' for Inactive)
REMARK    1  A    between atoms: C_1  and  C_2
REMARK    2  A    between atoms: C_8  and  N_9
REMARK    3  A    between atoms: C_10  and  S_11
REMARK    4  A    between atoms: N_12  and  C_13
REMARK    5  A    between atoms: C_13  and  C_14
REMARK    6  A    between atoms: C_14  and  C_15
REMARK    7  A    between atoms: C_15  and  O_17
REMARK                            x       y       z     vdW  Elec       q    Type
REMARK                         _______ _______ _______ _____ _____    ______ ____
ROOT
ATOM      1  N   UNL     1       3.614   4.387  17.174  0.00  0.00    +0.000 NA
ATOM      2  C   UNL     1       4.869   4.371  16.814  0.00  0.00    +0.000 C 
ATOM      3  N   UNL     1       5.140   4.058  15.509  0.00  0.00    +0.000 N 
ATOM      4  H   UNL     1       4.309   3.980  14.923  0.00  0.00    +0.000 HD
ENDROOT
BRANCH   1  12
ATOM      5  C   UNL     1       3.097   7.155  17.961  0.00  0.00    +0.000 C 
ATOM      6  C   UNL     1       2.807   5.974  18.848  0.00  0.00    +0.000 A 
ATOM      7  C   UNL     1       2.178   6.220  20.084  0.00  0.00    +0.000 A 
ATOM      8  C   UNL     1       1.915   5.174  20.966  0.00  0.00    +0.000 A 
ATOM      9  C   UNL     1       2.344   3.895  20.646  0.00  0.00    +0.000 A 
ATOM     10 CL   UNL     1       2.023   2.589  21.718  0.00  0.00    +0.000 Cl
ATOM     11  C   UNL     1       2.994   3.646  19.439  0.00  0.00    +0.000 A 
ATOM     12  C   UNL     1       3.128   4.651  18.472  0.00  0.00    +0.000 A 
ENDBRANCH   1  12
BRANCH   2  13
ATOM     13  S   UNL     1       6.258   4.700  17.845  0.00  0.00    +0.000 S 
ATOM     14  H   UNL     1       6.565   3.440  18.157  0.00  0.00    +0.000 HD
ENDBRANCH   2  13
BRANCH   3  15
ATOM     15  C   UNL     1       6.418   3.814  14.865  0.00  0.00    +0.000 C 
BRANCH  15  16
ATOM     16  C   UNL     1       6.330   3.980  13.342  0.00  0.00    +0.000 C 
ATOM     17  C   UNL     1       6.380   2.589  12.611  0.00  0.00    +0.000 C 
ATOM     18  C   UNL     1       5.349   3.138  11.609  0.00  0.00    +0.000 C 
ATOM     19  C   UNL     1       4.898   4.116  12.705  0.00  0.00    +0.000 C 
BRANCH  16  20
ATOM     20  C   UNL     1       7.408   5.018  12.859  0.00  0.00    +0.000 C 
ATOM     21  O   UNL     1       7.695   5.281  11.699  0.00  0.00    +0.000 OA
BRANCH  20  22
ATOM     22  O   UNL     1       8.086   5.627  13.876  0.00  0.00    +0.000 OA
ATOM     23  H   UNL     1       8.776   6.245  13.563  0.00  0.00    +0.000 HD
ENDBRANCH  20  22
ENDBRANCH  16  20
ENDBRANCH  15  16
ENDBRANCH   3  15
TORSDOF 6
ENDMDL
MODEL 9
REMARK VINA RESULT:      -6.0      5.494      7.447
REMARK  Name = 
REMARK  7 active torsions:
REMARK  status: ('A' for Active; 'I' for Inactive)
REMARK    1  A    between atoms: C_1  and  C_2
REMARK    2  A    between atoms: C_8  and  N_9
REMARK    3  A    between atoms: C_10  and  S_11
REMARK    4  A    between atoms: N_12  and  C_13
REMARK    5  A    between atoms: C_13  and  C_14
REMARK    6  A    between atoms: C_14  and  C_15
REMARK    7  A    between atoms: C_15  and  O_17
REMARK                            x       y       z     vdW  Elec       q    Type
REMARK                         _______ _______ _______ _____ _____    ______ ____
ROOT
ATOM      1  N   UNL     1       1.369   8.321  21.010  0.00  0.00    +0.000 NA
ATOM      2  C   UNL     1       1.955   7.644  20.059  0.00  0.00    +0.000 C 
ATOM      3  N   UNL     1       2.436   6.404  20.382  0.00  0.00    +0.000 N 
ATOM      4  H   UNL     1       2.179   6.094  21.319  0.00  0.00    +0.000 HD
ENDROOT
BRANCH   1  12
ATOM      5  C   UNL     1      -0.397   9.330  23.110  0.00  0.00    +0.000 C 
ATOM      6  C   UNL     1       0.040  10.155  21.929  0.00  0.00    +0.000 A 
ATOM      7  C   UNL     1      -0.361  11.504  21.885  0.00  0.00    +0.000 A 
ATOM      8  C   UNL     1      -0.021  12.311  20.802  0.00  0.00    +0.000 A 
ATOM      9  C   UNL     1       0.658  11.751  19.729  0.00  0.00    +0.000 A 
ATOM     10 CL   UNL     1       1.094  12.732  18.385  0.00  0.00    +0.000 Cl
ATOM     11  C   UNL     1       1.033  10.410  19.748  0.00  0.00    +0.000 A 
ATOM     12  C   UNL     1       0.838   9.623  20.892  0.00  0.00    +0.000 A 
ENDBRANCH   1  12
BRANCH   2  13
ATOM     13  S   UNL     1       2.201   8.171  18.398  0.00  0.00    +0.000 S 
ATOM     14  H   UNL     1       3.511   7.934  18.316  0.00  0.00    +0.000 HD
ENDBRANCH   2  13
BRANCH   3  15
ATOM     15  C   UNL     1       3.254   5.498  19.596  0.00  0.00    +0.000 C 
BRANCH  15  16
ATOM     16  C   UNL     1       2.863   4.032  19.826  0.00  0.00    +0.000 C 
ATOM     17  C   UNL     1       2.268   3.817  21.265  0.00  0.00    +0.000 C 
ATOM     18  C   UNL     1       1.271   2.821  20.646  0.00  0.00    +0.000 C 
ATOM     19  C   UNL     1       1.451   3.565  19.314  0.00  0.00    +0.000 C 
BRANCH  16  20
ATOM     20  C   UNL     1       4.077   3.097  19.469  0.00  0.00    +0.000 C 
ATOM     21  O   UNL     1       4.734   2.428  20.254  0.00  0.00    +0.000 OA
BRANCH  20  22
ATOM     22  O   UNL     1       4.410   3.103  18.145  0.00  0.00    +0.000 OA
ATOM     23  H   UNL     1       4.963   3.868  17.890  0.00  0.00    +0.000 HD
ENDBRANCH  20  22
ENDBRANCH  16  20
ENDBRANCH  15  16
ENDBRANCH   3  15
TORSDOF 6
ENDMDL
