MODEL 1
REMARK VINA RESULT:      -6.8      0.000      0.000
REMARK  Name = 
REMARK  8 active torsions:
REMARK  status: ('A' for Active; 'I' for Inactive)
REMARK    1  A    between atoms: C_1  and  C_2
REMARK    2  A    between atoms: C_2  and  O_3
REMARK    3  A    between atoms: O_3  and  C_4
REMARK    4  A    between atoms: C_4  and  C_6
REMARK    5  A    between atoms: C_6  and  C_7
REMARK    6  A    between atoms: C_7  and  C_8
REMARK    7  A    between atoms: C_8  and  N_9
REMARK    8  A    between atoms: C_15  and  N_16
REMARK                            x       y       z     vdW  Elec       q    Type
REMARK                         _______ _______ _______ _____ _____    ______ ____
ROOT
ATOM      1  N   UNL     1       4.841   4.881  16.537  0.00  0.00    +0.000 N 
ATOM      2  C   UNL     1       4.381   3.621  16.839  0.00  0.00    +0.000 A 
ATOM      3  N   UNL     1       3.552   3.341  17.788  0.00  0.00    +0.000 NA
ATOM      4  C   UNL     1       3.082   4.407  18.569  0.00  0.00    +0.000 A 
ATOM      5  C   UNL     1       2.245   4.138  19.650  0.00  0.00    +0.000 A 
ATOM      6  C   UNL     1       1.752   5.181  20.441  0.00  0.00    +0.000 A 
ATOM      7  C   UNL     1       2.048   6.516  20.142  0.00  0.00    +0.000 A 
ATOM      8  C   UNL     1       2.932   6.781  19.099  0.00  0.00    +0.000 A 
ATOM      9  C   UNL     1       3.433   5.732  18.318  0.00  0.00    +0.000 A 
ATOM     10  C   UNL     1       4.373   5.998  17.215  0.00  0.00    +0.000 A 
ATOM     11  O   UNL     1       4.686   7.153  16.939  0.00  0.00    +0.000 OA
ENDROOT
BRANCH   7  12
ATOM     12  N   UNL     1       1.659   7.535  21.014  0.00  0.00    +0.000 N 
ATOM     13  H   UNL     1       2.430   7.989  21.496  0.00  0.00    +0.000 HD
ATOM     14  H   UNL     1       0.912   7.269  21.650  0.00  0.00    +0.000 HD
ENDBRANCH   7  12
BRANCH   1  15
ATOM     15  C   UNL     1       5.760   5.076  15.423  0.00  0.00    +0.000 C 
BRANCH  15  16
ATOM     16  C   UNL     1       5.914   3.794  14.612  0.00  0.00    +0.000 C 
BRANCH  16  17
ATOM     17  C   UNL     1       6.436   4.073  13.206  0.00  0.00    +0.000 C 
BRANCH  17  18
ATOM     18  C   UNL     1       5.748   3.184  12.200  0.00  0.00    +0.000 C 
ATOM     19  O   UNL     1       6.280   2.264  11.596  0.00  0.00    +0.000 OA
BRANCH  18  20
ATOM     20  O   UNL     1       4.482   3.639  11.990  0.00  0.00    +0.000 OA
BRANCH  20  22
ATOM     21  C   UNL     1       3.198   4.017  10.017  0.00  0.00    +0.000 C 
ATOM     22  C   UNL     1       3.770   2.961  10.946  0.00  0.00    +0.000 C 
ENDBRANCH  20  22
ENDBRANCH  18  20
ENDBRANCH  17  18
ENDBRANCH  16  17
ENDBRANCH  15  16
ENDBRANCH   1  15
TORSDOF 7
ENDMDL
MODEL 2
REMARK VINA RESULT:      -6.7      1.221      1.395
REMARK  Name = 
REMARK  8 active torsions:
REMARK  status: ('A' for Active; 'I' for Inactive)
REMARK    1  A    between atoms: C_1  and  C_2
REMARK    2  A    between atoms: C_2  and  O_3
REMARK    3  A    between atoms: O_3  and  C_4
REMARK    4  A    between atoms: C_4  and  C_6
REMARK    5  A    between atoms: C_6  and  C_7
REMARK    6  A    between atoms: C_7  and  C_8
REMARK    7  A    between atoms: C_8  and  N_9
REMARK    8  A    between atoms: C_15  and  N_16
REMARK                            x       y       z     vdW  Elec       q    Type
REMARK                         _______ _______ _______ _____ _____    ______ ____
ROOT
ATOM      1  N   UNL     1       5.625   5.059  16.795  0.00  0.00    +0.000 N 
ATOM      2  C   UNL     1       5.400   4.239  17.877  0.00  0.00    +0.000 A 
ATOM      3  N   UNL     1       4.562   4.480  18.829  0.00  0.00    +0.000 NA
ATOM      4  C   UNL     1       3.821   5.669  18.751  0.00  0.00    +0.000 A 
ATOM      5  C   UNL     1       2.961   6.000  19.797  0.00  0.00    +0.000 A 
ATOM      6  C   UNL     1       2.201   7.173  19.743  0.00  0.00    +0.000 A 
ATOM      7  C   UNL     1       2.250   8.015  18.625  0.00  0.00    +0.000 A 
ATOM      8  C   UNL     1       3.154   7.715  17.609  0.00  0.00    +0.000 A 
ATOM      9  C   UNL     1       3.922   6.545  17.673  0.00  0.00    +0.000 A 
ATOM     10  C   UNL     1       4.884   6.217  16.607  0.00  0.00    +0.000 A 
ATOM     11  O   UNL     1       4.984   6.947  15.624  0.00  0.00    +0.000 OA
ENDROOT
BRANCH   7  12
ATOM     12  N   UNL     1       1.590   9.245  18.642  0.00  0.00    +0.000 N 
ATOM     13  H   UNL     1       1.319   9.562  19.568  0.00  0.00    +0.000 HD
ATOM     14  H   UNL     1       0.824   9.309  17.976  0.00  0.00    +0.000 HD
ENDBRANCH   7  12
BRANCH   1  15
ATOM     15  C   UNL     1       6.582   4.669  15.769  0.00  0.00    +0.000 C 
BRANCH  15  16
ATOM     16  C   UNL     1       5.891   3.914  14.637  0.00  0.00    +0.000 C 
BRANCH  16  17
ATOM     17  C   UNL     1       6.655   4.040  13.323  0.00  0.00    +0.000 C 
BRANCH  17  18
ATOM     18  C   UNL     1       5.990   3.223  12.244  0.00  0.00    +0.000 C 
ATOM     19  O   UNL     1       6.547   2.376  11.560  0.00  0.00    +0.000 OA
BRANCH  18  20
ATOM     20  O   UNL     1       4.710   3.656  12.077  0.00  0.00    +0.000 OA
BRANCH  20  22
ATOM     21  C   UNL     1       3.275   3.946  10.195  0.00  0.00    +0.000 C 
ATOM     22  C   UNL     1       3.958   2.930  11.095  0.00  0.00    +0.000 C 
ENDBRANCH  20  22
ENDBRANCH  18  20
ENDBRANCH  17  18
ENDBRANCH  16  17
ENDBRANCH  15  16
ENDBRANCH   1  15
TORSDOF 7
ENDMDL
MODEL 3
REMARK VINA RESULT:      -6.7      2.942      4.249
REMARK  Name = 
REMARK  8 active torsions:
REMARK  status: ('A' for Active; 'I' for Inactive)
REMARK    1  A    between atoms: C_1  and  C_2
REMARK    2  A    between atoms: C_2  and  O_3
REMARK    3  A    between atoms: O_3  and  C_4
REMARK    4  A    between atoms: C_4  and  C_6
REMARK    5  A    between atoms: C_6  and  C_7
REMARK    6  A    between atoms: C_7  and  C_8
REMARK    7  A    between atoms: C_8  and  N_9
REMARK    8  A    between atoms: C_15  and  N_16
REMARK                            x       y       z     vdW  Elec       q    Type
REMARK                         _______ _______ _______ _____ _____    ______ ____
ROOT
ATOM      1  N   UNL     1       4.298   4.295  16.848  0.00  0.00    +0.000 N 
ATOM      2  C   UNL     1       3.916   3.102  17.415  0.00  0.00    +0.000 A 
ATOM      3  N   UNL     1       3.217   2.983  18.494  0.00  0.00    +0.000 NA
ATOM      4  C   UNL     1       2.815   4.164  19.136  0.00  0.00    +0.000 A 
ATOM      5  C   UNL     1       2.124   4.078  20.343  0.00  0.00    +0.000 A 
ATOM      6  C   UNL     1       1.700   5.237  21.000  0.00  0.00    +0.000 A 
ATOM      7  C   UNL     1       1.917   6.503  20.444  0.00  0.00    +0.000 A 
ATOM      8  C   UNL     1       2.660   6.592  19.269  0.00  0.00    +0.000 A 
ATOM      9  C   UNL     1       3.093   5.428  18.621  0.00  0.00    +0.000 A 
ATOM     10  C   UNL     1       3.883   5.508  17.380  0.00  0.00    +0.000 A 
ATOM     11  O   UNL     1       4.125   6.601  16.875  0.00  0.00    +0.000 OA
ENDROOT
BRANCH   7  12
ATOM     12  N   UNL     1       1.608   7.655  21.172  0.00  0.00    +0.000 N 
ATOM     13  H   UNL     1       0.624   7.747  21.409  0.00  0.00    +0.000 HD
ATOM     14  H   UNL     1       1.986   8.508  20.771  0.00  0.00    +0.000 HD
ENDBRANCH   7  12
BRANCH   1  15
ATOM     15  C   UNL     1       5.068   4.303  15.612  0.00  0.00    +0.000 C 
BRANCH  15  16
ATOM     16  C   UNL     1       6.548   4.061  15.888  0.00  0.00    +0.000 C 
BRANCH  16  17
ATOM     17  C   UNL     1       7.268   5.344  16.288  0.00  0.00    +0.000 C 
BRANCH  17  18
ATOM     18  C   UNL     1       7.530   5.363  17.773  0.00  0.00    +0.000 C 
ATOM     19  O   UNL     1       7.929   4.412  18.429  0.00  0.00    +0.000 OA
BRANCH  18  20
ATOM     20  O   UNL     1       7.145   6.567  18.282  0.00  0.00    +0.000 OA
BRANCH  20  22
ATOM     21  C   UNL     1       8.343   8.626  18.201  0.00  0.00    +0.000 C 
ATOM     22  C   UNL     1       7.425   7.690  17.436  0.00  0.00    +0.000 C 
ENDBRANCH  20  22
ENDBRANCH  18  20
ENDBRANCH  17  18
ENDBRANCH  16  17
ENDBRANCH  15  16
ENDBRANCH   1  15
TORSDOF 7
ENDMDL
MODEL 4
REMARK VINA RESULT:      -6.7      1.513      2.057
REMARK  Name = 
REMARK  8 active torsions:
REMARK  status: ('A' for Active; 'I' for Inactive)
REMARK    1  A    between atoms: C_1  and  C_2
REMARK    2  A    between atoms: C_2  and  O_3
REMARK    3  A    between atoms: O_3  and  C_4
REMARK    4  A    between atoms: C_4  and  C_6
REMARK    5  A    between atoms: C_6  and  C_7
REMARK    6  A    between atoms: C_7  and  C_8
REMARK    7  A    between atoms: C_8  and  N_9
REMARK    8  A    between atoms: C_15  and  N_16
REMARK                            x       y       z     vdW  Elec       q    Type
REMARK                         _______ _______ _______ _____ _____    ______ ____
ROOT
ATOM      1  N   UNL     1       5.092   5.161  16.414  0.00  0.00    +0.000 N 
ATOM      2  C   UNL     1       5.039   6.510  16.681  0.00  0.00    +0.000 A 
ATOM      3  N   UNL     1       4.280   7.062  17.567  0.00  0.00    +0.000 NA
ATOM      4  C   UNL     1       3.446   6.220  18.318  0.00  0.00    +0.000 A 
ATOM      5  C   UNL     1       2.559   6.786  19.231  0.00  0.00    +0.000 A 
ATOM      6  C   UNL     1       1.722   5.971  20.002  0.00  0.00    +0.000 A 
ATOM      7  C   UNL     1       1.788   4.576  19.910  0.00  0.00    +0.000 A 
ATOM      8  C   UNL     1       2.632   4.014  18.955  0.00  0.00    +0.000 A 
ATOM      9  C   UNL     1       3.458   4.835  18.177  0.00  0.00    +0.000 A 
ATOM     10  C   UNL     1       4.352   4.254  17.160  0.00  0.00    +0.000 A 
ATOM     11  O   UNL     1       4.416   3.035  17.022  0.00  0.00    +0.000 OA
ENDROOT
BRANCH   7  12
ATOM     12  N   UNL     1       0.860   3.781  20.586  0.00  0.00    +0.000 N 
ATOM     13  H   UNL     1      -0.052   3.733  20.140  0.00  0.00    +0.000 HD
ATOM     14  H   UNL     1       0.790   3.986  21.579  0.00  0.00    +0.000 HD
ENDBRANCH   7  12
BRANCH   1  15
ATOM     15  C   UNL     1       6.009   4.651  15.405  0.00  0.00    +0.000 C 
BRANCH  15  16
ATOM     16  C   UNL     1       5.257   4.239  14.143  0.00  0.00    +0.000 C 
BRANCH  16  17
ATOM     17  C   UNL     1       6.202   3.714  13.067  0.00  0.00    +0.000 C 
BRANCH  17  18
ATOM     18  C   UNL     1       5.436   2.942  12.021  0.00  0.00    +0.000 C 
ATOM     19  O   UNL     1       5.838   1.934  11.458  0.00  0.00    +0.000 OA
BRANCH  18  20
ATOM     20  O   UNL     1       4.284   3.605  11.726  0.00  0.00    +0.000 OA
BRANCH  20  22
ATOM     21  C   UNL     1       3.025   4.136   9.773  0.00  0.00    +0.000 C 
ATOM     22  C   UNL     1       3.508   3.014  10.675  0.00  0.00    +0.000 C 
ENDBRANCH  20  22
ENDBRANCH  18  20
ENDBRANCH  17  18
ENDBRANCH  16  17
ENDBRANCH  15  16
ENDBRANCH   1  15
TORSDOF 7
ENDMDL
MODEL 5
REMARK VINA RESULT:      -6.7      3.495      6.523
REMARK  Name = 
REMARK  8 active torsions:
REMARK  status: ('A' for Active; 'I' for Inactive)
REMARK    1  A    between atoms: C_1  and  C_2
REMARK    2  A    between atoms: C_2  and  O_3
REMARK    3  A    between atoms: O_3  and  C_4
REMARK    4  A    between atoms: C_4  and  C_6
REMARK    5  A    between atoms: C_6  and  C_7
REMARK    6  A    between atoms: C_7  and  C_8
REMARK    7  A    between atoms: C_8  and  N_9
REMARK    8  A    between atoms: C_15  and  N_16
REMARK                            x       y       z     vdW  Elec       q    Type
REMARK                         _______ _______ _______ _____ _____    ______ ____
ROOT
ATOM      1  N   UNL     1       3.598   5.720  19.092  0.00  0.00    +0.000 N 
ATOM      2  C   UNL     1       4.508   4.989  19.819  0.00  0.00    +0.000 A 
ATOM      3  N   UNL     1       5.626   4.532  19.364  0.00  0.00    +0.000 NA
ATOM      4  C   UNL     1       5.938   4.807  18.024  0.00  0.00    +0.000 A 
ATOM      5  C   UNL     1       7.100   4.268  17.475  0.00  0.00    +0.000 A 
ATOM      6  C   UNL     1       7.443   4.533  16.145  0.00  0.00    +0.000 A 
ATOM      7  C   UNL     1       6.657   5.378  15.352  0.00  0.00    +0.000 A 
ATOM      8  C   UNL     1       5.466   5.867  15.882  0.00  0.00    +0.000 A 
ATOM      9  C   UNL     1       5.121   5.588  17.210  0.00  0.00    +0.000 A 
ATOM     10  C   UNL     1       3.862   6.095  17.782  0.00  0.00    +0.000 A 
ATOM     11  O   UNL     1       3.125   6.812  17.110  0.00  0.00    +0.000 OA
ENDROOT
BRANCH   7  12
ATOM     12  N   UNL     1       6.939   5.528  13.991  0.00  0.00    +0.000 N 
ATOM     13  H   UNL     1       7.576   6.290  13.779  0.00  0.00    +0.000 HD
ATOM     14  H   UNL     1       6.112   5.544  13.400  0.00  0.00    +0.000 HD
ENDBRANCH   7  12
BRANCH   1  15
ATOM     15  C   UNL     1       2.377   6.203  19.724  0.00  0.00    +0.000 C 
BRANCH  15  16
ATOM     16  C   UNL     1       1.942   5.274  20.853  0.00  0.00    +0.000 C 
BRANCH  16  17
ATOM     17  C   UNL     1       0.991   4.189  20.359  0.00  0.00    +0.000 C 
BRANCH  17  18
ATOM     18  C   UNL     1       1.487   2.825  20.768  0.00  0.00    +0.000 C 
ATOM     19  O   UNL     1       1.886   2.528  21.884  0.00  0.00    +0.000 OA
BRANCH  18  20
ATOM     20  O   UNL     1       1.527   2.014  19.674  0.00  0.00    +0.000 OA
BRANCH  20  22
ATOM     21  C   UNL     1       2.611   2.540  17.618  0.00  0.00    +0.000 C 
ATOM     22  C   UNL     1       2.797   1.966  19.011  0.00  0.00    +0.000 C 
ENDBRANCH  20  22
ENDBRANCH  18  20
ENDBRANCH  17  18
ENDBRANCH  16  17
ENDBRANCH  15  16
ENDBRANCH   1  15
TORSDOF 7
ENDMDL
MODEL 6
REMARK VINA RESULT:      -6.6      2.173      2.874
REMARK  Name = 
REMARK  8 active torsions:
REMARK  status: ('A' for Active; 'I' for Inactive)
REMARK    1  A    between atoms: C_1  and  C_2
REMARK    2  A    between atoms: C_2  and  O_3
REMARK    3  A    between atoms: O_3  and  C_4
REMARK    4  A    between atoms: C_4  and  C_6
REMARK    5  A    between atoms: C_6  and  C_7
REMARK    6  A    between atoms: C_7  and  C_8
REMARK    7  A    between atoms: C_8  and  N_9
REMARK    8  A    between atoms: C_15  and  N_16
REMARK                            x       y       z     vdW  Elec       q    Type
REMARK                         _______ _______ _______ _____ _____    ______ ____
ROOT
ATOM      1  N   UNL     1       5.105   5.515  18.032  0.00  0.00    +0.000 N 
ATOM      2  C   UNL     1       4.048   6.293  17.620  0.00  0.00    +0.000 A 
ATOM      3  N   UNL     1       2.841   6.205  18.069  0.00  0.00    +0.000 NA
ATOM      4  C   UNL     1       2.589   5.241  19.058  0.00  0.00    +0.000 A 
ATOM      5  C   UNL     1       1.285   5.064  19.514  0.00  0.00    +0.000 A 
ATOM      6  C   UNL     1       1.005   4.119  20.507  0.00  0.00    +0.000 A 
ATOM      7  C   UNL     1       2.027   3.365  21.095  0.00  0.00    +0.000 A 
ATOM      8  C   UNL     1       3.320   3.499  20.596  0.00  0.00    +0.000 A 
ATOM      9  C   UNL     1       3.593   4.438  19.594  0.00  0.00    +0.000 A 
ATOM     10  C   UNL     1       4.956   4.588  19.054  0.00  0.00    +0.000 A 
ATOM     11  O   UNL     1       5.878   3.921  19.518  0.00  0.00    +0.000 OA
ENDROOT
BRANCH   7  12
ATOM     12  N   UNL     1       1.718   2.336  21.987  0.00  0.00    +0.000 N 
ATOM     13  H   UNL     1       2.527   1.903  22.422  0.00  0.00    +0.000 HD
ATOM     14  H   UNL     1       1.071   1.647  21.612  0.00  0.00    +0.000 HD
ENDBRANCH   7  12
BRANCH   1  15
ATOM     15  C   UNL     1       6.430   5.724  17.467  0.00  0.00    +0.000 C 
BRANCH  15  16
ATOM     16  C   UNL     1       6.862   4.526  16.628  0.00  0.00    +0.000 C 
BRANCH  16  17
ATOM     17  C   UNL     1       5.840   4.195  15.545  0.00  0.00    +0.000 C 
BRANCH  17  18
ATOM     18  C   UNL     1       6.415   4.457  14.176  0.00  0.00    +0.000 C 
ATOM     19  O   UNL     1       7.336   5.225  13.936  0.00  0.00    +0.000 OA
BRANCH  18  20
ATOM     20  O   UNL     1       5.677   3.794  13.243  0.00  0.00    +0.000 OA
BRANCH  20  22
ATOM     21  C   UNL     1       5.745   2.111  11.555  0.00  0.00    +0.000 C 
ATOM     22  C   UNL     1       6.417   3.363  12.093  0.00  0.00    +0.000 C 
ENDBRANCH  20  22
ENDBRANCH  18  20
ENDBRANCH  17  18
ENDBRANCH  16  17
ENDBRANCH  15  16
ENDBRANCH   1  15
TORSDOF 7
ENDMDL
MODEL 7
REMARK VINA RESULT:      -6.6      4.126      6.536
REMARK  Name = 
REMARK  8 active torsions:
REMARK  status: ('A' for Active; 'I' for Inactive)
REMARK    1  A    between atoms: C_1  and  C_2
REMARK    2  A    between atoms: C_2  and  O_3
REMARK    3  A    between atoms: O_3  and  C_4
REMARK    4  A    between atoms: C_4  and  C_6
REMARK    5  A    between atoms: C_6  and  C_7
REMARK    6  A    between atoms: C_7  and  C_8
REMARK    7  A    between atoms: C_8  and  N_9
REMARK    8  A    between atoms: C_15  and  N_16
REMARK                            x       y       z     vdW  Elec       q    Type
REMARK                         _______ _______ _______ _____ _____    ______ ____
ROOT
ATOM      1  N   UNL     1       3.978   3.021  18.064  0.00  0.00    +0.000 N 
ATOM      2  C   UNL     1       3.873   3.378  16.740  0.00  0.00    +0.000 A 
ATOM      3  N   UNL     1       4.591   4.276  16.154  0.00  0.00    +0.000 NA
ATOM      4  C   UNL     1       5.557   4.936  16.928  0.00  0.00    +0.000 A 
ATOM      5  C   UNL     1       6.302   5.963  16.352  0.00  0.00    +0.000 A 
ATOM      6  C   UNL     1       7.280   6.632  17.096  0.00  0.00    +0.000 A 
ATOM      7  C   UNL     1       7.565   6.258  18.414  0.00  0.00    +0.000 A 
ATOM      8  C   UNL     1       6.780   5.273  19.008  0.00  0.00    +0.000 A 
ATOM      9  C   UNL     1       5.794   4.615  18.263  0.00  0.00    +0.000 A 
ATOM     10  C   UNL     1       4.954   3.575  18.880  0.00  0.00    +0.000 A 
ATOM     11  O   UNL     1       5.148   3.239  20.047  0.00  0.00    +0.000 OA
ENDROOT
BRANCH   7  12
ATOM     12  N   UNL     1       8.448   7.018  19.185  0.00  0.00    +0.000 N 
ATOM     13  H   UNL     1       7.997   7.716  19.770  0.00  0.00    +0.000 HD
ATOM     14  H   UNL     1       9.226   7.405  18.658  0.00  0.00    +0.000 HD
ENDBRANCH   7  12
BRANCH   1  15
ATOM     15  C   UNL     1       3.125   1.973  18.608  0.00  0.00    +0.000 C 
BRANCH  15  16
ATOM     16  C   UNL     1       1.652   2.350  18.487  0.00  0.00    +0.000 C 
BRANCH  16  17
ATOM     17  C   UNL     1       1.401   3.798  18.895  0.00  0.00    +0.000 C 
BRANCH  17  18
ATOM     18  C   UNL     1       1.333   3.921  20.397  0.00  0.00    +0.000 C 
ATOM     19  O   UNL     1       1.033   3.016  21.162  0.00  0.00    +0.000 OA
BRANCH  18  20
ATOM     20  O   UNL     1       1.546   5.218  20.753  0.00  0.00    +0.000 OA
BRANCH  20  22
ATOM     21  C   UNL     1       2.039   7.441  20.047  0.00  0.00    +0.000 C 
ATOM     22  C   UNL     1       2.340   5.969  19.825  0.00  0.00    +0.000 C 
ENDBRANCH  20  22
ENDBRANCH  18  20
ENDBRANCH  17  18
ENDBRANCH  16  17
ENDBRANCH  15  16
ENDBRANCH   1  15
TORSDOF 7
ENDMDL
MODEL 8
REMARK VINA RESULT:      -6.6      2.502      4.061
REMARK  Name = 
REMARK  8 active torsions:
REMARK  status: ('A' for Active; 'I' for Inactive)
REMARK    1  A    between atoms: C_1  and  C_2
REMARK    2  A    between atoms: C_2  and  O_3
REMARK    3  A    between atoms: O_3  and  C_4
REMARK    4  A    between atoms: C_4  and  C_6
REMARK    5  A    between atoms: C_6  and  C_7
REMARK    6  A    between atoms: C_7  and  C_8
REMARK    7  A    between atoms: C_8  and  N_9
REMARK    8  A    between atoms: C_15  and  N_16
REMARK                            x       y       z     vdW  Elec       q    Type
REMARK                         _______ _______ _______ _____ _____    ______ ____
ROOT
ATOM      1  N   UNL     1       3.878   6.284  17.711  0.00  0.00    +0.000 N 
ATOM      2  C   UNL     1       3.418   6.963  18.815  0.00  0.00    +0.000 A 
ATOM      3  N   UNL     1       2.599   6.487  19.692  0.00  0.00    +0.000 NA
ATOM      4  C   UNL     1       2.147   5.172  19.505  0.00  0.00    +0.000 A 
ATOM      5  C   UNL     1       1.206   4.647  20.388  0.00  0.00    +0.000 A 
ATOM      6  C   UNL     1       0.745   3.336  20.235  0.00  0.00    +0.000 A 
ATOM      7  C   UNL     1       1.248   2.507  19.224  0.00  0.00    +0.000 A 
ATOM      8  C   UNL     1       2.143   3.050  18.306  0.00  0.00    +0.000 A 
ATOM      9  C   UNL     1       2.592   4.368  18.457  0.00  0.00    +0.000 A 
ATOM     10  C   UNL     1       3.535   4.957  17.491  0.00  0.00    +0.000 A 
ATOM     11  O   UNL     1       3.977   4.275  16.569  0.00  0.00    +0.000 OA
ENDROOT
BRANCH   7  12
ATOM     12  N   UNL     1       0.684   1.248  19.001  0.00  0.00    +0.000 N 
ATOM     13  H   UNL     1       0.599   0.997  18.020  0.00  0.00    +0.000 HD
ATOM     14  H   UNL     1      -0.178   1.088  19.514  0.00  0.00    +0.000 HD
ENDBRANCH   7  12
BRANCH   1  15
ATOM     15  C   UNL     1       4.821   6.920  16.802  0.00  0.00    +0.000 C 
BRANCH  15  16
ATOM     16  C   UNL     1       6.203   7.034  17.439  0.00  0.00    +0.000 C 
BRANCH  16  17
ATOM     17  C   UNL     1       7.259   6.278  16.640  0.00  0.00    +0.000 C 
BRANCH  17  18
ATOM     18  C   UNL     1       7.325   4.837  17.080  0.00  0.00    +0.000 C 
ATOM     19  O   UNL     1       7.636   4.457  18.199  0.00  0.00    +0.000 OA
BRANCH  18  20
ATOM     20  O   UNL     1       7.094   4.029  16.008  0.00  0.00    +0.000 OA
BRANCH  20  22
ATOM     21  C   UNL     1       6.099   3.945  13.843  0.00  0.00    +0.000 C 
ATOM     22  C   UNL     1       7.052   4.708  14.746  0.00  0.00    +0.000 C 
ENDBRANCH  20  22
ENDBRANCH  18  20
ENDBRANCH  17  18
ENDBRANCH  16  17
ENDBRANCH  15  16
ENDBRANCH   1  15
TORSDOF 7
ENDMDL
MODEL 9
REMARK VINA RESULT:      -6.6      2.157      2.899
REMARK  Name = 
REMARK  8 active torsions:
REMARK  status: ('A' for Active; 'I' for Inactive)
REMARK    1  A    between atoms: C_1  and  C_2
REMARK    2  A    between atoms: C_2  and  O_3
REMARK    3  A    between atoms: O_3  and  C_4
REMARK    4  A    between atoms: C_4  and  C_6
REMARK    5  A    between atoms: C_6  and  C_7
REMARK    6  A    between atoms: C_7  and  C_8
REMARK    7  A    between atoms: C_8  and  N_9
REMARK    8  A    between atoms: C_15  and  N_16
REMARK                            x       y       z     vdW  Elec       q    Type
REMARK                         _______ _______ _______ _____ _____    ______ ____
ROOT
ATOM      1  N   UNL     1       4.238   5.024  17.409  0.00  0.00    +0.000 N 
ATOM      2  C   UNL     1       3.520   4.238  16.538  0.00  0.00    +0.000 A 
ATOM      3  N   UNL     1       2.619   3.380  16.882  0.00  0.00    +0.000 NA
ATOM      4  C   UNL     1       2.349   3.243  18.252  0.00  0.00    +0.000 A 
ATOM      5  C   UNL     1       1.437   2.276  18.668  0.00  0.00    +0.000 A 
ATOM      6  C   UNL     1       1.138   2.122  20.026  0.00  0.00    +0.000 A 
ATOM      7  C   UNL     1       1.710   2.961  20.990  0.00  0.00    +0.000 A 
ATOM      8  C   UNL     1       2.666   3.887  20.580  0.00  0.00    +0.000 A 
ATOM      9  C   UNL     1       2.970   4.028  19.220  0.00  0.00    +0.000 A 
ATOM     10  C   UNL     1       3.983   5.000  18.773  0.00  0.00    +0.000 A 
ATOM     11  O   UNL     1       4.534   5.734  19.590  0.00  0.00    +0.000 OA
ENDROOT
BRANCH   7  12
ATOM     12  N   UNL     1       1.506   2.712  22.350  0.00  0.00    +0.000 N 
ATOM     13  H   UNL     1       2.224   3.098  22.957  0.00  0.00    +0.000 HD
ATOM     14  H   UNL     1       1.306   1.739  22.564  0.00  0.00    +0.000 HD
ENDBRANCH   7  12
BRANCH   1  15
ATOM     15  C   UNL     1       5.216   5.975  16.899  0.00  0.00    +0.000 C 
BRANCH  15  16
ATOM     16  C   UNL     1       6.638   5.493  17.165  0.00  0.00    +0.000 C 
BRANCH  16  17
ATOM     17  C   UNL     1       6.986   4.266  16.329  0.00  0.00    +0.000 C 
BRANCH  17  18
ATOM     18  C   UNL     1       7.020   4.616  14.863  0.00  0.00    +0.000 C 
ATOM     19  O   UNL     1       7.655   5.540  14.376  0.00  0.00    +0.000 OA
BRANCH  18  20
ATOM     20  O   UNL     1       6.149   3.815  14.189  0.00  0.00    +0.000 OA
BRANCH  20  22
ATOM     21  C   UNL     1       5.109   3.391  12.086  0.00  0.00    +0.000 C 
ATOM     22  C   UNL     1       6.424   3.679  12.788  0.00  0.00    +0.000 C 
ENDBRANCH  20  22
ENDBRANCH  18  20
ENDBRANCH  17  18
ENDBRANCH  16  17
ENDBRANCH  15  16
ENDBRANCH   1  15
TORSDOF 7
ENDMDL
