MODEL 1
REMARK VINA RESULT:      -8.4      0.000      0.000
REMARK  Name = 
REMARK  4 active torsions:
REMARK  status: ('A' for Active; 'I' for Inactive)
REMARK    1  A    between atoms: C_2  and  C_3
REMARK    2  A    between atoms: C_6  and  C_7
REMARK    3  A    between atoms: C_19  and  C_20
REMARK    4  A    between atoms: C_20  and  C_21
REMARK                            x       y       z     vdW  Elec       q    Type
REMARK                         _______ _______ _______ _____ _____    ______ ____
ROOT
ATOM      1  O   UNL     1       6.783   4.137  16.858  0.00  0.00    +0.000 OA
ATOM      2  C   UNL     1       6.358   4.898  17.714  0.00  0.00    +0.000 C 
ATOM      3  N   UNL     1       5.305   4.573  18.559  0.00  0.00    +0.000 N 
ATOM      4  C   UNL     1       4.818   3.196  18.596  0.00  0.00    +0.000 C 
ATOM      5  C   UNL     1       3.350   3.160  18.189  0.00  0.00    +0.000 C 
ATOM      6  O   UNL     1       2.580   3.988  19.072  0.00  0.00    +0.000 OA
ATOM      7  C   UNL     1       2.980   5.370  19.011  0.00  0.00    +0.000 C 
ATOM      8  C   UNL     1       4.481   5.527  19.310  0.00  0.00    +0.000 C 
ENDROOT
BRANCH   2   9
ATOM      9  C   UNL     1       7.021   6.196  17.860  0.00  0.00    +0.000 A 
ATOM     10  C   UNL     1       7.967   6.412  18.835  0.00  0.00    +0.000 A 
ATOM     11  N   UNL     1       8.575   7.608  19.024  0.00  0.00    +0.000 NA
ATOM     12  C   UNL     1       8.200   8.615  18.206  0.00  0.00    +0.000 A 
ATOM     13  N   UNL     1       7.278   8.500  17.230  0.00  0.00    +0.000 NA
ATOM     14  C   UNL     1       6.692   7.297  17.103  0.00  0.00    +0.000 A 
BRANCH  12  15
ATOM     15  C   UNL     1       8.789   9.936  18.421  0.00  0.00    +0.000 A 
ATOM     16  C   UNL     1       9.721  10.183  19.435  0.00  0.00    +0.000 A 
ATOM     17  C   UNL     1      10.270  11.450  19.599  0.00  0.00    +0.000 A 
ATOM     18  C   UNL     1       9.863  12.454  18.740  0.00  0.00    +0.000 A 
ATOM     19  N   UNL     1       8.959  12.276  17.755  0.00  0.00    +0.000 NA
ATOM     20  C   UNL     1       8.446  11.030  17.623  0.00  0.00    +0.000 A 
ENDBRANCH  12  15
ENDBRANCH   2   9
BRANCH   7  21
ATOM     21  C   UNL     1       2.185   6.153  20.067  0.00  0.00    +0.000 C 
BRANCH  21  22
ATOM     22  C   UNL     1       1.852   7.567  19.657  0.00  0.00    +0.000 A 
ATOM     23  C   UNL     1       2.109   8.013  18.351  0.00  0.00    +0.000 A 
ATOM     24  C   UNL     1       1.755   9.307  17.957  0.00  0.00    +0.000 A 
ATOM     25  C   UNL     1       1.157  10.175  18.869  0.00  0.00    +0.000 A 
ATOM     26  C   UNL     1       0.924   9.739  20.168  0.00  0.00    +0.000 A 
ATOM     27  F   UNL     1       0.358  10.572  21.052  0.00  0.00    +0.000 F 
ATOM     28  C   UNL     1       1.265   8.453  20.569  0.00  0.00    +0.000 A 
ENDBRANCH  21  22
ENDBRANCH   7  21
TORSDOF 4
ENDMDL
MODEL 2
REMARK VINA RESULT:      -8.3      0.910      1.291
REMARK  Name = 
REMARK  4 active torsions:
REMARK  status: ('A' for Active; 'I' for Inactive)
REMARK    1  A    between atoms: C_2  and  C_3
REMARK    2  A    between atoms: C_6  and  C_7
REMARK    3  A    between atoms: C_19  and  C_20
REMARK    4  A    between atoms: C_20  and  C_21
REMARK                            x       y       z     vdW  Elec       q    Type
REMARK                         _______ _______ _______ _____ _____    ______ ____
ROOT
ATOM      1  O   UNL     1       6.136   4.051  16.524  0.00  0.00    +0.000 OA
ATOM      2  C   UNL     1       5.850   4.749  17.484  0.00  0.00    +0.000 C 
ATOM      3  N   UNL     1       4.903   4.381  18.431  0.00  0.00    +0.000 N 
ATOM      4  C   UNL     1       4.379   3.018  18.424  0.00  0.00    +0.000 C 
ATOM      5  C   UNL     1       2.871   3.049  18.211  0.00  0.00    +0.000 C 
ATOM      6  O   UNL     1       2.248   3.819  19.248  0.00  0.00    +0.000 OA
ATOM      7  C   UNL     1       2.684   5.192  19.243  0.00  0.00    +0.000 C 
ATOM      8  C   UNL     1       4.215   5.290  19.355  0.00  0.00    +0.000 C 
ENDROOT
BRANCH   2   9
ATOM      9  C   UNL     1       6.570   6.015  17.643  0.00  0.00    +0.000 A 
ATOM     10  C   UNL     1       7.655   6.122  18.480  0.00  0.00    +0.000 A 
ATOM     11  N   UNL     1       8.323   7.283  18.679  0.00  0.00    +0.000 NA
ATOM     12  C   UNL     1       7.865   8.369  18.019  0.00  0.00    +0.000 A 
ATOM     13  N   UNL     1       6.805   8.362  17.187  0.00  0.00    +0.000 NA
ATOM     14  C   UNL     1       6.167   7.188  17.043  0.00  0.00    +0.000 A 
BRANCH  12  15
ATOM     15  C   UNL     1       8.522   9.653  18.259  0.00  0.00    +0.000 A 
ATOM     16  C   UNL     1       9.501   9.819  19.245  0.00  0.00    +0.000 A 
ATOM     17  C   UNL     1      10.114  11.052  19.433  0.00  0.00    +0.000 A 
ATOM     18  C   UNL     1       9.723  12.106  18.627  0.00  0.00    +0.000 A 
ATOM     19  N   UNL     1       8.776  12.007  17.672  0.00  0.00    +0.000 NA
ATOM     20  C   UNL     1       8.200  10.791  17.515  0.00  0.00    +0.000 A 
ENDBRANCH  12  15
ENDBRANCH   2   9
BRANCH   7  21
ATOM     21  C   UNL     1       2.057   5.905  20.451  0.00  0.00    +0.000 C 
BRANCH  21  22
ATOM     22  C   UNL     1       1.652   7.333  20.176  0.00  0.00    +0.000 A 
ATOM     23  C   UNL     1       1.056   8.113  21.180  0.00  0.00    +0.000 A 
ATOM     24  C   UNL     1       0.726   9.452  20.940  0.00  0.00    +0.000 A 
ATOM     25  C   UNL     1       0.971  10.017  19.691  0.00  0.00    +0.000 A 
ATOM     26  C   UNL     1       1.540   9.236  18.691  0.00  0.00    +0.000 A 
ATOM     27  F   UNL     1       1.769   9.772  17.485  0.00  0.00    +0.000 F 
ATOM     28  C   UNL     1       1.879   7.908  18.920  0.00  0.00    +0.000 A 
ENDBRANCH  21  22
ENDBRANCH   7  21
TORSDOF 4
ENDMDL
MODEL 3
REMARK VINA RESULT:      -8.1      1.049      1.763
REMARK  Name = 
REMARK  4 active torsions:
REMARK  status: ('A' for Active; 'I' for Inactive)
REMARK    1  A    between atoms: C_2  and  C_3
REMARK    2  A    between atoms: C_6  and  C_7
REMARK    3  A    between atoms: C_19  and  C_20
REMARK    4  A    between atoms: C_20  and  C_21
REMARK                            x       y       z     vdW  Elec       q    Type
REMARK                         _______ _______ _______ _____ _____    ______ ____
ROOT
ATOM      1  O   UNL     1       6.623   4.505  16.403  0.00  0.00    +0.000 OA
ATOM      2  C   UNL     1       6.256   5.085  17.413  0.00  0.00    +0.000 C 
ATOM      3  N   UNL     1       5.250   4.603  18.239  0.00  0.00    +0.000 N 
ATOM      4  C   UNL     1       4.750   3.245  18.037  0.00  0.00    +0.000 C 
ATOM      5  C   UNL     1       3.261   3.289  17.718  0.00  0.00    +0.000 C 
ATOM      6  O   UNL     1       2.552   3.930  18.788  0.00  0.00    +0.000 OA
ATOM      7  C   UNL     1       2.965   5.297  18.973  0.00  0.00    +0.000 C 
ATOM      8  C   UNL     1       4.482   5.393  19.208  0.00  0.00    +0.000 C 
ENDROOT
BRANCH   2   9
ATOM      9  C   UNL     1       6.942   6.330  17.769  0.00  0.00    +0.000 A 
ATOM     10  C   UNL     1       6.710   7.498  17.081  0.00  0.00    +0.000 A 
ATOM     11  N   UNL     1       7.351   8.659  17.357  0.00  0.00    +0.000 NA
ATOM     12  C   UNL     1       8.263   8.626  18.353  0.00  0.00    +0.000 A 
ATOM     13  N   UNL     1       8.563   7.529  19.075  0.00  0.00    +0.000 NA
ATOM     14  C   UNL     1       7.913   6.401  18.743  0.00  0.00    +0.000 A 
BRANCH  12  15
ATOM     15  C   UNL     1       9.020   9.845  18.637  0.00  0.00    +0.000 A 
ATOM     16  C   UNL     1       9.493  10.685  17.623  0.00  0.00    +0.000 A 
ATOM     17  C   UNL     1      10.196  11.843  17.934  0.00  0.00    +0.000 A 
ATOM     18  C   UNL     1      10.420  12.133  19.268  0.00  0.00    +0.000 A 
ATOM     19  N   UNL     1      10.000  11.354  20.284  0.00  0.00    +0.000 NA
ATOM     20  C   UNL     1       9.317  10.234  19.946  0.00  0.00    +0.000 A 
ENDBRANCH  12  15
ENDBRANCH   2   9
BRANCH   7  21
ATOM     21  C   UNL     1       2.241   5.861  20.206  0.00  0.00    +0.000 C 
BRANCH  21  22
ATOM     22  C   UNL     1       1.773   7.287  20.042  0.00  0.00    +0.000 A 
ATOM     23  C   UNL     1       1.160   7.965  21.106  0.00  0.00    +0.000 A 
ATOM     24  C   UNL     1       0.771   9.302  20.970  0.00  0.00    +0.000 A 
ATOM     25  C   UNL     1       0.975   9.968  19.763  0.00  0.00    +0.000 A 
ATOM     26  C   UNL     1       1.562   9.287  18.702  0.00  0.00    +0.000 A 
ATOM     27  F   UNL     1       1.750   9.919  17.537  0.00  0.00    +0.000 F 
ATOM     28  C   UNL     1       1.958   7.961  18.828  0.00  0.00    +0.000 A 
ENDBRANCH  21  22
ENDBRANCH   7  21
TORSDOF 4
ENDMDL
MODEL 4
REMARK VINA RESULT:      -8.0      0.593      1.067
REMARK  Name = 
REMARK  4 active torsions:
REMARK  status: ('A' for Active; 'I' for Inactive)
REMARK    1  A    between atoms: C_2  and  C_3
REMARK    2  A    between atoms: C_6  and  C_7
REMARK    3  A    between atoms: C_19  and  C_20
REMARK    4  A    between atoms: C_20  and  C_21
REMARK                            x       y       z     vdW  Elec       q    Type
REMARK                         _______ _______ _______ _____ _____    ______ ____
ROOT
ATOM      1  O   UNL     1       6.875   4.656  16.396  0.00  0.00    +0.000 OA
ATOM      2  C   UNL     1       6.430   5.264  17.357  0.00  0.00    +0.000 C 
ATOM      3  N   UNL     1       5.346   4.816  18.100  0.00  0.00    +0.000 N 
ATOM      4  C   UNL     1       4.841   3.463  17.882  0.00  0.00    +0.000 C 
ATOM      5  C   UNL     1       3.388   3.524  17.429  0.00  0.00    +0.000 C 
ATOM      6  O   UNL     1       2.598   4.199  18.419  0.00  0.00    +0.000 OA
ATOM      7  C   UNL     1       3.017   5.563  18.612  0.00  0.00    +0.000 C 
ATOM      8  C   UNL     1       4.509   5.640  18.980  0.00  0.00    +0.000 C 
ENDROOT
BRANCH   2   9
ATOM      9  C   UNL     1       7.104   6.505  17.748  0.00  0.00    +0.000 A 
ATOM     10  C   UNL     1       6.906   7.677  17.055  0.00  0.00    +0.000 A 
ATOM     11  N   UNL     1       7.538   8.834  17.364  0.00  0.00    +0.000 NA
ATOM     12  C   UNL     1       8.407   8.794  18.399  0.00  0.00    +0.000 A 
ATOM     13  N   UNL     1       8.671   7.693  19.128  0.00  0.00    +0.000 NA
ATOM     14  C   UNL     1       8.032   6.568  18.763  0.00  0.00    +0.000 A 
BRANCH  12  15
ATOM     15  C   UNL     1       9.154  10.009  18.721  0.00  0.00    +0.000 A 
ATOM     16  C   UNL     1       9.439  10.385  20.038  0.00  0.00    +0.000 A 
ATOM     17  C   UNL     1      10.166  11.540  20.303  0.00  0.00    +0.000 A 
ATOM     18  C   UNL     1      10.588  12.306  19.232  0.00  0.00    +0.000 A 
ATOM     19  N   UNL     1      10.330  12.000  17.944  0.00  0.00    +0.000 NA
ATOM     20  C   UNL     1       9.621  10.867  17.722  0.00  0.00    +0.000 A 
ENDBRANCH  12  15
ENDBRANCH   2   9
BRANCH   7  21
ATOM     21  C   UNL     1       2.197   6.165  19.764  0.00  0.00    +0.000 C 
BRANCH  21  22
ATOM     22  C   UNL     1       1.821   7.612  19.555  0.00  0.00    +0.000 A 
ATOM     23  C   UNL     1       1.958   8.212  18.294  0.00  0.00    +0.000 A 
ATOM     24  C   UNL     1       1.563   9.539  18.089  0.00  0.00    +0.000 A 
ATOM     25  C   UNL     1       1.046  10.283  19.147  0.00  0.00    +0.000 A 
ATOM     26  C   UNL     1       0.933   9.694  20.401  0.00  0.00    +0.000 A 
ATOM     27  F   UNL     1       0.446  10.409  21.424  0.00  0.00    +0.000 F 
ATOM     28  C   UNL     1       1.315   8.375  20.615  0.00  0.00    +0.000 A 
ENDBRANCH  21  22
ENDBRANCH   7  21
TORSDOF 4
ENDMDL
MODEL 5
REMARK VINA RESULT:      -7.9      0.868      1.072
REMARK  Name = 
REMARK  4 active torsions:
REMARK  status: ('A' for Active; 'I' for Inactive)
REMARK    1  A    between atoms: C_2  and  C_3
REMARK    2  A    between atoms: C_6  and  C_7
REMARK    3  A    between atoms: C_19  and  C_20
REMARK    4  A    between atoms: C_20  and  C_21
REMARK                            x       y       z     vdW  Elec       q    Type
REMARK                         _______ _______ _______ _____ _____    ______ ____
ROOT
ATOM      1  O   UNL     1       6.151   4.570  16.179  0.00  0.00    +0.000 OA
ATOM      2  C   UNL     1       5.899   5.169  17.213  0.00  0.00    +0.000 C 
ATOM      3  N   UNL     1       4.908   4.767  18.099  0.00  0.00    +0.000 N 
ATOM      4  C   UNL     1       4.280   3.460  17.922  0.00  0.00    +0.000 C 
ATOM      5  C   UNL     1       2.784   3.635  17.697  0.00  0.00    +0.000 C 
ATOM      6  O   UNL     1       2.202   4.323  18.812  0.00  0.00    +0.000 OA
ATOM      7  C   UNL     1       2.742   5.648  18.978  0.00  0.00    +0.000 C 
ATOM      8  C   UNL     1       4.273   5.610  19.118  0.00  0.00    +0.000 C 
ENDROOT
BRANCH   2   9
ATOM      9  C   UNL     1       6.711   6.346  17.531  0.00  0.00    +0.000 A 
ATOM     10  C   UNL     1       7.737   6.284  18.445  0.00  0.00    +0.000 A 
ATOM     11  N   UNL     1       8.486   7.358  18.791  0.00  0.00    +0.000 NA
ATOM     12  C   UNL     1       8.172   8.532  18.201  0.00  0.00    +0.000 A 
ATOM     13  N   UNL     1       7.180   8.691  17.303  0.00  0.00    +0.000 NA
ATOM     14  C   UNL     1       6.457   7.596  17.014  0.00  0.00    +0.000 A 
BRANCH  12  15
ATOM     15  C   UNL     1       8.918   9.726  18.597  0.00  0.00    +0.000 A 
ATOM     16  C   UNL     1       9.489  10.596  17.662  0.00  0.00    +0.000 A 
ATOM     17  C   UNL     1      10.178  11.729  18.078  0.00  0.00    +0.000 A 
ATOM     18  C   UNL     1      10.289  11.964  19.436  0.00  0.00    +0.000 A 
ATOM     19  N   UNL     1       9.771  11.153  20.381  0.00  0.00    +0.000 NA
ATOM     20  C   UNL     1       9.105  10.059  19.941  0.00  0.00    +0.000 A 
ENDBRANCH  12  15
ENDBRANCH   2   9
BRANCH   7  21
ATOM     21  C   UNL     1       2.148   6.259  20.257  0.00  0.00    +0.000 C 
BRANCH  21  22
ATOM     22  C   UNL     1       1.661   7.678  20.088  0.00  0.00    +0.000 A 
ATOM     23  C   UNL     1       1.835   8.353  18.869  0.00  0.00    +0.000 A 
ATOM     24  C   UNL     1       1.340   9.650  18.696  0.00  0.00    +0.000 A 
ATOM     25  C   UNL     1       0.685  10.292  19.745  0.00  0.00    +0.000 A 
ATOM     26  C   UNL     1       0.535   9.630  20.959  0.00  0.00    +0.000 A 
ATOM     27  F   UNL     1      -0.085  10.247  21.974  0.00  0.00    +0.000 F 
ATOM     28  C   UNL     1       1.015   8.339  21.140  0.00  0.00    +0.000 A 
ENDBRANCH  21  22
ENDBRANCH   7  21
TORSDOF 4
ENDMDL
MODEL 6
REMARK VINA RESULT:      -7.6      0.740      1.372
REMARK  Name = 
REMARK  4 active torsions:
REMARK  status: ('A' for Active; 'I' for Inactive)
REMARK    1  A    between atoms: C_2  and  C_3
REMARK    2  A    between atoms: C_6  and  C_7
REMARK    3  A    between atoms: C_19  and  C_20
REMARK    4  A    between atoms: C_20  and  C_21
REMARK                            x       y       z     vdW  Elec       q    Type
REMARK                         _______ _______ _______ _____ _____    ______ ____
ROOT
ATOM      1  O   UNL     1       6.391   4.482  16.406  0.00  0.00    +0.000 OA
ATOM      2  C   UNL     1       6.041   5.087  17.407  0.00  0.00    +0.000 C 
ATOM      3  N   UNL     1       5.073   4.608  18.280  0.00  0.00    +0.000 N 
ATOM      4  C   UNL     1       4.601   3.233  18.139  0.00  0.00    +0.000 C 
ATOM      5  C   UNL     1       3.102   3.230  17.865  0.00  0.00    +0.000 C 
ATOM      6  O   UNL     1       2.411   3.889  18.935  0.00  0.00    +0.000 OA
ATOM      7  C   UNL     1       2.794   5.271  19.063  0.00  0.00    +0.000 C 
ATOM      8  C   UNL     1       4.315   5.411  19.247  0.00  0.00    +0.000 C 
ENDROOT
BRANCH   2   9
ATOM      9  C   UNL     1       6.705   6.359  17.701  0.00  0.00    +0.000 A 
ATOM     10  C   UNL     1       6.286   7.536  17.125  0.00  0.00    +0.000 A 
ATOM     11  N   UNL     1       6.898   8.725  17.344  0.00  0.00    +0.000 NA
ATOM     12  C   UNL     1       7.974   8.713  18.160  0.00  0.00    +0.000 A 
ATOM     13  N   UNL     1       8.462   7.609  18.760  0.00  0.00    +0.000 NA
ATOM     14  C   UNL     1       7.829   6.455  18.490  0.00  0.00    +0.000 A 
BRANCH  12  15
ATOM     15  C   UNL     1       8.697   9.967  18.369  0.00  0.00    +0.000 A 
ATOM     16  C   UNL     1       8.562  11.060  17.508  0.00  0.00    +0.000 A 
ATOM     17  C   UNL     1       9.255  12.241  17.748  0.00  0.00    +0.000 A 
ATOM     18  C   UNL     1      10.084  12.298  18.853  0.00  0.00    +0.000 A 
ATOM     19  N   UNL     1      10.263  11.271  19.709  0.00  0.00    +0.000 NA
ATOM     20  C   UNL     1       9.572  10.137  19.445  0.00  0.00    +0.000 A 
ENDBRANCH  12  15
ENDBRANCH   2   9
BRANCH   7  21
ATOM     21  C   UNL     1       2.095   5.858  20.299  0.00  0.00    +0.000 C 
BRANCH  21  22
ATOM     22  C   UNL     1       1.700   7.307  20.148  0.00  0.00    +0.000 A 
ATOM     23  C   UNL     1       1.998   8.010  18.970  0.00  0.00    +0.000 A 
ATOM     24  C   UNL     1       1.589   9.339  18.810  0.00  0.00    +0.000 A 
ATOM     25  C   UNL     1       0.896   9.982  19.833  0.00  0.00    +0.000 A 
ATOM     26  C   UNL     1       0.623   9.291  21.008  0.00  0.00    +0.000 A 
ATOM     27  F   UNL     1      -0.035   9.909  21.999  0.00  0.00    +0.000 F 
ATOM     28  C   UNL     1       1.017   7.969  21.175  0.00  0.00    +0.000 A 
ENDBRANCH  21  22
ENDBRANCH   7  21
TORSDOF 4
ENDMDL
MODEL 7
REMARK VINA RESULT:      -7.6      1.448      2.070
REMARK  Name = 
REMARK  4 active torsions:
REMARK  status: ('A' for Active; 'I' for Inactive)
REMARK    1  A    between atoms: C_2  and  C_3
REMARK    2  A    between atoms: C_6  and  C_7
REMARK    3  A    between atoms: C_19  and  C_20
REMARK    4  A    between atoms: C_20  and  C_21
REMARK                            x       y       z     vdW  Elec       q    Type
REMARK                         _______ _______ _______ _____ _____    ______ ____
ROOT
ATOM      1  O   UNL     1       7.327   5.779  15.822  0.00  0.00    +0.000 OA
ATOM      2  C   UNL     1       6.912   6.072  16.933  0.00  0.00    +0.000 C 
ATOM      3  N   UNL     1       5.925   5.348  17.587  0.00  0.00    +0.000 N 
ATOM      4  C   UNL     1       5.509   4.057  17.046  0.00  0.00    +0.000 C 
ATOM      5  C   UNL     1       4.025   4.097  16.705  0.00  0.00    +0.000 C 
ATOM      6  O   UNL     1       3.264   4.416  17.879  0.00  0.00    +0.000 OA
ATOM      7  C   UNL     1       3.592   5.717  18.403  0.00  0.00    +0.000 C 
ATOM      8  C   UNL     1       5.098   5.834  18.698  0.00  0.00    +0.000 C 
ENDROOT
BRANCH   2   9
ATOM      9  C   UNL     1       7.518   7.227  17.601  0.00  0.00    +0.000 A 
ATOM     10  C   UNL     1       7.336   8.506  17.128  0.00  0.00    +0.000 A 
ATOM     11  N   UNL     1       7.909   9.593  17.697  0.00  0.00    +0.000 NA
ATOM     12  C   UNL     1       8.699   9.371  18.770  0.00  0.00    +0.000 A 
ATOM     13  N   UNL     1       8.943   8.156  19.297  0.00  0.00    +0.000 NA
ATOM     14  C   UNL     1       8.366   7.111  18.679  0.00  0.00    +0.000 A 
BRANCH  12  15
ATOM     15  C   UNL     1       9.384  10.515  19.372  0.00  0.00    +0.000 A 
ATOM     16  C   UNL     1      10.322  11.279  18.670  0.00  0.00    +0.000 A 
ATOM     17  C   UNL     1      10.941  12.368  19.272  0.00  0.00    +0.000 A 
ATOM     18  C   UNL     1      10.611  12.665  20.581  0.00  0.00    +0.000 A 
ATOM     19  N   UNL     1       9.726  11.956  21.310  0.00  0.00    +0.000 NA
ATOM     20  C   UNL     1       9.140  10.903  20.692  0.00  0.00    +0.000 A 
ENDBRANCH  12  15
ENDBRANCH   2   9
BRANCH   7  21
ATOM     21  C   UNL     1       2.819   5.921  19.716  0.00  0.00    +0.000 C 
BRANCH  21  22
ATOM     22  C   UNL     1       2.088   7.239  19.796  0.00  0.00    +0.000 A 
ATOM     23  C   UNL     1       1.464   7.639  20.989  0.00  0.00    +0.000 A 
ATOM     24  C   UNL     1       0.829   8.883  21.078  0.00  0.00    +0.000 A 
ATOM     25  C   UNL     1       0.796   9.730  19.973  0.00  0.00    +0.000 A 
ATOM     26  C   UNL     1       1.395   9.322  18.786  0.00  0.00    +0.000 A 
ATOM     27  F   UNL     1       1.357  10.128  17.717  0.00  0.00    +0.000 F 
ATOM     28  C   UNL     1       2.035   8.092  18.687  0.00  0.00    +0.000 A 
ENDBRANCH  21  22
ENDBRANCH   7  21
TORSDOF 4
ENDMDL
MODEL 8
REMARK VINA RESULT:      -7.5      1.210      1.530
REMARK  Name = 
REMARK  4 active torsions:
REMARK  status: ('A' for Active; 'I' for Inactive)
REMARK    1  A    between atoms: C_2  and  C_3
REMARK    2  A    between atoms: C_6  and  C_7
REMARK    3  A    between atoms: C_19  and  C_20
REMARK    4  A    between atoms: C_20  and  C_21
REMARK                            x       y       z     vdW  Elec       q    Type
REMARK                         _______ _______ _______ _____ _____    ______ ____
ROOT
ATOM      1  O   UNL     1       7.141   5.291  15.983  0.00  0.00    +0.000 OA
ATOM      2  C   UNL     1       6.759   5.736  17.054  0.00  0.00    +0.000 C 
ATOM      3  N   UNL     1       5.768   5.131  17.815  0.00  0.00    +0.000 N 
ATOM      4  C   UNL     1       5.306   3.793  17.451  0.00  0.00    +0.000 C 
ATOM      5  C   UNL     1       3.816   3.833  17.136  0.00  0.00    +0.000 C 
ATOM      6  O   UNL     1       3.091   4.321  18.273  0.00  0.00    +0.000 OA
ATOM      7  C   UNL     1       3.464   5.668  18.620  0.00  0.00    +0.000 C 
ATOM      8  C   UNL     1       4.978   5.778  18.869  0.00  0.00    +0.000 C 
ENDROOT
BRANCH   2   9
ATOM      9  C   UNL     1       7.410   6.949  17.557  0.00  0.00    +0.000 A 
ATOM     10  C   UNL     1       8.276   6.907  18.625  0.00  0.00    +0.000 A 
ATOM     11  N   UNL     1       8.868   8.011  19.140  0.00  0.00    +0.000 NA
ATOM     12  C   UNL     1       8.559   9.192  18.561  0.00  0.00    +0.000 A 
ATOM     13  N   UNL     1       7.717   9.331  17.520  0.00  0.00    +0.000 NA
ATOM     14  C   UNL     1       7.141   8.205  17.063  0.00  0.00    +0.000 A 
BRANCH  12  15
ATOM     15  C   UNL     1       9.131  10.411  19.131  0.00  0.00    +0.000 A 
ATOM     16  C   UNL     1       9.249  10.607  20.511  0.00  0.00    +0.000 A 
ATOM     17  C   UNL     1       9.812  11.774  21.015  0.00  0.00    +0.000 A 
ATOM     18  C   UNL     1      10.239  12.734  20.115  0.00  0.00    +0.000 A 
ATOM     19  N   UNL     1      10.137  12.605  18.777  0.00  0.00    +0.000 NA
ATOM     20  C   UNL     1       9.586  11.455  18.321  0.00  0.00    +0.000 A 
ENDBRANCH  12  15
ENDBRANCH   2   9
BRANCH   7  21
ATOM     21  C   UNL     1       2.726   6.060  19.910  0.00  0.00    +0.000 C 
BRANCH  21  22
ATOM     22  C   UNL     1       2.027   7.396  19.832  0.00  0.00    +0.000 A 
ATOM     23  C   UNL     1       1.335   7.906  20.942  0.00  0.00    +0.000 A 
ATOM     24  C   UNL     1       0.729   9.166  20.886  0.00  0.00    +0.000 A 
ATOM     25  C   UNL     1       0.792   9.919  19.715  0.00  0.00    +0.000 A 
ATOM     26  C   UNL     1       1.458   9.401  18.610  0.00  0.00    +0.000 A 
ATOM     27  F   UNL     1       1.513  10.117  17.479  0.00  0.00    +0.000 F 
ATOM     28  C   UNL     1       2.070   8.155  18.656  0.00  0.00    +0.000 A 
ENDBRANCH  21  22
ENDBRANCH   7  21
TORSDOF 4
ENDMDL
MODEL 9
REMARK VINA RESULT:      -7.4      5.347      8.389
REMARK  Name = 
REMARK  4 active torsions:
REMARK  status: ('A' for Active; 'I' for Inactive)
REMARK    1  A    between atoms: C_2  and  C_3
REMARK    2  A    between atoms: C_6  and  C_7
REMARK    3  A    between atoms: C_19  and  C_20
REMARK    4  A    between atoms: C_20  and  C_21
REMARK                            x       y       z     vdW  Elec       q    Type
REMARK                         _______ _______ _______ _____ _____    ______ ____
ROOT
ATOM      1  O   UNL     1       1.324  11.061  21.249  0.00  0.00    +0.000 OA
ATOM      2  C   UNL     1       0.834  10.699  20.191  0.00  0.00    +0.000 C 
ATOM      3  N   UNL     1      -0.203  11.379  19.565  0.00  0.00    +0.000 N 
ATOM      4  C   UNL     1      -0.589  12.699  20.056  0.00  0.00    +0.000 C 
ATOM      5  C   UNL     1      -2.046  12.675  20.503  0.00  0.00    +0.000 C 
ATOM      6  O   UNL     1      -2.884  12.282  19.408  0.00  0.00    +0.000 OA
ATOM      7  C   UNL     1      -2.585  10.953  18.941  0.00  0.00    +0.000 C 
ATOM      8  C   UNL     1      -1.103  10.823  18.548  0.00  0.00    +0.000 C 
ENDROOT
BRANCH   2   9
ATOM      9  C   UNL     1       1.400   9.508  19.553  0.00  0.00    +0.000 A 
ATOM     10  C   UNL     1       1.580   8.337  20.252  0.00  0.00    +0.000 A 
ATOM     11  N   UNL     1       2.132   7.227  19.706  0.00  0.00    +0.000 NA
ATOM     12  C   UNL     1       2.525   7.316  18.416  0.00  0.00    +0.000 A 
ATOM     13  N   UNL     1       2.397   8.421  17.657  0.00  0.00    +0.000 NA
ATOM     14  C   UNL     1       1.863   9.499  18.256  0.00  0.00    +0.000 A 
BRANCH  12  15
ATOM     15  C   UNL     1       3.183   6.158  17.813  0.00  0.00    +0.000 A 
ATOM     16  C   UNL     1       4.402   6.260  17.134  0.00  0.00    +0.000 A 
ATOM     17  C   UNL     1       5.003   5.133  16.586  0.00  0.00    +0.000 A 
ATOM     18  C   UNL     1       4.360   3.917  16.725  0.00  0.00    +0.000 A 
ATOM     19  N   UNL     1       3.179   3.762  17.356  0.00  0.00    +0.000 NA
ATOM     20  C   UNL     1       2.621   4.880  17.878  0.00  0.00    +0.000 A 
ENDBRANCH  12  15
ENDBRANCH   2   9
BRANCH   7  21
ATOM     21  C   UNL     1      -3.447  10.667  17.702  0.00  0.00    +0.000 C 
BRANCH  21  22
ATOM     22  C   UNL     1      -4.846  11.228  17.787  0.00  0.00    +0.000 A 
ATOM     23  C   UNL     1      -5.776  10.696  18.695  0.00  0.00    +0.000 A 
ATOM     24  C   UNL     1      -7.056  11.248  18.809  0.00  0.00    +0.000 A 
ATOM     25  C   UNL     1      -7.426  12.323  18.003  0.00  0.00    +0.000 A 
ATOM     26  C   UNL     1      -6.511  12.833  17.088  0.00  0.00    +0.000 A 
ATOM     27  F   UNL     1      -6.865  13.860  16.305  0.00  0.00    +0.000 F 
ATOM     28  C   UNL     1      -5.234  12.298  16.972  0.00  0.00    +0.000 A 
ENDBRANCH  21  22
ENDBRANCH   7  21
TORSDOF 4
ENDMDL
