MODEL 1
REMARK VINA RESULT:      -8.2      0.000      0.000
REMARK  Name = 
REMARK  11 active torsions:
REMARK  status: ('A' for Active; 'I' for Inactive)
REMARK    1  A    between atoms: C_1  and  C_2
REMARK    2  A    between atoms: C_2  and  O_3
REMARK    3  A    between atoms: O_3  and  C_4
REMARK    4  A    between atoms: C_4  and  C_5
REMARK    5  A    between atoms: C_4  and  C_28
REMARK    6  A    between atoms: C_5  and  C_6
REMARK    7  A    between atoms: C_11  and  C_12
REMARK    8  A    between atoms: C_12  and  C_13
REMARK    9  A    between atoms: C_15  and  C_16
REMARK   10  A    between atoms: C_23  and  C_24
REMARK   11  A    between atoms: C_28  and  O_30
REMARK                            x       y       z     vdW  Elec       q    Type
REMARK                         _______ _______ _______ _____ _____    ______ ____
ROOT
ATOM      1  C   UNL     1       0.803   9.505  19.191  0.00  0.00    +0.000 A 
ATOM      2  C   UNL     1       0.730   8.971  20.487  0.00  0.00    +0.000 A 
ATOM      3  C   UNL     1       1.439   7.829  20.867  0.00  0.00    +0.000 A 
ATOM      4  C   UNL     1       2.265   7.271  19.905  0.00  0.00    +0.000 A 
ATOM      5  O   UNL     1       3.026   6.163  20.084  0.00  0.00    +0.000 OA
ATOM      6  C   UNL     1       3.705   5.954  18.921  0.00  0.00    +0.000 A 
ATOM      7  C   UNL     1       3.378   6.929  17.998  0.00  0.00    +0.000 A 
ATOM      8  C   UNL     1       2.429   7.780  18.625  0.00  0.00    +0.000 A 
ATOM      9  C   UNL     1       1.685   8.916  18.256  0.00  0.00    +0.000 A 
ENDROOT
BRANCH   1  10
ATOM     10  C   UNL     1      -0.062  10.659  18.710  0.00  0.00    +0.000 C 
BRANCH  10  11
ATOM     11  C   UNL     1      -0.142  11.944  19.557  0.00  0.00    +0.000 C 
BRANCH  11  12
ATOM     12  C   UNL     1      -0.118  13.188  18.660  0.00  0.00    +0.000 C 
ATOM     13  O   UNL     1       0.728  14.070  18.704  0.00  0.00    +0.000 OA
BRANCH  12  14
ATOM     14  O   UNL     1      -1.166  13.212  17.794  0.00  0.00    +0.000 OA
ATOM     15  H   UNL     1      -1.578  14.107  17.840  0.00  0.00    +0.000 HD
ENDBRANCH  12  14
ENDBRANCH  11  12
BRANCH  11  16
ATOM     16  O   UNL     1      -1.292  12.001  20.431  0.00  0.00    +0.000 OA
BRANCH  16  18
ATOM     17  C   UNL     1      -1.162  12.263  22.818  0.00  0.00    +0.000 C 
ATOM     18  C   UNL     1      -1.140  12.966  21.476  0.00  0.00    +0.000 C 
ENDBRANCH  16  18
ENDBRANCH  11  16
ENDBRANCH  10  11
ENDBRANCH   1  10
BRANCH   6  19
ATOM     19  C   UNL     1       4.621   4.786  18.908  0.00  0.00    +0.000 C 
BRANCH  19  20
ATOM     20  C   UNL     1       5.620   4.866  17.813  0.00  0.00    +0.000 A 
ATOM     21  N   UNL     1       5.277   4.537  16.516  0.00  0.00    +0.000 NA
ATOM     22  C   UNL     1       6.392   4.712  15.830  0.00  0.00    +0.000 A 
ATOM     23  O   UNL     1       7.451   5.141  16.588  0.00  0.00    +0.000 OA
ATOM     24  C   UNL     1       6.949   5.241  17.850  0.00  0.00    +0.000 A 
ATOM     25  C   UNL     1       7.866   5.710  18.903  0.00  0.00    +0.000 C 
BRANCH  22  26
ATOM     26  C   UNL     1       6.634   4.525  14.406  0.00  0.00    +0.000 A 
ATOM     27  C   UNL     1       7.601   5.307  13.756  0.00  0.00    +0.000 A 
ATOM     28  C   UNL     1       7.855   5.138  12.392  0.00  0.00    +0.000 A 
ATOM     29  C   UNL     1       7.144   4.187  11.665  0.00  0.00    +0.000 A 
ATOM     30  C   UNL     1       6.175   3.407  12.295  0.00  0.00    +0.000 A 
ATOM     31  C   UNL     1       5.923   3.575  13.657  0.00  0.00    +0.000 A 
ENDBRANCH  22  26
ENDBRANCH  19  20
ENDBRANCH   6  19
TORSDOF 9
ENDMDL
MODEL 2
REMARK VINA RESULT:      -8.2      1.052      1.994
REMARK  Name = 
REMARK  11 active torsions:
REMARK  status: ('A' for Active; 'I' for Inactive)
REMARK    1  A    between atoms: C_1  and  C_2
REMARK    2  A    between atoms: C_2  and  O_3
REMARK    3  A    between atoms: O_3  and  C_4
REMARK    4  A    between atoms: C_4  and  C_5
REMARK    5  A    between atoms: C_4  and  C_28
REMARK    6  A    between atoms: C_5  and  C_6
REMARK    7  A    between atoms: C_11  and  C_12
REMARK    8  A    between atoms: C_12  and  C_13
REMARK    9  A    between atoms: C_15  and  C_16
REMARK   10  A    between atoms: C_23  and  C_24
REMARK   11  A    between atoms: C_28  and  O_30
REMARK                            x       y       z     vdW  Elec       q    Type
REMARK                         _______ _______ _______ _____ _____    ______ ____
ROOT
ATOM      1  C   UNL     1       0.808   9.735  19.247  0.00  0.00    +0.000 A 
ATOM      2  C   UNL     1       0.671   9.152  20.517  0.00  0.00    +0.000 A 
ATOM      3  C   UNL     1       1.301   7.954  20.862  0.00  0.00    +0.000 A 
ATOM      4  C   UNL     1       2.118   7.390  19.897  0.00  0.00    +0.000 A 
ATOM      5  O   UNL     1       2.807   6.231  20.045  0.00  0.00    +0.000 OA
ATOM      6  C   UNL     1       3.503   6.032  18.890  0.00  0.00    +0.000 A 
ATOM      7  C   UNL     1       3.258   7.063  18.003  0.00  0.00    +0.000 A 
ATOM      8  C   UNL     1       2.345   7.941  18.644  0.00  0.00    +0.000 A 
ATOM      9  C   UNL     1       1.679   9.135  18.309  0.00  0.00    +0.000 A 
ENDROOT
BRANCH   1  10
ATOM     10  C   UNL     1       0.026  10.958  18.798  0.00  0.00    +0.000 C 
BRANCH  10  11
ATOM     11  C   UNL     1      -1.315  11.288  19.479  0.00  0.00    +0.000 C 
BRANCH  11  12
ATOM     12  C   UNL     1      -1.239  12.637  20.206  0.00  0.00    +0.000 C 
ATOM     13  O   UNL     1      -0.380  13.487  20.023  0.00  0.00    +0.000 OA
BRANCH  12  14
ATOM     14  O   UNL     1      -2.250  12.790  21.102  0.00  0.00    +0.000 OA
ATOM     15  H   UNL     1      -2.561  11.892  21.366  0.00  0.00    +0.000 HD
ENDBRANCH  12  14
ENDBRANCH  11  12
BRANCH  11  16
ATOM     16  O   UNL     1      -2.447  11.287  18.580  0.00  0.00    +0.000 OA
BRANCH  16  18
ATOM     17  C   UNL     1      -2.752   9.785  16.726  0.00  0.00    +0.000 C 
ATOM     18  C   UNL     1      -2.069  11.044  17.222  0.00  0.00    +0.000 C 
ENDBRANCH  16  18
ENDBRANCH  11  16
ENDBRANCH  10  11
ENDBRANCH   1  10
BRANCH   6  19
ATOM     19  C   UNL     1       4.349   4.812  18.848  0.00  0.00    +0.000 C 
BRANCH  19  20
ATOM     20  C   UNL     1       5.405   4.896  17.808  0.00  0.00    +0.000 A 
ATOM     21  N   UNL     1       5.132   4.573  16.493  0.00  0.00    +0.000 NA
ATOM     22  C   UNL     1       6.282   4.750  15.869  0.00  0.00    +0.000 A 
ATOM     23  O   UNL     1       7.300   5.174  16.685  0.00  0.00    +0.000 OA
ATOM     24  C   UNL     1       6.730   5.270  17.918  0.00  0.00    +0.000 A 
ATOM     25  C   UNL     1       7.589   5.733  19.022  0.00  0.00    +0.000 C 
BRANCH  22  26
ATOM     26  C   UNL     1       6.601   4.568  14.460  0.00  0.00    +0.000 A 
ATOM     27  C   UNL     1       5.917   3.600  13.710  0.00  0.00    +0.000 A 
ATOM     28  C   UNL     1       6.202   3.415  12.354  0.00  0.00    +0.000 A 
ATOM     29  C   UNL     1       7.175   4.195  11.735  0.00  0.00    +0.000 A 
ATOM     30  C   UNL     1       7.869   5.157  12.469  0.00  0.00    +0.000 A 
ATOM     31  C   UNL     1       7.583   5.342  13.822  0.00  0.00    +0.000 A 
ENDBRANCH  22  26
ENDBRANCH  19  20
ENDBRANCH   6  19
TORSDOF 9
ENDMDL
MODEL 3
REMARK VINA RESULT:      -8.1      0.940      1.749
REMARK  Name = 
REMARK  11 active torsions:
REMARK  status: ('A' for Active; 'I' for Inactive)
REMARK    1  A    between atoms: C_1  and  C_2
REMARK    2  A    between atoms: C_2  and  O_3
REMARK    3  A    between atoms: O_3  and  C_4
REMARK    4  A    between atoms: C_4  and  C_5
REMARK    5  A    between atoms: C_4  and  C_28
REMARK    6  A    between atoms: C_5  and  C_6
REMARK    7  A    between atoms: C_11  and  C_12
REMARK    8  A    between atoms: C_12  and  C_13
REMARK    9  A    between atoms: C_15  and  C_16
REMARK   10  A    between atoms: C_23  and  C_24
REMARK   11  A    between atoms: C_28  and  O_30
REMARK                            x       y       z     vdW  Elec       q    Type
REMARK                         _______ _______ _______ _____ _____    ______ ____
ROOT
ATOM      1  C   UNL     1       0.949   9.777  19.552  0.00  0.00    +0.000 A 
ATOM      2  C   UNL     1       1.427   9.862  18.235  0.00  0.00    +0.000 A 
ATOM      3  C   UNL     1       2.206   8.859  17.655  0.00  0.00    +0.000 A 
ATOM      4  C   UNL     1       2.446   7.740  18.436  0.00  0.00    +0.000 A 
ATOM      5  O   UNL     1       3.181   6.668  18.050  0.00  0.00    +0.000 OA
ATOM      6  C   UNL     1       3.159   5.778  19.082  0.00  0.00    +0.000 A 
ATOM      7  C   UNL     1       2.410   6.281  20.128  0.00  0.00    +0.000 A 
ATOM      8  C   UNL     1       1.956   7.564  19.722  0.00  0.00    +0.000 A 
ATOM      9  C   UNL     1       1.195   8.600  20.295  0.00  0.00    +0.000 A 
ENDROOT
BRANCH   1  10
ATOM     10  C   UNL     1       0.219  10.911  20.254  0.00  0.00    +0.000 C 
BRANCH  10  11
ATOM     11  C   UNL     1       0.006  12.244  19.511  0.00  0.00    +0.000 C 
BRANCH  11  12
ATOM     12  C   UNL     1      -1.330  12.238  18.756  0.00  0.00    +0.000 C 
ATOM     13  O   UNL     1      -2.404  11.896  19.229  0.00  0.00    +0.000 OA
BRANCH  12  14
ATOM     14  O   UNL     1      -1.190  12.657  17.470  0.00  0.00    +0.000 OA
ATOM     15  H   UNL     1      -2.046  12.503  17.005  0.00  0.00    +0.000 HD
ENDBRANCH  12  14
ENDBRANCH  11  12
BRANCH  11  16
ATOM     16  O   UNL     1       0.072  13.409  20.364  0.00  0.00    +0.000 OA
BRANCH  16  18
ATOM     17  C   UNL     1      -1.327  13.531  22.317  0.00  0.00    +0.000 C 
ATOM     18  C   UNL     1       0.005  13.077  21.754  0.00  0.00    +0.000 C 
ENDBRANCH  16  18
ENDBRANCH  11  16
ENDBRANCH  10  11
ENDBRANCH   1  10
BRANCH   6  19
ATOM     19  C   UNL     1       3.898   4.510  18.858  0.00  0.00    +0.000 C 
BRANCH  19  20
ATOM     20  C   UNL     1       4.993   4.665  17.867  0.00  0.00    +0.000 A 
ATOM     21  N   UNL     1       4.795   4.350  16.537  0.00  0.00    +0.000 NA
ATOM     22  C   UNL     1       5.960   4.596  15.967  0.00  0.00    +0.000 A 
ATOM     23  O   UNL     1       6.918   5.058  16.833  0.00  0.00    +0.000 OA
ATOM     24  C   UNL     1       6.291   5.104  18.041  0.00  0.00    +0.000 A 
ATOM     25  C   UNL     1       7.076   5.593  19.188  0.00  0.00    +0.000 C 
BRANCH  22  26
ATOM     26  C   UNL     1       6.349   4.454  14.571  0.00  0.00    +0.000 A 
ATOM     27  C   UNL     1       5.642   3.575  13.736  0.00  0.00    +0.000 A 
ATOM     28  C   UNL     1       5.994   3.430  12.391  0.00  0.00    +0.000 A 
ATOM     29  C   UNL     1       7.057   4.162  11.868  0.00  0.00    +0.000 A 
ATOM     30  C   UNL     1       7.774   5.034  12.686  0.00  0.00    +0.000 A 
ATOM     31  C   UNL     1       7.421   5.179  14.028  0.00  0.00    +0.000 A 
ENDBRANCH  22  26
ENDBRANCH  19  20
ENDBRANCH   6  19
TORSDOF 9
ENDMDL
MODEL 4
REMARK VINA RESULT:      -8.0      1.190      2.072
REMARK  Name = 
REMARK  11 active torsions:
REMARK  status: ('A' for Active; 'I' for Inactive)
REMARK    1  A    between atoms: C_1  and  C_2
REMARK    2  A    between atoms: C_2  and  O_3
REMARK    3  A    between atoms: O_3  and  C_4
REMARK    4  A    between atoms: C_4  and  C_5
REMARK    5  A    between atoms: C_4  and  C_28
REMARK    6  A    between atoms: C_5  and  C_6
REMARK    7  A    between atoms: C_11  and  C_12
REMARK    8  A    between atoms: C_12  and  C_13
REMARK    9  A    between atoms: C_15  and  C_16
REMARK   10  A    between atoms: C_23  and  C_24
REMARK   11  A    between atoms: C_28  and  O_30
REMARK                            x       y       z     vdW  Elec       q    Type
REMARK                         _______ _______ _______ _____ _____    ______ ____
ROOT
ATOM      1  C   UNL     1       0.990   8.932  19.909  0.00  0.00    +0.000 A 
ATOM      2  C   UNL     1       1.518   9.196  18.636  0.00  0.00    +0.000 A 
ATOM      3  C   UNL     1       2.464   8.366  18.031  0.00  0.00    +0.000 A 
ATOM      4  C   UNL     1       2.824   7.230  18.736  0.00  0.00    +0.000 A 
ATOM      5  O   UNL     1       3.727   6.310  18.315  0.00  0.00    +0.000 OA
ATOM      6  C   UNL     1       3.782   5.340  19.272  0.00  0.00    +0.000 A 
ATOM      7  C   UNL     1       2.915   5.641  20.305  0.00  0.00    +0.000 A 
ATOM      8  C   UNL     1       2.300   6.877  19.971  0.00  0.00    +0.000 A 
ATOM      9  C   UNL     1       1.367   7.742  20.573  0.00  0.00    +0.000 A 
ENDROOT
BRANCH   1  10
ATOM     10  C   UNL     1       0.068   9.887  20.650  0.00  0.00    +0.000 C 
BRANCH  10  11
ATOM     11  C   UNL     1       0.252  11.406  20.468  0.00  0.00    +0.000 C 
BRANCH  11  12
ATOM     12  C   UNL     1      -0.938  12.172  21.058  0.00  0.00    +0.000 C 
ATOM     13  O   UNL     1      -1.740  12.832  20.412  0.00  0.00    +0.000 OA
BRANCH  12  14
ATOM     14  O   UNL     1      -1.007  12.044  22.410  0.00  0.00    +0.000 OA
ATOM     15  H   UNL     1      -0.280  11.442  22.695  0.00  0.00    +0.000 HD
ENDBRANCH  12  14
ENDBRANCH  11  12
BRANCH  11  16
ATOM     16  O   UNL     1       1.482  11.920  21.026  0.00  0.00    +0.000 OA
BRANCH  16  18
ATOM     17  C   UNL     1       2.415  13.065  19.127  0.00  0.00    +0.000 C 
ATOM     18  C   UNL     1       1.820  13.212  20.513  0.00  0.00    +0.000 C 
ENDBRANCH  16  18
ENDBRANCH  11  16
ENDBRANCH  10  11
ENDBRANCH   1  10
BRANCH   6  19
ATOM     19  C   UNL     1       4.709   4.213  18.997  0.00  0.00    +0.000 C 
BRANCH  19  20
ATOM     20  C   UNL     1       5.646   4.515  17.886  0.00  0.00    +0.000 A 
ATOM     21  N   UNL     1       5.342   4.161  16.587  0.00  0.00    +0.000 NA
ATOM     22  C   UNL     1       6.385   4.567  15.886  0.00  0.00    +0.000 A 
ATOM     23  O   UNL     1       7.361   5.171  16.638  0.00  0.00    +0.000 OA
ATOM     24  C   UNL     1       6.879   5.138  17.911  0.00  0.00    +0.000 A 
ATOM     25  C   UNL     1       7.714   5.745  18.962  0.00  0.00    +0.000 C 
BRANCH  22  26
ATOM     26  C   UNL     1       6.625   4.469  14.453  0.00  0.00    +0.000 A 
ATOM     27  C   UNL     1       7.565   5.315  13.845  0.00  0.00    +0.000 A 
ATOM     28  C   UNL     1       7.816   5.232  12.472  0.00  0.00    +0.000 A 
ATOM     29  C   UNL     1       7.128   4.305  11.694  0.00  0.00    +0.000 A 
ATOM     30  C   UNL     1       6.185   3.462  12.282  0.00  0.00    +0.000 A 
ATOM     31  C   UNL     1       5.937   3.545  13.653  0.00  0.00    +0.000 A 
ENDBRANCH  22  26
ENDBRANCH  19  20
ENDBRANCH   6  19
TORSDOF 9
ENDMDL
MODEL 5
REMARK VINA RESULT:      -7.9      0.872      1.367
REMARK  Name = 
REMARK  11 active torsions:
REMARK  status: ('A' for Active; 'I' for Inactive)
REMARK    1  A    between atoms: C_1  and  C_2
REMARK    2  A    between atoms: C_2  and  O_3
REMARK    3  A    between atoms: O_3  and  C_4
REMARK    4  A    between atoms: C_4  and  C_5
REMARK    5  A    between atoms: C_4  and  C_28
REMARK    6  A    between atoms: C_5  and  C_6
REMARK    7  A    between atoms: C_11  and  C_12
REMARK    8  A    between atoms: C_12  and  C_13
REMARK    9  A    between atoms: C_15  and  C_16
REMARK   10  A    between atoms: C_23  and  C_24
REMARK   11  A    between atoms: C_28  and  O_30
REMARK                            x       y       z     vdW  Elec       q    Type
REMARK                         _______ _______ _______ _____ _____    ______ ____
ROOT
ATOM      1  C   UNL     1       0.756   9.780  19.143  0.00  0.00    +0.000 A 
ATOM      2  C   UNL     1       0.662   9.244  20.437  0.00  0.00    +0.000 A 
ATOM      3  C   UNL     1       1.325   8.073  20.811  0.00  0.00    +0.000 A 
ATOM      4  C   UNL     1       2.127   7.486  19.847  0.00  0.00    +0.000 A 
ATOM      5  O   UNL     1       2.842   6.347  20.022  0.00  0.00    +0.000 OA
ATOM      6  C   UNL     1       3.512   6.116  18.857  0.00  0.00    +0.000 A 
ATOM      7  C   UNL     1       3.225   7.107  17.938  0.00  0.00    +0.000 A 
ATOM      8  C   UNL     1       2.311   7.992  18.569  0.00  0.00    +0.000 A 
ATOM      9  C   UNL     1       1.614   9.160  18.205  0.00  0.00    +0.000 A 
ENDROOT
BRANCH   1  10
ATOM     10  C   UNL     1      -0.061  10.970  18.667  0.00  0.00    +0.000 C 
BRANCH  10  11
ATOM     11  C   UNL     1       0.600  12.361  18.604  0.00  0.00    +0.000 C 
BRANCH  11  12
ATOM     12  C   UNL     1      -0.462  13.468  18.612  0.00  0.00    +0.000 C 
ATOM     13  O   UNL     1      -0.233  14.662  18.490  0.00  0.00    +0.000 OA
BRANCH  12  14
ATOM     14  O   UNL     1      -1.716  12.970  18.782  0.00  0.00    +0.000 OA
ATOM     15  H   UNL     1      -1.645  12.144  19.316  0.00  0.00    +0.000 HD
ENDBRANCH  12  14
ENDBRANCH  11  12
BRANCH  11  16
ATOM     16  O   UNL     1       1.559  12.604  19.656  0.00  0.00    +0.000 OA
BRANCH  16  18
ATOM     17  C   UNL     1       1.643  14.186  21.467  0.00  0.00    +0.000 C 
ATOM     18  C   UNL     1       0.938  12.974  20.891  0.00  0.00    +0.000 C 
ENDBRANCH  16  18
ENDBRANCH  11  16
ENDBRANCH  10  11
ENDBRANCH   1  10
BRANCH   6  19
ATOM     19  C   UNL     1       4.380   4.912  18.840  0.00  0.00    +0.000 C 
BRANCH  19  20
ATOM     20  C   UNL     1       5.415   4.980  17.778  0.00  0.00    +0.000 A 
ATOM     21  N   UNL     1       5.122   4.617  16.478  0.00  0.00    +0.000 NA
ATOM     22  C   UNL     1       6.257   4.790  15.827  0.00  0.00    +0.000 A 
ATOM     23  O   UNL     1       7.284   5.250  16.611  0.00  0.00    +0.000 OA
ATOM     24  C   UNL     1       6.737   5.372  17.852  0.00  0.00    +0.000 A 
ATOM     25  C   UNL     1       7.611   5.877  18.925  0.00  0.00    +0.000 C 
BRANCH  22  26
ATOM     26  C   UNL     1       6.551   4.574  14.417  0.00  0.00    +0.000 A 
ATOM     27  C   UNL     1       5.800   3.643  13.684  0.00  0.00    +0.000 A 
ATOM     28  C   UNL     1       6.061   3.426  12.327  0.00  0.00    +0.000 A 
ATOM     29  C   UNL     1       7.077   4.135  11.693  0.00  0.00    +0.000 A 
ATOM     30  C   UNL     1       7.837   5.059  12.410  0.00  0.00    +0.000 A 
ATOM     31  C   UNL     1       7.575   5.276  13.763  0.00  0.00    +0.000 A 
ENDBRANCH  22  26
ENDBRANCH  19  20
ENDBRANCH   6  19
TORSDOF 9
ENDMDL
MODEL 6
REMARK VINA RESULT:      -7.9      2.872      9.993
REMARK  Name = 
REMARK  11 active torsions:
REMARK  status: ('A' for Active; 'I' for Inactive)
REMARK    1  A    between atoms: C_1  and  C_2
REMARK    2  A    between atoms: C_2  and  O_3
REMARK    3  A    between atoms: O_3  and  C_4
REMARK    4  A    between atoms: C_4  and  C_5
REMARK    5  A    between atoms: C_4  and  C_28
REMARK    6  A    between atoms: C_5  and  C_6
REMARK    7  A    between atoms: C_11  and  C_12
REMARK    8  A    between atoms: C_12  and  C_13
REMARK    9  A    between atoms: C_15  and  C_16
REMARK   10  A    between atoms: C_23  and  C_24
REMARK   11  A    between atoms: C_28  and  O_30
REMARK                            x       y       z     vdW  Elec       q    Type
REMARK                         _______ _______ _______ _____ _____    ______ ____
ROOT
ATOM      1  C   UNL     1       4.359   6.335  16.960  0.00  0.00    +0.000 A 
ATOM      2  C   UNL     1       4.163   5.367  17.958  0.00  0.00    +0.000 A 
ATOM      3  C   UNL     1       3.377   5.606  19.087  0.00  0.00    +0.000 A 
ATOM      4  C   UNL     1       2.754   6.841  19.151  0.00  0.00    +0.000 A 
ATOM      5  O   UNL     1       1.958   7.256  20.168  0.00  0.00    +0.000 OA
ATOM      6  C   UNL     1       1.523   8.507  19.847  0.00  0.00    +0.000 A 
ATOM      7  C   UNL     1       2.041   8.892  18.626  0.00  0.00    +0.000 A 
ATOM      8  C   UNL     1       2.856   7.820  18.175  0.00  0.00    +0.000 A 
ATOM      9  C   UNL     1       3.674   7.568  17.058  0.00  0.00    +0.000 A 
ENDROOT
BRANCH   1  10
ATOM     10  C   UNL     1       5.317   6.154  15.794  0.00  0.00    +0.000 C 
BRANCH  10  11
ATOM     11  C   UNL     1       6.397   5.059  15.868  0.00  0.00    +0.000 C 
BRANCH  11  12
ATOM     12  C   UNL     1       6.822   4.617  14.462  0.00  0.00    +0.000 C 
ATOM     13  O   UNL     1       6.347   3.674  13.847  0.00  0.00    +0.000 OA
BRANCH  12  14
ATOM     14  O   UNL     1       7.814   5.401  13.960  0.00  0.00    +0.000 OA
ATOM     15  H   UNL     1       7.490   5.799  13.118  0.00  0.00    +0.000 HD
ENDBRANCH  12  14
ENDBRANCH  11  12
BRANCH  11  16
ATOM     16  O   UNL     1       7.566   5.437  16.629  0.00  0.00    +0.000 OA
BRANCH  16  18
ATOM     17  C   UNL     1       7.699   5.954  18.975  0.00  0.00    +0.000 C 
ATOM     18  C   UNL     1       7.582   4.856  17.937  0.00  0.00    +0.000 C 
ENDBRANCH  16  18
ENDBRANCH  11  16
ENDBRANCH  10  11
ENDBRANCH   1  10
BRANCH   6  19
ATOM     19  C   UNL     1       0.612   9.146  20.831  0.00  0.00    +0.000 C 
BRANCH  19  20
ATOM     20  C   UNL     1      -0.202  10.228  20.223  0.00  0.00    +0.000 A 
ATOM     21  N   UNL     1      -1.392   9.945  19.583  0.00  0.00    +0.000 NA
ATOM     22  C   UNL     1      -1.826  11.121  19.166  0.00  0.00    +0.000 A 
ATOM     23  O   UNL     1      -1.002  12.167  19.494  0.00  0.00    +0.000 OA
ATOM     24  C   UNL     1       0.029  11.589  20.171  0.00  0.00    +0.000 A 
ATOM     25  C   UNL     1       1.084  12.483  20.679  0.00  0.00    +0.000 C 
BRANCH  22  26
ATOM     26  C   UNL     1      -3.042  11.445  18.433  0.00  0.00    +0.000 A 
ATOM     27  C   UNL     1      -4.119  12.048  19.101  0.00  0.00    +0.000 A 
ATOM     28  C   UNL     1      -5.291  12.375  18.415  0.00  0.00    +0.000 A 
ATOM     29  C   UNL     1      -5.399  12.101  17.054  0.00  0.00    +0.000 A 
ATOM     30  C   UNL     1      -4.341  11.496  16.377  0.00  0.00    +0.000 A 
ATOM     31  C   UNL     1      -3.170  11.172  17.063  0.00  0.00    +0.000 A 
ENDBRANCH  22  26
ENDBRANCH  19  20
ENDBRANCH   6  19
TORSDOF 9
ENDMDL
MODEL 7
REMARK VINA RESULT:      -7.9      1.246      2.249
REMARK  Name = 
REMARK  11 active torsions:
REMARK  status: ('A' for Active; 'I' for Inactive)
REMARK    1  A    between atoms: C_1  and  C_2
REMARK    2  A    between atoms: C_2  and  O_3
REMARK    3  A    between atoms: O_3  and  C_4
REMARK    4  A    between atoms: C_4  and  C_5
REMARK    5  A    between atoms: C_4  and  C_28
REMARK    6  A    between atoms: C_5  and  C_6
REMARK    7  A    between atoms: C_11  and  C_12
REMARK    8  A    between atoms: C_12  and  C_13
REMARK    9  A    between atoms: C_15  and  C_16
REMARK   10  A    between atoms: C_23  and  C_24
REMARK   11  A    between atoms: C_28  and  O_30
REMARK                            x       y       z     vdW  Elec       q    Type
REMARK                         _______ _______ _______ _____ _____    ______ ____
ROOT
ATOM      1  C   UNL     1       1.108   9.395  20.181  0.00  0.00    +0.000 A 
ATOM      2  C   UNL     1       1.446   9.604  18.835  0.00  0.00    +0.000 A 
ATOM      3  C   UNL     1       2.105   8.639  18.071  0.00  0.00    +0.000 A 
ATOM      4  C   UNL     1       2.368   7.433  18.698  0.00  0.00    +0.000 A 
ATOM      5  O   UNL     1       3.001   6.381  18.122  0.00  0.00    +0.000 OA
ATOM      6  C   UNL     1       3.043   5.385  19.052  0.00  0.00    +0.000 A 
ATOM      7  C   UNL     1       2.437   5.800  20.222  0.00  0.00    +0.000 A 
ATOM      8  C   UNL     1       2.011   7.137  20.006  0.00  0.00    +0.000 A 
ATOM      9  C   UNL     1       1.370   8.134  20.765  0.00  0.00    +0.000 A 
ENDROOT
BRANCH   1  10
ATOM     10  C   UNL     1       0.518  10.474  21.075  0.00  0.00    +0.000 C 
BRANCH  10  11
ATOM     11  C   UNL     1      -0.903  10.996  20.790  0.00  0.00    +0.000 C 
BRANCH  11  12
ATOM     12  C   UNL     1      -1.391  11.896  21.932  0.00  0.00    +0.000 C 
ATOM     13  O   UNL     1      -0.963  11.875  23.076  0.00  0.00    +0.000 OA
BRANCH  12  14
ATOM     14  O   UNL     1      -2.379  12.739  21.529  0.00  0.00    +0.000 OA
ATOM     15  H   UNL     1      -3.034  12.813  22.263  0.00  0.00    +0.000 HD
ENDBRANCH  12  14
ENDBRANCH  11  12
BRANCH  11  16
ATOM     16  O   UNL     1      -1.030  11.698  19.533  0.00  0.00    +0.000 OA
BRANCH  16  18
ATOM     17  C   UNL     1      -1.626  10.312  17.659  0.00  0.00    +0.000 C 
ATOM     18  C   UNL     1      -2.134  11.230  18.752  0.00  0.00    +0.000 C 
ENDBRANCH  16  18
ENDBRANCH  11  16
ENDBRANCH  10  11
ENDBRANCH   1  10
BRANCH   6  19
ATOM     19  C   UNL     1       3.686   4.120  18.615  0.00  0.00    +0.000 C 
BRANCH  19  20
ATOM     20  C   UNL     1       4.795   4.355  17.656  0.00  0.00    +0.000 A 
ATOM     21  N   UNL     1       4.646   4.065  16.315  0.00  0.00    +0.000 NA
ATOM     22  C   UNL     1       5.811   4.384  15.781  0.00  0.00    +0.000 A 
ATOM     23  O   UNL     1       6.722   4.871  16.683  0.00  0.00    +0.000 OA
ATOM     24  C   UNL     1       6.065   4.854  17.875  0.00  0.00    +0.000 A 
ATOM     25  C   UNL     1       6.796   5.352  19.053  0.00  0.00    +0.000 C 
BRANCH  22  26
ATOM     26  C   UNL     1       6.241   4.299  14.392  0.00  0.00    +0.000 A 
ATOM     27  C   UNL     1       7.271   5.131  13.929  0.00  0.00    +0.000 A 
ATOM     28  C   UNL     1       7.704   5.060  12.602  0.00  0.00    +0.000 A 
ATOM     29  C   UNL     1       7.109   4.157  11.724  0.00  0.00    +0.000 A 
ATOM     30  C   UNL     1       6.079   3.327  12.167  0.00  0.00    +0.000 A 
ATOM     31  C   UNL     1       5.649   3.399  13.493  0.00  0.00    +0.000 A 
ENDBRANCH  22  26
ENDBRANCH  19  20
ENDBRANCH   6  19
TORSDOF 9
ENDMDL
MODEL 8
REMARK VINA RESULT:      -7.9      1.029      1.936
REMARK  Name = 
REMARK  11 active torsions:
REMARK  status: ('A' for Active; 'I' for Inactive)
REMARK    1  A    between atoms: C_1  and  C_2
REMARK    2  A    between atoms: C_2  and  O_3
REMARK    3  A    between atoms: O_3  and  C_4
REMARK    4  A    between atoms: C_4  and  C_5
REMARK    5  A    between atoms: C_4  and  C_28
REMARK    6  A    between atoms: C_5  and  C_6
REMARK    7  A    between atoms: C_11  and  C_12
REMARK    8  A    between atoms: C_12  and  C_13
REMARK    9  A    between atoms: C_15  and  C_16
REMARK   10  A    between atoms: C_23  and  C_24
REMARK   11  A    between atoms: C_28  and  O_30
REMARK                            x       y       z     vdW  Elec       q    Type
REMARK                         _______ _______ _______ _____ _____    ______ ____
ROOT
ATOM      1  C   UNL     1       0.491   9.702  18.946  0.00  0.00    +0.000 A 
ATOM      2  C   UNL     1       0.502   9.221  20.265  0.00  0.00    +0.000 A 
ATOM      3  C   UNL     1       1.320   8.164  20.669  0.00  0.00    +0.000 A 
ATOM      4  C   UNL     1       2.167   7.641  19.706  0.00  0.00    +0.000 A 
ATOM      5  O   UNL     1       3.029   6.613  19.907  0.00  0.00    +0.000 OA
ATOM      6  C   UNL     1       3.692   6.415  18.733  0.00  0.00    +0.000 A 
ATOM      7  C   UNL     1       3.255   7.316  17.781  0.00  0.00    +0.000 A 
ATOM      8  C   UNL     1       2.250   8.106  18.402  0.00  0.00    +0.000 A 
ATOM      9  C   UNL     1       1.397   9.155  18.010  0.00  0.00    +0.000 A 
ENDROOT
BRANCH   1  10
ATOM     10  C   UNL     1      -0.486  10.754  18.446  0.00  0.00    +0.000 C 
BRANCH  10  11
ATOM     11  C   UNL     1      -0.228  12.238  18.770  0.00  0.00    +0.000 C 
BRANCH  11  12
ATOM     12  C   UNL     1      -1.165  12.722  19.883  0.00  0.00    +0.000 C 
ATOM     13  O   UNL     1      -0.842  12.889  21.051  0.00  0.00    +0.000 OA
BRANCH  12  14
ATOM     14  O   UNL     1      -2.426  12.946  19.427  0.00  0.00    +0.000 OA
ATOM     15  H   UNL     1      -2.932  12.103  19.506  0.00  0.00    +0.000 HD
ENDBRANCH  12  14
ENDBRANCH  11  12
BRANCH  11  16
ATOM     16  O   UNL     1       1.141  12.532  19.128  0.00  0.00    +0.000 OA
BRANCH  16  18
ATOM     17  C   UNL     1       3.192  13.693  18.648  0.00  0.00    +0.000 C 
ATOM     18  C   UNL     1       1.738  13.503  18.264  0.00  0.00    +0.000 C 
ENDBRANCH  16  18
ENDBRANCH  11  16
ENDBRANCH  10  11
ENDBRANCH   1  10
BRANCH   6  19
ATOM     19  C   UNL     1       4.709   5.334  18.740  0.00  0.00    +0.000 C 
BRANCH  19  20
ATOM     20  C   UNL     1       5.613   5.403  17.564  0.00  0.00    +0.000 A 
ATOM     21  N   UNL     1       5.287   4.769  16.382  0.00  0.00    +0.000 NA
ATOM     22  C   UNL     1       6.304   5.032  15.581  0.00  0.00    +0.000 A 
ATOM     23  O   UNL     1       7.281   5.804  16.155  0.00  0.00    +0.000 OA
ATOM     24  C   UNL     1       6.830   6.040  17.418  0.00  0.00    +0.000 A 
ATOM     25  C   UNL     1       7.674   6.878  18.288  0.00  0.00    +0.000 C 
BRANCH  22  26
ATOM     26  C   UNL     1       6.512   4.629  14.197  0.00  0.00    +0.000 A 
ATOM     27  C   UNL     1       5.675   3.662  13.619  0.00  0.00    +0.000 A 
ATOM     28  C   UNL     1       5.853   3.267  12.290  0.00  0.00    +0.000 A 
ATOM     29  C   UNL     1       6.871   3.833  11.527  0.00  0.00    +0.000 A 
ATOM     30  C   UNL     1       7.716   4.790  12.088  0.00  0.00    +0.000 A 
ATOM     31  C   UNL     1       7.536   5.184  13.415  0.00  0.00    +0.000 A 
ENDBRANCH  22  26
ENDBRANCH  19  20
ENDBRANCH   6  19
TORSDOF 9
ENDMDL
MODEL 9
REMARK VINA RESULT:      -7.9      2.651      9.664
REMARK  Name = 
REMARK  11 active torsions:
REMARK  status: ('A' for Active; 'I' for Inactive)
REMARK    1  A    between atoms: C_1  and  C_2
REMARK    2  A    between atoms: C_2  and  O_3
REMARK    3  A    between atoms: O_3  and  C_4
REMARK    4  A    between atoms: C_4  and  C_5
REMARK    5  A    between atoms: C_4  and  C_28
REMARK    6  A    between atoms: C_5  and  C_6
REMARK    7  A    between atoms: C_11  and  C_12
REMARK    8  A    between atoms: C_12  and  C_13
REMARK    9  A    between atoms: C_15  and  C_16
REMARK   10  A    between atoms: C_23  and  C_24
REMARK   11  A    between atoms: C_28  and  O_30
REMARK                            x       y       z     vdW  Elec       q    Type
REMARK                         _______ _______ _______ _____ _____    ______ ____
ROOT
ATOM      1  C   UNL     1       4.047   4.883  18.019  0.00  0.00    +0.000 A 
ATOM      2  C   UNL     1       3.491   4.107  19.048  0.00  0.00    +0.000 A 
ATOM      3  C   UNL     1       2.672   4.654  20.038  0.00  0.00    +0.000 A 
ATOM      4  C   UNL     1       2.391   6.005  19.925  0.00  0.00    +0.000 A 
ATOM      5  O   UNL     1       1.621   6.711  20.790  0.00  0.00    +0.000 OA
ATOM      6  C   UNL     1       1.569   7.991  20.322  0.00  0.00    +0.000 A 
ATOM      7  C   UNL     1       2.306   8.102  19.159  0.00  0.00    +0.000 A 
ATOM      8  C   UNL     1       2.858   6.818  18.904  0.00  0.00    +0.000 A 
ATOM      9  C   UNL     1       3.703   6.252  17.931  0.00  0.00    +0.000 A 
ENDROOT
BRANCH   1  10
ATOM     10  C   UNL     1       5.051   4.346  17.012  0.00  0.00    +0.000 C 
BRANCH  10  11
ATOM     11  C   UNL     1       6.233   5.234  16.579  0.00  0.00    +0.000 C 
BRANCH  11  12
ATOM     12  C   UNL     1       7.283   5.324  17.694  0.00  0.00    +0.000 C 
ATOM     13  O   UNL     1       7.833   4.367  18.221  0.00  0.00    +0.000 OA
BRANCH  12  14
ATOM     14  O   UNL     1       7.541   6.611  18.049  0.00  0.00    +0.000 OA
ATOM     15  H   UNL     1       7.564   6.655  19.034  0.00  0.00    +0.000 HD
ENDBRANCH  12  14
ENDBRANCH  11  12
BRANCH  11  16
ATOM     16  O   UNL     1       6.868   4.810  15.352  0.00  0.00    +0.000 OA
BRANCH  16  18
ATOM     17  C   UNL     1       6.293   3.892  13.203  0.00  0.00    +0.000 C 
ATOM     18  C   UNL     1       6.160   3.747  14.706  0.00  0.00    +0.000 C 
ENDBRANCH  16  18
ENDBRANCH  11  16
ENDBRANCH  10  11
ENDBRANCH   1  10
BRANCH   6  19
ATOM     19  C   UNL     1       0.751   8.938  21.121  0.00  0.00    +0.000 C 
BRANCH  19  20
ATOM     20  C   UNL     1       0.056   9.936  20.271  0.00  0.00    +0.000 A 
ATOM     21  N   UNL     1      -0.997   9.565  19.458  0.00  0.00    +0.000 NA
ATOM     22  C   UNL     1      -1.353  10.684  18.855  0.00  0.00    +0.000 A 
ATOM     23  O   UNL     1      -0.608  11.775  19.219  0.00  0.00    +0.000 OA
ATOM     24  C   UNL     1       0.285  11.291  20.126  0.00  0.00    +0.000 A 
ATOM     25  C   UNL     1       1.226  12.254  20.724  0.00  0.00    +0.000 C 
BRANCH  22  26
ATOM     26  C   UNL     1      -2.417  10.907  17.885  0.00  0.00    +0.000 A 
ATOM     27  C   UNL     1      -3.630  11.477  18.301  0.00  0.00    +0.000 A 
ATOM     28  C   UNL     1      -4.661  11.708  17.385  0.00  0.00    +0.000 A 
ATOM     29  C   UNL     1      -4.490  11.369  16.046  0.00  0.00    +0.000 A 
ATOM     30  C   UNL     1      -3.293  10.795  15.618  0.00  0.00    +0.000 A 
ATOM     31  C   UNL     1      -2.264  10.567  16.533  0.00  0.00    +0.000 A 
ENDBRANCH  22  26
ENDBRANCH  19  20
ENDBRANCH   6  19
TORSDOF 9
ENDMDL
