MODEL 1
REMARK VINA RESULT:      -7.2      0.000      0.000
REMARK  Name = 
REMARK  5 active torsions:
REMARK  status: ('A' for Active; 'I' for Inactive)
REMARK    1  A    between atoms: C_1  and  C_2
REMARK    2  A    between atoms: N_16  and  C_17
REMARK    3  A    between atoms: C_17  and  C_18
REMARK    4  A    between atoms: C_18  and  O_19
REMARK    5  A    between atoms: C_18  and  C_20
REMARK                            x       y       z     vdW  Elec       q    Type
REMARK                         _______ _______ _______ _____ _____    ______ ____
ROOT
ATOM      1  C   UNL     1       6.588   6.713  17.796  0.00  0.00    +0.000 C 
ATOM      2  C   UNL     1       7.083   5.599  16.858  0.00  0.00    +0.000 C 
ATOM      3  C   UNL     1       6.643   4.202  17.369  0.00  0.00    +0.000 C 
ATOM      4  N   UNL     1       5.201   3.979  17.184  0.00  0.00    +0.000 N 
ATOM      5  C   UNL     1       4.380   3.781  18.275  0.00  0.00    +0.000 A 
ATOM      6  C   UNL     1       4.721   2.647  19.209  0.00  0.00    +0.000 A 
ATOM      7  C   UNL     1       3.949   2.433  20.283  0.00  0.00    +0.000 A 
ATOM      8  C   UNL     1       2.864   3.294  20.506  0.00  0.00    +0.000 A 
ATOM      9  N   UNL     1       1.951   3.386  21.448  0.00  0.00    +0.000 NA
ATOM     10  N   UNL     1       1.163   4.456  21.089  0.00  0.00    +0.000 NA
ATOM     11  N   UNL     1       1.577   5.006  19.954  0.00  0.00    +0.000 NA
ATOM     12  N   UNL     1       2.643   4.284  19.574  0.00  0.00    +0.000 N 
ATOM     13  N   UNL     1       3.345   4.560  18.447  0.00  0.00    +0.000 NA
ATOM     14  C   UNL     1       4.649   4.361  15.872  0.00  0.00    +0.000 C 
ATOM     15  C   UNL     1       5.215   5.695  15.334  0.00  0.00    +0.000 C 
ATOM     16  N   UNL     1       6.692   5.848  15.442  0.00  0.00    +0.000 NA
ENDROOT
BRANCH  16  17
ATOM     17  C   UNL     1       7.361   4.930  14.472  0.00  0.00    +0.000 C 
BRANCH  17  18
ATOM     18  C   UNL     1       7.118   5.163  12.949  0.00  0.00    +0.000 C 
BRANCH  18  19
ATOM     19  C   UNL     1       6.735   3.881  12.224  0.00  0.00    +0.000 A 
ATOM     20  C   UNL     1       7.732   3.057  11.684  0.00  0.00    +0.000 A 
ATOM     21  C   UNL     1       7.401   1.832  11.099  0.00  0.00    +0.000 A 
ATOM     22  C   UNL     1       6.073   1.413  11.050  0.00  0.00    +0.000 A 
ATOM     23  C   UNL     1       5.069   2.227  11.566  0.00  0.00    +0.000 A 
ATOM     24  C   UNL     1       5.395   3.458  12.140  0.00  0.00    +0.000 A 
ENDBRANCH  18  19
BRANCH  18  25
ATOM     25  O   UNL     1       8.279   5.671  12.284  0.00  0.00    +0.000 OA
ATOM     26  H   UNL     1       8.835   4.919  12.030  0.00  0.00    +0.000 HD
ENDBRANCH  18  25
ENDBRANCH  17  18
ENDBRANCH  16  17
TORSDOF 4
ENDMDL
MODEL 2
REMARK VINA RESULT:      -7.2      0.336      1.022
REMARK  Name = 
REMARK  5 active torsions:
REMARK  status: ('A' for Active; 'I' for Inactive)
REMARK    1  A    between atoms: C_1  and  C_2
REMARK    2  A    between atoms: N_16  and  C_17
REMARK    3  A    between atoms: C_17  and  C_18
REMARK    4  A    between atoms: C_18  and  O_19
REMARK    5  A    between atoms: C_18  and  C_20
REMARK                            x       y       z     vdW  Elec       q    Type
REMARK                         _______ _______ _______ _____ _____    ______ ____
ROOT
ATOM      1  C   UNL     1       7.084   6.487  18.003  0.00  0.00    +0.000 C 
ATOM      2  C   UNL     1       7.368   5.379  16.975  0.00  0.00    +0.000 C 
ATOM      3  C   UNL     1       6.674   4.051  17.378  0.00  0.00    +0.000 C 
ATOM      4  N   UNL     1       5.216   4.115  17.189  0.00  0.00    +0.000 N 
ATOM      5  C   UNL     1       4.366   3.987  18.269  0.00  0.00    +0.000 A 
ATOM      6  C   UNL     1       4.486   2.738  19.106  0.00  0.00    +0.000 A 
ATOM      7  C   UNL     1       3.682   2.586  20.168  0.00  0.00    +0.000 A 
ATOM      8  C   UNL     1       2.774   3.613  20.468  0.00  0.00    +0.000 A 
ATOM      9  N   UNL     1       1.889   3.797  21.423  0.00  0.00    +0.000 NA
ATOM     10  N   UNL     1       1.316   5.020  21.159  0.00  0.00    +0.000 NA
ATOM     11  N   UNL     1       1.831   5.573  20.067  0.00  0.00    +0.000 NA
ATOM     12  N   UNL     1       2.746   4.698  19.620  0.00  0.00    +0.000 N 
ATOM     13  N   UNL     1       3.493   4.928  18.512  0.00  0.00    +0.000 NA
ATOM     14  C   UNL     1       4.752   4.697  15.917  0.00  0.00    +0.000 C 
ATOM     15  C   UNL     1       5.558   5.941  15.482  0.00  0.00    +0.000 C 
ATOM     16  N   UNL     1       7.037   5.808  15.587  0.00  0.00    +0.000 NA
ENDROOT
BRANCH  16  17
ATOM     17  C   UNL     1       7.530   4.862  14.541  0.00  0.00    +0.000 C 
BRANCH  17  18
ATOM     18  C   UNL     1       7.069   5.088  13.068  0.00  0.00    +0.000 C 
BRANCH  18  19
ATOM     19  C   UNL     1       6.688   3.787  12.377  0.00  0.00    +0.000 A 
ATOM     20  C   UNL     1       5.338   3.436  12.239  0.00  0.00    +0.000 A 
ATOM     21  C   UNL     1       4.971   2.293  11.525  0.00  0.00    +0.000 A 
ATOM     22  C   UNL     1       5.945   1.489  10.936  0.00  0.00    +0.000 A 
ATOM     23  C   UNL     1       7.291   1.814  11.077  0.00  0.00    +0.000 A 
ATOM     24  C   UNL     1       7.662   2.949  11.801  0.00  0.00    +0.000 A 
ENDBRANCH  18  19
BRANCH  18  25
ATOM     25  O   UNL     1       8.091   5.687  12.264  0.00  0.00    +0.000 OA
ATOM     26  H   UNL     1       8.109   5.232  11.409  0.00  0.00    +0.000 HD
ENDBRANCH  18  25
ENDBRANCH  17  18
ENDBRANCH  16  17
TORSDOF 4
ENDMDL
MODEL 3
REMARK VINA RESULT:      -7.2      1.462      1.713
REMARK  Name = 
REMARK  5 active torsions:
REMARK  status: ('A' for Active; 'I' for Inactive)
REMARK    1  A    between atoms: C_1  and  C_2
REMARK    2  A    between atoms: N_16  and  C_17
REMARK    3  A    between atoms: C_17  and  C_18
REMARK    4  A    between atoms: C_18  and  O_19
REMARK    5  A    between atoms: C_18  and  C_20
REMARK                            x       y       z     vdW  Elec       q    Type
REMARK                         _______ _______ _______ _____ _____    ______ ____
ROOT
ATOM      1  C   UNL     1       7.303   5.941  18.473  0.00  0.00    +0.000 C 
ATOM      2  C   UNL     1       7.071   4.907  17.358  0.00  0.00    +0.000 C 
ATOM      3  C   UNL     1       5.728   4.159  17.561  0.00  0.00    +0.000 C 
ATOM      4  N   UNL     1       4.571   5.018  17.266  0.00  0.00    +0.000 N 
ATOM      5  C   UNL     1       3.659   5.326  18.255  0.00  0.00    +0.000 A 
ATOM      6  C   UNL     1       2.982   4.178  18.961  0.00  0.00    +0.000 A 
ATOM      7  C   UNL     1       2.099   4.441  19.933  0.00  0.00    +0.000 A 
ATOM      8  C   UNL     1       1.857   5.782  20.269  0.00  0.00    +0.000 A 
ATOM      9  N   UNL     1       1.100   6.376  21.166  0.00  0.00    +0.000 NA
ATOM     10  N   UNL     1       1.314   7.724  20.988  0.00  0.00    +0.000 NA
ATOM     11  N   UNL     1       2.177   7.955  20.006  0.00  0.00    +0.000 NA
ATOM     12  N   UNL     1       2.524   6.744  19.542  0.00  0.00    +0.000 N 
ATOM     13  N   UNL     1       3.408   6.579  18.527  0.00  0.00    +0.000 NA
ATOM     14  C   UNL     1       4.655   5.817  16.030  0.00  0.00    +0.000 C 
ATOM     15  C   UNL     1       6.052   6.436  15.795  0.00  0.00    +0.000 C 
ATOM     16  N   UNL     1       7.199   5.511  16.003  0.00  0.00    +0.000 NA
ENDROOT
BRANCH  16  17
ATOM     17  C   UNL     1       7.230   4.499  14.904  0.00  0.00    +0.000 C 
BRANCH  17  18
ATOM     18  C   UNL     1       6.938   4.982  13.449  0.00  0.00    +0.000 C 
BRANCH  18  19
ATOM     19  C   UNL     1       6.564   3.834  12.524  0.00  0.00    +0.000 A 
ATOM     20  C   UNL     1       7.566   3.021  11.976  0.00  0.00    +0.000 A 
ATOM     21  C   UNL     1       7.232   1.906  11.202  0.00  0.00    +0.000 A 
ATOM     22  C   UNL     1       5.895   1.587  10.970  0.00  0.00    +0.000 A 
ATOM     23  C   UNL     1       4.889   2.393  11.493  0.00  0.00    +0.000 A 
ATOM     24  C   UNL     1       5.220   3.515  12.257  0.00  0.00    +0.000 A 
ENDBRANCH  18  19
BRANCH  18  25
ATOM     25  O   UNL     1       8.069   5.628  12.853  0.00  0.00    +0.000 OA
ATOM     26  H   UNL     1       7.820   5.909  11.960  0.00  0.00    +0.000 HD
ENDBRANCH  18  25
ENDBRANCH  17  18
ENDBRANCH  16  17
TORSDOF 4
ENDMDL
MODEL 4
REMARK VINA RESULT:      -7.0     10.278     11.546
REMARK  Name = 
REMARK  5 active torsions:
REMARK  status: ('A' for Active; 'I' for Inactive)
REMARK    1  A    between atoms: C_1  and  C_2
REMARK    2  A    between atoms: N_16  and  C_17
REMARK    3  A    between atoms: C_17  and  C_18
REMARK    4  A    between atoms: C_18  and  O_19
REMARK    5  A    between atoms: C_18  and  C_20
REMARK                            x       y       z     vdW  Elec       q    Type
REMARK                         _______ _______ _______ _____ _____    ______ ____
ROOT
ATOM      1  C   UNL     1       5.684  14.083  22.320  0.00  0.00    +0.000 C 
ATOM      2  C   UNL     1       7.148  14.376  22.692  0.00  0.00    +0.000 C 
ATOM      3  C   UNL     1       7.397  14.140  24.205  0.00  0.00    +0.000 C 
ATOM      4  N   UNL     1       7.398  12.708  24.544  0.00  0.00    +0.000 N 
ATOM      5  C   UNL     1       6.454  12.195  25.410  0.00  0.00    +0.000 A 
ATOM      6  C   UNL     1       6.362  12.809  26.785  0.00  0.00    +0.000 A 
ATOM      7  C   UNL     1       5.450  12.341  27.648  0.00  0.00    +0.000 A 
ATOM      8  C   UNL     1       4.599  11.309  27.223  0.00  0.00    +0.000 A 
ATOM      9  N   UNL     1       3.605  10.658  27.785  0.00  0.00    +0.000 NA
ATOM     10  N   UNL     1       3.174   9.759  26.835  0.00  0.00    +0.000 NA
ATOM     11  N   UNL     1       3.888   9.852  25.719  0.00  0.00    +0.000 NA
ATOM     12  N   UNL     1       4.790  10.819  25.950  0.00  0.00    +0.000 N 
ATOM     13  N   UNL     1       5.699  11.203  25.020  0.00  0.00    +0.000 NA
ATOM     14  C   UNL     1       8.166  11.829  23.645  0.00  0.00    +0.000 C 
ATOM     15  C   UNL     1       7.995  12.183  22.150  0.00  0.00    +0.000 C 
ATOM     16  N   UNL     1       8.102  13.632  21.824  0.00  0.00    +0.000 NA
ENDROOT
BRANCH  16  17
ATOM     17  C   UNL     1       9.519  14.077  21.985  0.00  0.00    +0.000 C 
BRANCH  17  18
ATOM     18  C   UNL     1      10.214  14.773  20.773  0.00  0.00    +0.000 C 
BRANCH  18  19
ATOM     19  C   UNL     1      10.771  13.769  19.774  0.00  0.00    +0.000 A 
ATOM     20  C   UNL     1      11.247  12.528  20.218  0.00  0.00    +0.000 A 
ATOM     21  C   UNL     1      11.672  11.561  19.304  0.00  0.00    +0.000 A 
ATOM     22  C   UNL     1      11.623  11.820  17.935  0.00  0.00    +0.000 A 
ATOM     23  C   UNL     1      11.170  13.053  17.478  0.00  0.00    +0.000 A 
ATOM     24  C   UNL     1      10.755  14.026  18.390  0.00  0.00    +0.000 A 
ENDBRANCH  18  19
BRANCH  18  25
ATOM     25  O   UNL     1      11.316  15.593  21.176  0.00  0.00    +0.000 OA
ATOM     26  H   UNL     1      10.980  16.282  21.769  0.00  0.00    +0.000 HD
ENDBRANCH  18  25
ENDBRANCH  17  18
ENDBRANCH  16  17
TORSDOF 4
ENDMDL
MODEL 5
REMARK VINA RESULT:      -6.9      3.690      5.335
REMARK  Name = 
REMARK  5 active torsions:
REMARK  status: ('A' for Active; 'I' for Inactive)
REMARK    1  A    between atoms: C_1  and  C_2
REMARK    2  A    between atoms: N_16  and  C_17
REMARK    3  A    between atoms: C_17  and  C_18
REMARK    4  A    between atoms: C_18  and  O_19
REMARK    5  A    between atoms: C_18  and  C_20
REMARK                            x       y       z     vdW  Elec       q    Type
REMARK                         _______ _______ _______ _____ _____    ______ ____
ROOT
ATOM      1  C   UNL     1       0.997   4.100  19.640  0.00  0.00    +0.000 C 
ATOM      2  C   UNL     1       2.090   4.053  18.558  0.00  0.00    +0.000 C 
ATOM      3  C   UNL     1       2.210   5.415  17.826  0.00  0.00    +0.000 C 
ATOM      4  N   UNL     1       2.830   6.442  18.677  0.00  0.00    +0.000 N 
ATOM      5  C   UNL     1       2.124   7.573  19.032  0.00  0.00    +0.000 A 
ATOM      6  C   UNL     1       1.570   8.428  17.919  0.00  0.00    +0.000 A 
ATOM      7  C   UNL     1       0.871   9.528  18.229  0.00  0.00    +0.000 A 
ATOM      8  C   UNL     1       0.665   9.827  19.585  0.00  0.00    +0.000 A 
ATOM      9  N   UNL     1       0.020  10.780  20.221  0.00  0.00    +0.000 NA
ATOM     10  N   UNL     1       0.192  10.507  21.559  0.00  0.00    +0.000 NA
ATOM     11  N   UNL     1       0.927   9.416  21.742  0.00  0.00    +0.000 NA
ATOM     12  N   UNL     1       1.234   8.980  20.510  0.00  0.00    +0.000 N 
ATOM     13  N   UNL     1       1.978   7.867  20.297  0.00  0.00    +0.000 NA
ATOM     14  C   UNL     1       4.034   6.030  19.420  0.00  0.00    +0.000 C 
ATOM     15  C   UNL     1       3.925   4.610  20.021  0.00  0.00    +0.000 C 
ATOM     16  N   UNL     1       3.390   3.570  19.101  0.00  0.00    +0.000 NA
ENDROOT
BRANCH  16  17
ATOM     17  C   UNL     1       4.401   3.272  18.042  0.00  0.00    +0.000 C 
BRANCH  17  18
ATOM     18  C   UNL     1       5.550   4.301  17.811  0.00  0.00    +0.000 C 
BRANCH  18  19
ATOM     19  C   UNL     1       5.904   4.449  16.338  0.00  0.00    +0.000 A 
ATOM     20  C   UNL     1       7.112   5.052  15.965  0.00  0.00    +0.000 A 
ATOM     21  C   UNL     1       7.493   5.110  14.622  0.00  0.00    +0.000 A 
ATOM     22  C   UNL     1       6.675   4.561  13.636  0.00  0.00    +0.000 A 
ATOM     23  C   UNL     1       5.464   3.973  13.987  0.00  0.00    +0.000 A 
ATOM     24  C   UNL     1       5.075   3.925  15.328  0.00  0.00    +0.000 A 
ENDBRANCH  18  19
BRANCH  18  25
ATOM     25  O   UNL     1       6.759   3.926  18.480  0.00  0.00    +0.000 OA
ATOM     26  H   UNL     1       6.583   3.904  19.432  0.00  0.00    +0.000 HD
ENDBRANCH  18  25
ENDBRANCH  17  18
ENDBRANCH  16  17
TORSDOF 4
ENDMDL
MODEL 6
REMARK VINA RESULT:      -6.9      2.973      4.228
REMARK  Name = 
REMARK  5 active torsions:
REMARK  status: ('A' for Active; 'I' for Inactive)
REMARK    1  A    between atoms: C_1  and  C_2
REMARK    2  A    between atoms: N_16  and  C_17
REMARK    3  A    between atoms: C_17  and  C_18
REMARK    4  A    between atoms: C_18  and  O_19
REMARK    5  A    between atoms: C_18  and  C_20
REMARK                            x       y       z     vdW  Elec       q    Type
REMARK                         _______ _______ _______ _____ _____    ______ ____
ROOT
ATOM      1  C   UNL     1       2.500   3.873  17.696  0.00  0.00    +0.000 C 
ATOM      2  C   UNL     1       3.801   4.349  17.028  0.00  0.00    +0.000 C 
ATOM      3  C   UNL     1       3.809   5.891  16.859  0.00  0.00    +0.000 C 
ATOM      4  N   UNL     1       3.992   6.584  18.144  0.00  0.00    +0.000 N 
ATOM      5  C   UNL     1       3.008   7.418  18.633  0.00  0.00    +0.000 A 
ATOM      6  C   UNL     1       2.566   8.564  17.758  0.00  0.00    +0.000 A 
ATOM      7  C   UNL     1       1.606   9.388  18.198  0.00  0.00    +0.000 A 
ATOM      8  C   UNL     1       1.033   9.133  19.454  0.00  0.00    +0.000 A 
ATOM      9  N   UNL     1       0.078   9.704  20.154  0.00  0.00    +0.000 NA
ATOM     10  N   UNL     1      -0.015   8.968  21.314  0.00  0.00    +0.000 NA
ATOM     11  N   UNL     1       0.863   7.972  21.329  0.00  0.00    +0.000 NA
ATOM     12  N   UNL     1       1.531   8.065  20.168  0.00  0.00    +0.000 N 
ATOM     13  N   UNL     1       2.515   7.198  19.823  0.00  0.00    +0.000 NA
ATOM     14  C   UNL     1       5.047   6.051  19.023  0.00  0.00    +0.000 C 
ATOM     15  C   UNL     1       5.093   4.506  19.059  0.00  0.00    +0.000 C 
ATOM     16  N   UNL     1       5.009   3.837  17.732  0.00  0.00    +0.000 NA
ENDROOT
BRANCH  16  17
ATOM     17  C   UNL     1       6.278   4.066  16.977  0.00  0.00    +0.000 C 
BRANCH  17  18
ATOM     18  C   UNL     1       6.321   5.241  15.951  0.00  0.00    +0.000 C 
BRANCH  18  19
ATOM     19  C   UNL     1       6.586   4.759  14.532  0.00  0.00    +0.000 A 
ATOM     20  C   UNL     1       5.759   3.783  13.958  0.00  0.00    +0.000 A 
ATOM     21  C   UNL     1       5.932   3.399  12.626  0.00  0.00    +0.000 A 
ATOM     22  C   UNL     1       6.929   3.988  11.849  0.00  0.00    +0.000 A 
ATOM     23  C   UNL     1       7.769   4.945  12.408  0.00  0.00    +0.000 A 
ATOM     24  C   UNL     1       7.607   5.322  13.744  0.00  0.00    +0.000 A 
ENDBRANCH  18  19
BRANCH  18  25
ATOM     25  O   UNL     1       7.351   6.189  16.253  0.00  0.00    +0.000 OA
ATOM     26  H   UNL     1       7.192   6.987  15.727  0.00  0.00    +0.000 HD
ENDBRANCH  18  25
ENDBRANCH  17  18
ENDBRANCH  16  17
TORSDOF 4
ENDMDL
MODEL 7
REMARK VINA RESULT:      -6.8      3.935      6.275
REMARK  Name = 
REMARK  5 active torsions:
REMARK  status: ('A' for Active; 'I' for Inactive)
REMARK    1  A    between atoms: C_1  and  C_2
REMARK    2  A    between atoms: N_16  and  C_17
REMARK    3  A    between atoms: C_17  and  C_18
REMARK    4  A    between atoms: C_18  and  O_19
REMARK    5  A    between atoms: C_18  and  C_20
REMARK                            x       y       z     vdW  Elec       q    Type
REMARK                         _______ _______ _______ _____ _____    ______ ____
ROOT
ATOM      1  C   UNL     1       1.072   4.419  19.770  0.00  0.00    +0.000 C 
ATOM      2  C   UNL     1       1.887   4.691  18.493  0.00  0.00    +0.000 C 
ATOM      3  C   UNL     1       1.729   6.164  18.034  0.00  0.00    +0.000 C 
ATOM      4  N   UNL     1       2.446   7.095  18.918  0.00  0.00    +0.000 N 
ATOM      5  C   UNL     1       1.756   8.055  19.629  0.00  0.00    +0.000 A 
ATOM      6  C   UNL     1       0.895   9.017  18.850  0.00  0.00    +0.000 A 
ATOM      7  C   UNL     1       0.203   9.955  19.510  0.00  0.00    +0.000 A 
ATOM      8  C   UNL     1       0.293   9.987  20.910  0.00  0.00    +0.000 A 
ATOM      9  N   UNL     1      -0.260  10.732  21.843  0.00  0.00    +0.000 NA
ATOM     10  N   UNL     1       0.237  10.252  23.034  0.00  0.00    +0.000 NA
ATOM     11  N   UNL     1       1.076   9.242  22.839  0.00  0.00    +0.000 NA
ATOM     12  N   UNL     1       1.124   9.067  21.509  0.00  0.00    +0.000 N 
ATOM     13  N   UNL     1       1.883   8.104  20.929  0.00  0.00    +0.000 NA
ATOM     14  C   UNL     1       3.817   6.707  19.294  0.00  0.00    +0.000 C 
ATOM     15  C   UNL     1       3.961   5.202  19.614  0.00  0.00    +0.000 C 
ATOM     16  N   UNL     1       3.311   4.280  18.643  0.00  0.00    +0.000 NA
ENDROOT
BRANCH  16  17
ATOM     17  C   UNL     1       4.069   4.294  17.356  0.00  0.00    +0.000 C 
BRANCH  17  18
ATOM     18  C   UNL     1       5.584   3.922  17.390  0.00  0.00    +0.000 C 
BRANCH  18  19
ATOM     19  C   UNL     1       6.472   5.138  17.611  0.00  0.00    +0.000 A 
ATOM     20  C   UNL     1       6.342   6.260  16.781  0.00  0.00    +0.000 A 
ATOM     21  C   UNL     1       7.083   7.418  17.031  0.00  0.00    +0.000 A 
ATOM     22  C   UNL     1       7.959   7.471  18.114  0.00  0.00    +0.000 A 
ATOM     23  C   UNL     1       8.113   6.360  18.937  0.00  0.00    +0.000 A 
ATOM     24  C   UNL     1       7.382   5.197  18.683  0.00  0.00    +0.000 A 
ENDBRANCH  18  19
BRANCH  18  25
ATOM     25  O   UNL     1       6.024   3.318  16.169  0.00  0.00    +0.000 OA
ATOM     26  H   UNL     1       5.434   3.609  15.458  0.00  0.00    +0.000 HD
ENDBRANCH  18  25
ENDBRANCH  17  18
ENDBRANCH  16  17
TORSDOF 4
ENDMDL
MODEL 8
REMARK VINA RESULT:      -6.7      3.714      6.744
REMARK  Name = 
REMARK  5 active torsions:
REMARK  status: ('A' for Active; 'I' for Inactive)
REMARK    1  A    between atoms: C_1  and  C_2
REMARK    2  A    between atoms: N_16  and  C_17
REMARK    3  A    between atoms: C_17  and  C_18
REMARK    4  A    between atoms: C_18  and  O_19
REMARK    5  A    between atoms: C_18  and  C_20
REMARK                            x       y       z     vdW  Elec       q    Type
REMARK                         _______ _______ _______ _____ _____    ______ ____
ROOT
ATOM      1  C   UNL     1       6.319   5.700  15.879  0.00  0.00    +0.000 C 
ATOM      2  C   UNL     1       6.553   6.824  16.904  0.00  0.00    +0.000 C 
ATOM      3  C   UNL     1       5.335   6.977  17.852  0.00  0.00    +0.000 C 
ATOM      4  N   UNL     1       5.242   5.864  18.810  0.00  0.00    +0.000 N 
ATOM      5  C   UNL     1       4.148   5.024  18.800  0.00  0.00    +0.000 A 
ATOM      6  C   UNL     1       2.786   5.650  18.966  0.00  0.00    +0.000 A 
ATOM      7  C   UNL     1       1.701   4.865  18.952  0.00  0.00    +0.000 A 
ATOM      8  C   UNL     1       1.879   3.486  18.759  0.00  0.00    +0.000 A 
ATOM      9  N   UNL     1       1.057   2.465  18.663  0.00  0.00    +0.000 NA
ATOM     10  N   UNL     1       1.862   1.365  18.470  0.00  0.00    +0.000 NA
ATOM     11  N   UNL     1       3.146   1.700  18.451  0.00  0.00    +0.000 NA
ATOM     12  N   UNL     1       3.173   3.029  18.635  0.00  0.00    +0.000 N 
ATOM     13  N   UNL     1       4.329   3.737  18.666  0.00  0.00    +0.000 NA
ATOM     14  C   UNL     1       6.499   5.472  19.472  0.00  0.00    +0.000 C 
ATOM     15  C   UNL     1       7.716   5.463  18.520  0.00  0.00    +0.000 C 
ATOM     16  N   UNL     1       7.839   6.653  17.635  0.00  0.00    +0.000 NA
ENDROOT
BRANCH  16  17
ATOM     17  C   UNL     1       8.220   7.846  18.450  0.00  0.00    +0.000 C 
BRANCH  17  18
ATOM     18  C   UNL     1       8.406   9.210  17.717  0.00  0.00    +0.000 C 
BRANCH  18  19
ATOM     19  C   UNL     1       9.300  10.165  18.494  0.00  0.00    +0.000 A 
ATOM     20  C   UNL     1      10.207  10.988  17.812  0.00  0.00    +0.000 A 
ATOM     21  C   UNL     1      10.966  11.935  18.504  0.00  0.00    +0.000 A 
ATOM     22  C   UNL     1      10.825  12.076  19.884  0.00  0.00    +0.000 A 
ATOM     23  C   UNL     1       9.942  11.256  20.578  0.00  0.00    +0.000 A 
ATOM     24  C   UNL     1       9.191  10.300  19.891  0.00  0.00    +0.000 A 
ENDBRANCH  18  19
BRANCH  18  25
ATOM     25  O   UNL     1       7.164   9.894  17.516  0.00  0.00    +0.000 OA
ATOM     26  H   UNL     1       7.360  10.795  17.220  0.00  0.00    +0.000 HD
ENDBRANCH  18  25
ENDBRANCH  17  18
ENDBRANCH  16  17
TORSDOF 4
ENDMDL
MODEL 9
REMARK VINA RESULT:      -6.6      2.856      7.602
REMARK  Name = 
REMARK  5 active torsions:
REMARK  status: ('A' for Active; 'I' for Inactive)
REMARK    1  A    between atoms: C_1  and  C_2
REMARK    2  A    between atoms: N_16  and  C_17
REMARK    3  A    between atoms: C_17  and  C_18
REMARK    4  A    between atoms: C_18  and  O_19
REMARK    5  A    between atoms: C_18  and  C_20
REMARK                            x       y       z     vdW  Elec       q    Type
REMARK                         _______ _______ _______ _____ _____    ______ ____
ROOT
ATOM      1  C   UNL     1       4.640   6.892  16.955  0.00  0.00    +0.000 C 
ATOM      2  C   UNL     1       4.599   5.567  17.735  0.00  0.00    +0.000 C 
ATOM      3  C   UNL     1       4.823   4.357  16.791  0.00  0.00    +0.000 C 
ATOM      4  N   UNL     1       6.219   4.266  16.337  0.00  0.00    +0.000 N 
ATOM      5  C   UNL     1       6.526   4.379  14.997  0.00  0.00    +0.000 A 
ATOM      6  C   UNL     1       5.858   3.420  14.044  0.00  0.00    +0.000 A 
ATOM      7  C   UNL     1       6.126   3.509  12.734  0.00  0.00    +0.000 A 
ATOM      8  C   UNL     1       7.005   4.513  12.301  0.00  0.00    +0.000 A 
ATOM      9  N   UNL     1       7.450   4.891  11.123  0.00  0.00    +0.000 NA
ATOM     10  N   UNL     1       8.290   5.952  11.372  0.00  0.00    +0.000 NA
ATOM     11  N   UNL     1       8.365   6.218  12.671  0.00  0.00    +0.000 NA
ATOM     12  N   UNL     1       7.565   5.320  13.267  0.00  0.00    +0.000 N 
ATOM     13  N   UNL     1       7.381   5.289  14.610  0.00  0.00    +0.000 NA
ATOM     14  C   UNL     1       7.251   4.443  17.374  0.00  0.00    +0.000 C 
ATOM     15  C   UNL     1       6.924   5.572  18.376  0.00  0.00    +0.000 C 
ATOM     16  N   UNL     1       5.530   5.576  18.897  0.00  0.00    +0.000 NA
ENDROOT
BRANCH  16  17
ATOM     17  C   UNL     1       5.338   4.416  19.819  0.00  0.00    +0.000 C 
BRANCH  17  18
ATOM     18  C   UNL     1       4.633   3.141  19.261  0.00  0.00    +0.000 C 
BRANCH  18  19
ATOM     19  C   UNL     1       3.140   3.133  19.552  0.00  0.00    +0.000 A 
ATOM     20  C   UNL     1       2.608   4.009  20.508  0.00  0.00    +0.000 A 
ATOM     21  C   UNL     1       1.228   4.079  20.718  0.00  0.00    +0.000 A 
ATOM     22  C   UNL     1       0.363   3.280  19.973  0.00  0.00    +0.000 A 
ATOM     23  C   UNL     1       0.875   2.393  19.032  0.00  0.00    +0.000 A 
ATOM     24  C   UNL     1       2.255   2.312  18.828  0.00  0.00    +0.000 A 
ENDBRANCH  18  19
BRANCH  18  25
ATOM     25  O   UNL     1       5.160   1.936  19.827  0.00  0.00    +0.000 OA
ATOM     26  H   UNL     1       6.125   2.017  19.866  0.00  0.00    +0.000 HD
ENDBRANCH  18  25
ENDBRANCH  17  18
ENDBRANCH  16  17
TORSDOF 4
ENDMDL
