MODEL 1
REMARK VINA RESULT:      -8.2      0.000      0.000
REMARK  Name = 
REMARK  3 active torsions:
REMARK  status: ('A' for Active; 'I' for Inactive)
REMARK    1  A    between atoms: C_1  and  C_2
REMARK    2  A    between atoms: C_4  and  C_5
REMARK    3  A    between atoms: C_8  and  C_10
REMARK                            x       y       z     vdW  Elec       q    Type
REMARK                         _______ _______ _______ _____ _____    ______ ____
ROOT
ATOM      1  C   UNL     1       3.680   1.302  18.211  0.00  0.00    +0.000 C 
ATOM      2  C   UNL     1       2.366   2.076  18.070  0.00  0.00    +0.000 C 
ATOM      3  C   UNL     1       1.517   2.031  19.343  0.00  0.00    +0.000 C 
ATOM      4  C   UNL     1       2.145   2.851  20.479  0.00  0.00    +0.000 C 
ATOM      5  C   UNL     1       1.238   2.828  21.707  0.00  0.00    +0.000 C 
ATOM      6  C   UNL     1       2.429   4.290  20.011  0.00  0.00    +0.000 C 
ATOM      7  N   UNL     1       3.218   4.305  18.774  0.00  0.00    +0.000 N 
ATOM      8  C   UNL     1       4.434   5.005  18.770  0.00  0.00    +0.000 C 
ATOM      9  O   UNL     1       4.878   5.550  19.780  0.00  0.00    +0.000 OA
ATOM     10  C   UNL     1       2.643   3.527  17.673  0.00  0.00    +0.000 C 
ENDROOT
BRANCH   8  11
ATOM     11  C   UNL     1       5.281   5.090  17.545  0.00  0.00    +0.000 A 
ATOM     12  C   UNL     1       6.535   5.718  17.650  0.00  0.00    +0.000 A 
ATOM     13  C   UNL     1       7.381   5.811  16.539  0.00  0.00    +0.000 A 
ATOM     14  C   UNL     1       6.987   5.255  15.325  0.00  0.00    +0.000 A 
ATOM     15  C   UNL     1       5.741   4.630  15.216  0.00  0.00    +0.000 A 
ATOM     16  C   UNL     1       4.863   4.619  16.297  0.00  0.00    +0.000 A 
ATOM     17  O   UNL     1       5.312   3.996  14.077  0.00  0.00    +0.000 OA
ATOM     18  C   UNL     1       6.397   3.778  13.165  0.00  0.00    +0.000 C 
ATOM     19  C   UNL     1       7.225   5.045  13.031  0.00  0.00    +0.000 C 
ATOM     20  O   UNL     1       7.864   5.357  14.276  0.00  0.00    +0.000 OA
ENDBRANCH   8  11
TORSDOF 1
ENDMDL
MODEL 2
REMARK VINA RESULT:      -7.9      1.422      1.749
REMARK  Name = 
REMARK  3 active torsions:
REMARK  status: ('A' for Active; 'I' for Inactive)
REMARK    1  A    between atoms: C_1  and  C_2
REMARK    2  A    between atoms: C_4  and  C_5
REMARK    3  A    between atoms: C_8  and  C_10
REMARK                            x       y       z     vdW  Elec       q    Type
REMARK                         _______ _______ _______ _____ _____    ______ ____
ROOT
ATOM      1  C   UNL     1       1.412   4.157  17.774  0.00  0.00    +0.000 C 
ATOM      2  C   UNL     1       1.614   5.010  19.030  0.00  0.00    +0.000 C 
ATOM      3  C   UNL     1       0.935   4.410  20.264  0.00  0.00    +0.000 C 
ATOM      4  C   UNL     1       1.639   3.132  20.739  0.00  0.00    +0.000 C 
ATOM      5  C   UNL     1       0.967   2.602  22.004  0.00  0.00    +0.000 C 
ATOM      6  C   UNL     1       3.139   3.394  20.962  0.00  0.00    +0.000 C 
ATOM      7  N   UNL     1       3.760   3.996  19.776  0.00  0.00    +0.000 N 
ATOM      8  C   UNL     1       4.861   3.346  19.199  0.00  0.00    +0.000 C 
ATOM      9  O   UNL     1       5.279   2.268  19.622  0.00  0.00    +0.000 OA
ATOM     10  C   UNL     1       3.105   5.217  19.298  0.00  0.00    +0.000 C 
ENDROOT
BRANCH   8  11
ATOM     11  C   UNL     1       5.564   3.907  18.010  0.00  0.00    +0.000 A 
ATOM     12  C   UNL     1       6.641   4.783  18.230  0.00  0.00    +0.000 A 
ATOM     13  C   UNL     1       7.350   5.326  17.153  0.00  0.00    +0.000 A 
ATOM     14  C   UNL     1       7.000   4.977  15.852  0.00  0.00    +0.000 A 
ATOM     15  C   UNL     1       5.930   4.106  15.628  0.00  0.00    +0.000 A 
ATOM     16  C   UNL     1       5.168   3.639  16.696  0.00  0.00    +0.000 A 
ATOM     17  O   UNL     1       5.570   3.658  14.382  0.00  0.00    +0.000 OA
ATOM     18  C   UNL     1       6.599   3.921  13.419  0.00  0.00    +0.000 C 
ATOM     19  C   UNL     1       7.095   5.350  13.568  0.00  0.00    +0.000 C 
ATOM     20  O   UNL     1       7.743   5.523  14.836  0.00  0.00    +0.000 OA
ENDBRANCH   8  11
TORSDOF 1
ENDMDL
MODEL 3
REMARK VINA RESULT:      -7.8      1.547      2.294
REMARK  Name = 
REMARK  3 active torsions:
REMARK  status: ('A' for Active; 'I' for Inactive)
REMARK    1  A    between atoms: C_1  and  C_2
REMARK    2  A    between atoms: C_4  and  C_5
REMARK    3  A    between atoms: C_8  and  C_10
REMARK                            x       y       z     vdW  Elec       q    Type
REMARK                         _______ _______ _______ _____ _____    ______ ____
ROOT
ATOM      1  C   UNL     1       2.379   6.310  18.162  0.00  0.00    +0.000 C 
ATOM      2  C   UNL     1       3.100   6.024  19.483  0.00  0.00    +0.000 C 
ATOM      3  C   UNL     1       2.193   5.343  20.512  0.00  0.00    +0.000 C 
ATOM      4  C   UNL     1       1.862   3.898  20.114  0.00  0.00    +0.000 C 
ATOM      5  C   UNL     1       1.008   3.238  21.194  0.00  0.00    +0.000 C 
ATOM      6  C   UNL     1       3.153   3.103  19.849  0.00  0.00    +0.000 C 
ATOM      7  N   UNL     1       4.017   3.791  18.883  0.00  0.00    +0.000 N 
ATOM      8  C   UNL     1       4.402   3.100  17.724  0.00  0.00    +0.000 C 
ATOM      9  O   UNL     1       3.993   1.967  17.472  0.00  0.00    +0.000 OA
ATOM     10  C   UNL     1       4.347   5.175  19.236  0.00  0.00    +0.000 C 
ENDROOT
BRANCH   8  11
ATOM     11  C   UNL     1       5.300   3.720  16.707  0.00  0.00    +0.000 A 
ATOM     12  C   UNL     1       6.347   4.541  17.163  0.00  0.00    +0.000 A 
ATOM     13  C   UNL     1       7.233   5.135  16.257  0.00  0.00    +0.000 A 
ATOM     14  C   UNL     1       7.091   4.891  14.894  0.00  0.00    +0.000 A 
ATOM     15  C   UNL     1       6.052   4.075  14.437  0.00  0.00    +0.000 A 
ATOM     16  C   UNL     1       5.117   3.560  15.331  0.00  0.00    +0.000 A 
ATOM     17  O   UNL     1       5.889   3.729  13.119  0.00  0.00    +0.000 OA
ATOM     18  C   UNL     1       7.066   4.025  12.356  0.00  0.00    +0.000 C 
ATOM     19  C   UNL     1       7.564   5.421  12.690  0.00  0.00    +0.000 C 
ATOM     20  O   UNL     1       8.000   5.482  14.054  0.00  0.00    +0.000 OA
ENDBRANCH   8  11
TORSDOF 1
ENDMDL
MODEL 4
REMARK VINA RESULT:      -7.4      3.905      6.539
REMARK  Name = 
REMARK  3 active torsions:
REMARK  status: ('A' for Active; 'I' for Inactive)
REMARK    1  A    between atoms: C_1  and  C_2
REMARK    2  A    between atoms: C_4  and  C_5
REMARK    3  A    between atoms: C_8  and  C_10
REMARK                            x       y       z     vdW  Elec       q    Type
REMARK                         _______ _______ _______ _____ _____    ______ ____
ROOT
ATOM      1  C   UNL     1       0.515   3.780  20.057  0.00  0.00    +0.000 C 
ATOM      2  C   UNL     1       1.826   3.579  20.823  0.00  0.00    +0.000 C 
ATOM      3  C   UNL     1       2.579   2.322  20.381  0.00  0.00    +0.000 C 
ATOM      4  C   UNL     1       3.160   2.470  18.969  0.00  0.00    +0.000 C 
ATOM      5  C   UNL     1       3.952   1.219  18.592  0.00  0.00    +0.000 C 
ATOM      6  C   UNL     1       4.026   3.738  18.872  0.00  0.00    +0.000 C 
ATOM      7  N   UNL     1       3.292   4.924  19.329  0.00  0.00    +0.000 N 
ATOM      8  C   UNL     1       3.167   6.010  18.449  0.00  0.00    +0.000 C 
ATOM      9  O   UNL     1       3.602   5.971  17.298  0.00  0.00    +0.000 OA
ATOM     10  C   UNL     1       2.723   4.809  20.675  0.00  0.00    +0.000 C 
ENDROOT
BRANCH   8  11
ATOM     11  C   UNL     1       2.459   7.260  18.847  0.00  0.00    +0.000 A 
ATOM     12  C   UNL     1       2.261   8.249  17.868  0.00  0.00    +0.000 A 
ATOM     13  C   UNL     1       1.586   9.435  18.179  0.00  0.00    +0.000 A 
ATOM     14  C   UNL     1       1.086   9.627  19.463  0.00  0.00    +0.000 A 
ATOM     15  C   UNL     1       1.280   8.646  20.440  0.00  0.00    +0.000 A 
ATOM     16  C   UNL     1       2.031   7.508  20.155  0.00  0.00    +0.000 A 
ATOM     17  O   UNL     1       0.756   8.728  21.706  0.00  0.00    +0.000 OA
ATOM     18  C   UNL     1      -0.252   9.744  21.785  0.00  0.00    +0.000 C 
ATOM     19  C   UNL     1       0.239  11.015  21.112  0.00  0.00    +0.000 C 
ATOM     20  O   UNL     1       0.416  10.799  19.706  0.00  0.00    +0.000 OA
ENDBRANCH   8  11
TORSDOF 1
ENDMDL
MODEL 5
REMARK VINA RESULT:      -7.2      1.286      2.092
REMARK  Name = 
REMARK  3 active torsions:
REMARK  status: ('A' for Active; 'I' for Inactive)
REMARK    1  A    between atoms: C_1  and  C_2
REMARK    2  A    between atoms: C_4  and  C_5
REMARK    3  A    between atoms: C_8  and  C_10
REMARK                            x       y       z     vdW  Elec       q    Type
REMARK                         _______ _______ _______ _____ _____    ______ ____
ROOT
ATOM      1  C   UNL     1       2.268   2.274  17.603  0.00  0.00    +0.000 C 
ATOM      2  C   UNL     1       1.797   3.683  17.979  0.00  0.00    +0.000 C 
ATOM      3  C   UNL     1       1.466   3.814  19.468  0.00  0.00    +0.000 C 
ATOM      4  C   UNL     1       2.726   3.754  20.342  0.00  0.00    +0.000 C 
ATOM      5  C   UNL     1       2.357   3.949  21.811  0.00  0.00    +0.000 C 
ATOM      6  C   UNL     1       3.757   4.796  19.874  0.00  0.00    +0.000 C 
ATOM      7  N   UNL     1       4.035   4.668  18.438  0.00  0.00    +0.000 N 
ATOM      8  C   UNL     1       5.364   4.471  18.033  0.00  0.00    +0.000 C 
ATOM      9  O   UNL     1       6.282   4.346  18.842  0.00  0.00    +0.000 OA
ATOM     10  C   UNL     1       2.848   4.719  17.580  0.00  0.00    +0.000 C 
ENDROOT
BRANCH   8  11
ATOM     11  C   UNL     1       5.731   4.358  16.592  0.00  0.00    +0.000 A 
ATOM     12  C   UNL     1       4.914   3.572  15.761  0.00  0.00    +0.000 A 
ATOM     13  C   UNL     1       5.198   3.444  14.396  0.00  0.00    +0.000 A 
ATOM     14  C   UNL     1       6.285   4.122  13.853  0.00  0.00    +0.000 A 
ATOM     15  C   UNL     1       7.101   4.905  14.675  0.00  0.00    +0.000 A 
ATOM     16  C   UNL     1       6.871   4.957  16.048  0.00  0.00    +0.000 A 
ATOM     17  O   UNL     1       8.145   5.659  14.204  0.00  0.00    +0.000 OA
ATOM     18  C   UNL     1       8.083   5.797  12.778  0.00  0.00    +0.000 C 
ATOM     19  C   UNL     1       7.808   4.447  12.138  0.00  0.00    +0.000 C 
ATOM     20  O   UNL     1       6.504   3.977  12.506  0.00  0.00    +0.000 OA
ENDBRANCH   8  11
TORSDOF 1
ENDMDL
MODEL 6
REMARK VINA RESULT:      -7.1      3.849      6.240
REMARK  Name = 
REMARK  3 active torsions:
REMARK  status: ('A' for Active; 'I' for Inactive)
REMARK    1  A    between atoms: C_1  and  C_2
REMARK    2  A    between atoms: C_4  and  C_5
REMARK    3  A    between atoms: C_8  and  C_10
REMARK                            x       y       z     vdW  Elec       q    Type
REMARK                         _______ _______ _______ _____ _____    ______ ____
ROOT
ATOM      1  C   UNL     1       0.923   3.830  17.430  0.00  0.00    +0.000 C 
ATOM      2  C   UNL     1       0.949   3.279  18.860  0.00  0.00    +0.000 C 
ATOM      3  C   UNL     1       1.802   2.014  18.987  0.00  0.00    +0.000 C 
ATOM      4  C   UNL     1       3.299   2.315  18.831  0.00  0.00    +0.000 C 
ATOM      5  C   UNL     1       4.114   1.038  19.024  0.00  0.00    +0.000 C 
ATOM      6  C   UNL     1       3.732   3.418  19.813  0.00  0.00    +0.000 C 
ATOM      7  N   UNL     1       2.881   4.608  19.691  0.00  0.00    +0.000 N 
ATOM      8  C   UNL     1       3.495   5.839  19.415  0.00  0.00    +0.000 C 
ATOM      9  O   UNL     1       4.706   5.936  19.219  0.00  0.00    +0.000 OA
ATOM     10  C   UNL     1       1.445   4.349  19.833  0.00  0.00    +0.000 C 
ENDROOT
BRANCH   8  11
ATOM     11  C   UNL     1       2.703   7.098  19.304  0.00  0.00    +0.000 A 
ATOM     12  C   UNL     1       2.663   7.745  18.056  0.00  0.00    +0.000 A 
ATOM     13  C   UNL     1       1.921   8.920  17.886  0.00  0.00    +0.000 A 
ATOM     14  C   UNL     1       1.196   9.437  18.955  0.00  0.00    +0.000 A 
ATOM     15  C   UNL     1       1.232   8.796  20.197  0.00  0.00    +0.000 A 
ATOM     16  C   UNL     1       2.044   7.681  20.389  0.00  0.00    +0.000 A 
ATOM     17  O   UNL     1       0.489   9.203  21.277  0.00  0.00    +0.000 OA
ATOM     18  C   UNL     1      -0.537  10.123  20.885  0.00  0.00    +0.000 C 
ATOM     19  C   UNL     1       0.042  11.178  19.956  0.00  0.00    +0.000 C 
ATOM     20  O   UNL     1       0.470  10.578  18.726  0.00  0.00    +0.000 OA
ENDBRANCH   8  11
TORSDOF 1
ENDMDL
MODEL 7
REMARK VINA RESULT:      -6.8      4.323      7.243
REMARK  Name = 
REMARK  3 active torsions:
REMARK  status: ('A' for Active; 'I' for Inactive)
REMARK    1  A    between atoms: C_1  and  C_2
REMARK    2  A    between atoms: C_4  and  C_5
REMARK    3  A    between atoms: C_8  and  C_10
REMARK                            x       y       z     vdW  Elec       q    Type
REMARK                         _______ _______ _______ _____ _____    ______ ____
ROOT
ATOM      1  C   UNL     1       1.471   4.242  18.425  0.00  0.00    +0.000 C 
ATOM      2  C   UNL     1       2.859   4.215  19.074  0.00  0.00    +0.000 C 
ATOM      3  C   UNL     1       3.897   3.491  18.212  0.00  0.00    +0.000 C 
ATOM      4  C   UNL     1       4.249   4.290  16.950  0.00  0.00    +0.000 C 
ATOM      5  C   UNL     1       5.329   3.561  16.152  0.00  0.00    +0.000 C 
ATOM      6  C   UNL     1       4.686   5.718  17.320  0.00  0.00    +0.000 C 
ATOM      7  N   UNL     1       3.688   6.380  18.170  0.00  0.00    +0.000 N 
ATOM      8  C   UNL     1       3.152   7.602  17.739  0.00  0.00    +0.000 C 
ATOM      9  O   UNL     1       3.450   8.100  16.653  0.00  0.00    +0.000 OA
ATOM     10  C   UNL     1       3.330   5.637  19.382  0.00  0.00    +0.000 C 
ENDROOT
BRANCH   8  11
ATOM     11  C   UNL     1       2.155   8.349  18.558  0.00  0.00    +0.000 A 
ATOM     12  C   UNL     1       1.324   9.276  17.904  0.00  0.00    +0.000 A 
ATOM     13  C   UNL     1       0.356   9.993  18.618  0.00  0.00    +0.000 A 
ATOM     14  C   UNL     1       0.199   9.767  19.982  0.00  0.00    +0.000 A 
ATOM     15  C   UNL     1       1.022   8.846  20.636  0.00  0.00    +0.000 A 
ATOM     16  C   UNL     1       2.045   8.202  19.943  0.00  0.00    +0.000 A 
ATOM     17  O   UNL     1       0.881   8.515  21.960  0.00  0.00    +0.000 OA
ATOM     18  C   UNL     1      -0.378   8.966  22.476  0.00  0.00    +0.000 C 
ATOM     19  C   UNL     1      -0.628  10.403  22.050  0.00  0.00    +0.000 C 
ATOM     20  O   UNL     1      -0.779  10.482  20.626  0.00  0.00    +0.000 OA
ENDBRANCH   8  11
TORSDOF 1
ENDMDL
MODEL 8
REMARK VINA RESULT:      -6.8      4.087      6.417
REMARK  Name = 
REMARK  3 active torsions:
REMARK  status: ('A' for Active; 'I' for Inactive)
REMARK    1  A    between atoms: C_1  and  C_2
REMARK    2  A    between atoms: C_4  and  C_5
REMARK    3  A    between atoms: C_8  and  C_10
REMARK                            x       y       z     vdW  Elec       q    Type
REMARK                         _______ _______ _______ _____ _____    ______ ____
ROOT
ATOM      1  C   UNL     1       0.424   3.629  20.030  0.00  0.00    +0.000 C 
ATOM      2  C   UNL     1       1.719   3.384  20.811  0.00  0.00    +0.000 C 
ATOM      3  C   UNL     1       2.509   2.186  20.278  0.00  0.00    +0.000 C 
ATOM      4  C   UNL     1       3.124   2.475  18.901  0.00  0.00    +0.000 C 
ATOM      5  C   UNL     1       3.952   1.279  18.435  0.00  0.00    +0.000 C 
ATOM      6  C   UNL     1       3.965   3.763  18.946  0.00  0.00    +0.000 C 
ATOM      7  N   UNL     1       3.194   4.888  19.489  0.00  0.00    +0.000 N 
ATOM      8  C   UNL     1       3.070   6.047  18.708  0.00  0.00    +0.000 C 
ATOM      9  O   UNL     1       3.536   6.123  17.571  0.00  0.00    +0.000 OA
ATOM     10  C   UNL     1       2.592   4.638  20.802  0.00  0.00    +0.000 C 
ENDROOT
BRANCH   8  11
ATOM     11  C   UNL     1       2.325   7.242  19.199  0.00  0.00    +0.000 A 
ATOM     12  C   UNL     1       1.818   7.212  20.510  0.00  0.00    +0.000 A 
ATOM     13  C   UNL     1       1.128   8.312  21.033  0.00  0.00    +0.000 A 
ATOM     14  C   UNL     1       0.963   9.455  20.255  0.00  0.00    +0.000 A 
ATOM     15  C   UNL     1       1.466   9.489  18.951  0.00  0.00    +0.000 A 
ATOM     16  C   UNL     1       2.072   8.361  18.402  0.00  0.00    +0.000 A 
ATOM     17  O   UNL     1       1.408  10.601  18.150  0.00  0.00    +0.000 OA
ATOM     18  C   UNL     1       1.082  11.772  18.910  0.00  0.00    +0.000 C 
ATOM     19  C   UNL     1      -0.084  11.478  19.839  0.00  0.00    +0.000 C 
ATOM     20  O   UNL     1       0.297  10.509  20.826  0.00  0.00    +0.000 OA
ENDBRANCH   8  11
TORSDOF 1
ENDMDL
MODEL 9
REMARK VINA RESULT:      -6.6      9.364     12.126
REMARK  Name = 
REMARK  3 active torsions:
REMARK  status: ('A' for Active; 'I' for Inactive)
REMARK    1  A    between atoms: C_1  and  C_2
REMARK    2  A    between atoms: C_4  and  C_5
REMARK    3  A    between atoms: C_8  and  C_10
REMARK                            x       y       z     vdW  Elec       q    Type
REMARK                         _______ _______ _______ _____ _____    ______ ____
ROOT
ATOM      1  C   UNL     1       1.142  11.906  19.456  0.00  0.00    +0.000 C 
ATOM      2  C   UNL     1       0.197  10.775  19.038  0.00  0.00    +0.000 C 
ATOM      3  C   UNL     1       0.928   9.446  18.831  0.00  0.00    +0.000 C 
ATOM      4  C   UNL     1       1.424   8.852  20.157  0.00  0.00    +0.000 C 
ATOM      5  C   UNL     1       2.091   7.501  19.910  0.00  0.00    +0.000 C 
ATOM      6  C   UNL     1       0.265   8.736  21.162  0.00  0.00    +0.000 C 
ATOM      7  N   UNL     1      -0.437  10.015  21.321  0.00  0.00    +0.000 N 
ATOM      8  C   UNL     1      -0.542  10.561  22.610  0.00  0.00    +0.000 C 
ATOM      9  O   UNL     1      -0.018  10.031  23.589  0.00  0.00    +0.000 OA
ATOM     10  C   UNL     1      -0.919  10.607  20.069  0.00  0.00    +0.000 C 
ENDROOT
BRANCH   8  11
ATOM     11  C   UNL     1      -1.262  11.843  22.857  0.00  0.00    +0.000 A 
ATOM     12  C   UNL     1      -0.579  13.046  22.603  0.00  0.00    +0.000 A 
ATOM     13  C   UNL     1      -1.210  14.279  22.799  0.00  0.00    +0.000 A 
ATOM     14  C   UNL     1      -2.534  14.316  23.226  0.00  0.00    +0.000 A 
ATOM     15  C   UNL     1      -3.218  13.123  23.479  0.00  0.00    +0.000 A 
ATOM     16  C   UNL     1      -2.560  11.900  23.372  0.00  0.00    +0.000 A 
ATOM     17  O   UNL     1      -4.543  13.073  23.832  0.00  0.00    +0.000 OA
ATOM     18  C   UNL     1      -5.192  14.328  23.588  0.00  0.00    +0.000 C 
ATOM     19  C   UNL     1      -4.335  15.466  24.118  0.00  0.00    +0.000 C 
ATOM     20  O   UNL     1      -3.108  15.552  23.381  0.00  0.00    +0.000 OA
ENDBRANCH   8  11
TORSDOF 1
ENDMDL
