MODEL 1
REMARK VINA RESULT:      -8.4      0.000      0.000
REMARK  Name = 
REMARK  8 active torsions:
REMARK  status: ('A' for Active; 'I' for Inactive)
REMARK    1  A    between atoms: C_1  and  C_2
REMARK    2  A    between atoms: C_6  and  C_7
REMARK    3  A    between atoms: C_9  and  C_10
REMARK    4  A    between atoms: C_10  and  C_12
REMARK    5  A    between atoms: C_12  and  S_13
REMARK    6  A    between atoms: S_13  and  C_14
REMARK    7  A    between atoms: N_18  and  C_19
REMARK    8  A    between atoms: C_25  and  C_26
REMARK                            x       y       z     vdW  Elec       q    Type
REMARK                         _______ _______ _______ _____ _____    ______ ____
ROOT
ATOM      1  C   UNL     1       2.586   7.533  17.977  0.00  0.00    +0.000 C 
ATOM      2  O   UNL     1       1.985   6.468  17.880  0.00  0.00    +0.000 OA
ENDROOT
BRANCH   1  11
ATOM      3  C   UNL     1      -2.223  12.219  23.452  0.00  0.00    +0.000 C 
ATOM      4  C   UNL     1      -1.233  11.479  22.652  0.00  0.00    +0.000 A 
ATOM      5  C   UNL     1      -0.972  11.384  21.307  0.00  0.00    +0.000 A 
ATOM      6  C   UNL     1       0.118  10.496  21.232  0.00  0.00    +0.000 A 
ATOM      7  N   UNL     1       0.825  10.052  20.063  0.00  0.00    +0.000 N 
ATOM      8  C   UNL     1       1.023  10.780  18.891  0.00  0.00    +0.000 A 
ATOM      9  C   UNL     1       0.686  12.223  18.704  0.00  0.00    +0.000 C 
ATOM     10  C   UNL     1       1.670   9.969  17.979  0.00  0.00    +0.000 A 
ATOM     11  C   UNL     1       1.924   8.711  18.580  0.00  0.00    +0.000 A 
ATOM     12  C   UNL     1       1.414   8.792  19.879  0.00  0.00    +0.000 A 
ATOM     13  C   UNL     1       1.355   7.742  20.949  0.00  0.00    +0.000 C 
ATOM     14  N   UNL     1       0.474  10.046  22.440  0.00  0.00    +0.000 NA
ATOM     15  O   UNL     1      -0.364  10.689  23.337  0.00  0.00    +0.000 OA
ENDBRANCH   1  11
BRANCH   1  16
ATOM     16  C   UNL     1       4.027   7.683  17.462  0.00  0.00    +0.000 C 
BRANCH  16  17
ATOM     17  S   UNL     1       4.604   6.081  16.808  0.00  0.00    +0.000 S 
BRANCH  17  18
ATOM     18  C   UNL     1       5.511   5.388  18.101  0.00  0.00    +0.000 A 
ATOM     19  N   UNL     1       6.762   5.662  18.390  0.00  0.00    +0.000 NA
ATOM     20  N   UNL     1       6.996   5.097  19.616  0.00  0.00    +0.000 NA
ATOM     21  N   UNL     1       5.908   4.507  20.088  0.00  0.00    +0.000 NA
ATOM     22  N   UNL     1       4.966   4.601  19.111  0.00  0.00    +0.000 N 
BRANCH  22  23
ATOM     23  C   UNL     1       3.712   3.946  19.242  0.00  0.00    +0.000 A 
ATOM     24  C   UNL     1       2.833   4.342  20.264  0.00  0.00    +0.000 A 
ATOM     25  C   UNL     1       1.588   3.721  20.403  0.00  0.00    +0.000 A 
ATOM     26  C   UNL     1       1.221   2.685  19.545  0.00  0.00    +0.000 A 
ATOM     27  C   UNL     1       2.099   2.267  18.549  0.00  0.00    +0.000 A 
ATOM     28  C   UNL     1       3.339   2.893  18.396  0.00  0.00    +0.000 A 
ENDBRANCH  22  23
ENDBRANCH  17  18
ENDBRANCH  16  17
ENDBRANCH   1  16
TORSDOF 5
ENDMDL
MODEL 2
REMARK VINA RESULT:      -8.3      3.622      6.891
REMARK  Name = 
REMARK  8 active torsions:
REMARK  status: ('A' for Active; 'I' for Inactive)
REMARK    1  A    between atoms: C_1  and  C_2
REMARK    2  A    between atoms: C_6  and  C_7
REMARK    3  A    between atoms: C_9  and  C_10
REMARK    4  A    between atoms: C_10  and  C_12
REMARK    5  A    between atoms: C_12  and  S_13
REMARK    6  A    between atoms: S_13  and  C_14
REMARK    7  A    between atoms: N_18  and  C_19
REMARK    8  A    between atoms: C_25  and  C_26
REMARK                            x       y       z     vdW  Elec       q    Type
REMARK                         _______ _______ _______ _____ _____    ______ ____
ROOT
ATOM      1  C   UNL     1       3.622   2.283  18.341  0.00  0.00    +0.000 C 
ATOM      2  O   UNL     1       4.083   1.662  19.292  0.00  0.00    +0.000 OA
ENDROOT
BRANCH   1  11
ATOM      3  C   UNL     1       8.428   9.469  17.770  0.00  0.00    +0.000 C 
ATOM      4  C   UNL     1       7.806   8.137  17.860  0.00  0.00    +0.000 A 
ATOM      5  C   UNL     1       6.746   7.534  17.228  0.00  0.00    +0.000 A 
ATOM      6  C   UNL     1       6.696   6.247  17.795  0.00  0.00    +0.000 A 
ATOM      7  N   UNL     1       5.794   5.173  17.488  0.00  0.00    +0.000 N 
ATOM      8  C   UNL     1       5.208   4.916  16.249  0.00  0.00    +0.000 A 
ATOM      9  C   UNL     1       5.551   5.609  14.972  0.00  0.00    +0.000 C 
ATOM     10  C   UNL     1       4.339   3.852  16.392  0.00  0.00    +0.000 A 
ATOM     11  C   UNL     1       4.388   3.393  17.731  0.00  0.00    +0.000 A 
ATOM     12  C   UNL     1       5.314   4.210  18.387  0.00  0.00    +0.000 A 
ATOM     13  C   UNL     1       5.727   4.218  19.830  0.00  0.00    +0.000 C 
ATOM     14  N   UNL     1       7.632   6.085  18.738  0.00  0.00    +0.000 NA
ATOM     15  O   UNL     1       8.347   7.271  18.758  0.00  0.00    +0.000 OA
ENDBRANCH   1  11
BRANCH   1  16
ATOM     16  C   UNL     1       2.237   1.945  17.767  0.00  0.00    +0.000 C 
BRANCH  16  17
ATOM     17  S   UNL     1       1.024   3.174  18.353  0.00  0.00    +0.000 S 
BRANCH  17  18
ATOM     18  C   UNL     1       1.446   3.445  20.003  0.00  0.00    +0.000 A 
ATOM     19  N   UNL     1       1.520   2.523  20.935  0.00  0.00    +0.000 NA
ATOM     20  N   UNL     1       2.125   3.122  22.008  0.00  0.00    +0.000 NA
ATOM     21  N   UNL     1       2.443   4.380  21.740  0.00  0.00    +0.000 NA
ATOM     22  N   UNL     1       1.949   4.644  20.500  0.00  0.00    +0.000 N 
BRANCH  22  23
ATOM     23  C   UNL     1       2.000   5.957  19.959  0.00  0.00    +0.000 A 
ATOM     24  C   UNL     1       1.483   7.029  20.707  0.00  0.00    +0.000 A 
ATOM     25  C   UNL     1       1.536   8.331  20.201  0.00  0.00    +0.000 A 
ATOM     26  C   UNL     1       2.077   8.572  18.939  0.00  0.00    +0.000 A 
ATOM     27  C   UNL     1       2.564   7.512  18.180  0.00  0.00    +0.000 A 
ATOM     28  C   UNL     1       2.527   6.210  18.685  0.00  0.00    +0.000 A 
ENDBRANCH  22  23
ENDBRANCH  17  18
ENDBRANCH  16  17
ENDBRANCH   1  16
TORSDOF 5
ENDMDL
MODEL 3
REMARK VINA RESULT:      -8.2      2.325      3.877
REMARK  Name = 
REMARK  8 active torsions:
REMARK  status: ('A' for Active; 'I' for Inactive)
REMARK    1  A    between atoms: C_1  and  C_2
REMARK    2  A    between atoms: C_6  and  C_7
REMARK    3  A    between atoms: C_9  and  C_10
REMARK    4  A    between atoms: C_10  and  C_12
REMARK    5  A    between atoms: C_12  and  S_13
REMARK    6  A    between atoms: S_13  and  C_14
REMARK    7  A    between atoms: N_18  and  C_19
REMARK    8  A    between atoms: C_25  and  C_26
REMARK                            x       y       z     vdW  Elec       q    Type
REMARK                         _______ _______ _______ _____ _____    ______ ____
ROOT
ATOM      1  C   UNL     1       2.720   5.776  17.891  0.00  0.00    +0.000 C 
ATOM      2  O   UNL     1       1.920   4.856  17.766  0.00  0.00    +0.000 OA
ENDROOT
BRANCH   1  11
ATOM      3  C   UNL     1      -1.089  11.617  23.034  0.00  0.00    +0.000 C 
ATOM      4  C   UNL     1      -0.257  10.664  22.280  0.00  0.00    +0.000 A 
ATOM      5  C   UNL     1      -0.067  10.413  20.943  0.00  0.00    +0.000 A 
ATOM      6  C   UNL     1       0.869   9.361  20.922  0.00  0.00    +0.000 A 
ATOM      7  N   UNL     1       1.452   8.712  19.782  0.00  0.00    +0.000 N 
ATOM      8  C   UNL     1       1.714   9.296  18.543  0.00  0.00    +0.000 A 
ATOM      9  C   UNL     1       1.597  10.752  18.233  0.00  0.00    +0.000 C 
ATOM     10  C   UNL     1       2.192   8.317  17.693  0.00  0.00    +0.000 A 
ATOM     11  C   UNL     1       2.273   7.092  18.400  0.00  0.00    +0.000 A 
ATOM     12  C   UNL     1       1.832   7.364  19.699  0.00  0.00    +0.000 A 
ATOM     13  C   UNL     1       1.654   6.433  20.862  0.00  0.00    +0.000 C 
ATOM     14  N   UNL     1       1.198   8.967  22.157  0.00  0.00    +0.000 NA
ATOM     15  O   UNL     1       0.505   9.809  23.012  0.00  0.00    +0.000 OA
ENDBRANCH   1  11
BRANCH   1  16
ATOM     16  C   UNL     1       4.199   5.601  17.509  0.00  0.00    +0.000 C 
BRANCH  16  17
ATOM     17  S   UNL     1       4.430   3.975  16.716  0.00  0.00    +0.000 S 
BRANCH  17  18
ATOM     18  C   UNL     1       5.694   4.228  15.571  0.00  0.00    +0.000 A 
ATOM     19  N   UNL     1       5.699   3.798  14.330  0.00  0.00    +0.000 NA
ATOM     20  N   UNL     1       6.751   4.428  13.719  0.00  0.00    +0.000 NA
ATOM     21  N   UNL     1       7.369   5.251  14.554  0.00  0.00    +0.000 NA
ATOM     22  N   UNL     1       6.773   5.084  15.766  0.00  0.00    +0.000 N 
BRANCH  22  23
ATOM     23  C   UNL     1       7.289   5.725  16.925  0.00  0.00    +0.000 A 
ATOM     24  C   UNL     1       7.455   7.120  16.924  0.00  0.00    +0.000 A 
ATOM     25  C   UNL     1       7.947   7.773  18.058  0.00  0.00    +0.000 A 
ATOM     26  C   UNL     1       8.304   7.040  19.189  0.00  0.00    +0.000 A 
ATOM     27  C   UNL     1       8.171   5.655  19.188  0.00  0.00    +0.000 A 
ATOM     28  C   UNL     1       7.667   4.998  18.063  0.00  0.00    +0.000 A 
ENDBRANCH  22  23
ENDBRANCH  17  18
ENDBRANCH  16  17
ENDBRANCH   1  16
TORSDOF 5
ENDMDL
MODEL 4
REMARK VINA RESULT:      -8.1      1.949      2.963
REMARK  Name = 
REMARK  8 active torsions:
REMARK  status: ('A' for Active; 'I' for Inactive)
REMARK    1  A    between atoms: C_1  and  C_2
REMARK    2  A    between atoms: C_6  and  C_7
REMARK    3  A    between atoms: C_9  and  C_10
REMARK    4  A    between atoms: C_10  and  C_12
REMARK    5  A    between atoms: C_12  and  S_13
REMARK    6  A    between atoms: S_13  and  C_14
REMARK    7  A    between atoms: N_18  and  C_19
REMARK    8  A    between atoms: C_25  and  C_26
REMARK                            x       y       z     vdW  Elec       q    Type
REMARK                         _______ _______ _______ _____ _____    ______ ____
ROOT
ATOM      1  C   UNL     1       2.611   7.011  18.146  0.00  0.00    +0.000 C 
ATOM      2  O   UNL     1       1.889   6.123  17.706  0.00  0.00    +0.000 OA
ENDROOT
BRANCH   1  11
ATOM      3  C   UNL     1      -1.965  12.333  23.226  0.00  0.00    +0.000 C 
ATOM      4  C   UNL     1      -1.013  11.481  22.493  0.00  0.00    +0.000 A 
ATOM      5  C   UNL     1      -0.734  11.288  21.162  0.00  0.00    +0.000 A 
ATOM      6  C   UNL     1       0.293  10.325  21.164  0.00  0.00    +0.000 A 
ATOM      7  N   UNL     1       0.989   9.764  20.040  0.00  0.00    +0.000 N 
ATOM      8  C   UNL     1       1.259  10.405  18.832  0.00  0.00    +0.000 A 
ATOM      9  C   UNL     1       1.026  11.854  18.553  0.00  0.00    +0.000 C 
ATOM     10  C   UNL     1       1.865   9.499  17.984  0.00  0.00    +0.000 A 
ATOM     11  C   UNL     1       2.021   8.266  18.663  0.00  0.00    +0.000 A 
ATOM     12  C   UNL     1       1.493   8.459  19.944  0.00  0.00    +0.000 A 
ATOM     13  C   UNL     1       1.342   7.481  21.071  0.00  0.00    +0.000 C 
ATOM     14  N   UNL     1       0.594   9.925  22.404  0.00  0.00    +0.000 NA
ATOM     15  O   UNL     1      -0.214  10.676  23.243  0.00  0.00    +0.000 OA
ENDBRANCH   1  11
BRANCH   1  16
ATOM     16  C   UNL     1       4.141   6.860  18.155  0.00  0.00    +0.000 C 
BRANCH  16  17
ATOM     17  S   UNL     1       4.593   5.346  19.066  0.00  0.00    +0.000 S 
BRANCH  17  18
ATOM     18  C   UNL     1       6.312   5.269  18.951  0.00  0.00    +0.000 A 
ATOM     19  N   UNL     1       7.153   5.445  19.944  0.00  0.00    +0.000 NA
ATOM     20  N   UNL     1       8.378   5.050  19.473  0.00  0.00    +0.000 NA
ATOM     21  N   UNL     1       8.294   4.615  18.224  0.00  0.00    +0.000 NA
ATOM     22  N   UNL     1       7.007   4.819  17.832  0.00  0.00    +0.000 N 
BRANCH  22  23
ATOM     23  C   UNL     1       6.608   4.584  16.489  0.00  0.00    +0.000 A 
ATOM     24  C   UNL     1       5.423   3.871  16.238  0.00  0.00    +0.000 A 
ATOM     25  C   UNL     1       5.004   3.640  14.924  0.00  0.00    +0.000 A 
ATOM     26  C   UNL     1       5.774   4.091  13.853  0.00  0.00    +0.000 A 
ATOM     27  C   UNL     1       6.964   4.772  14.093  0.00  0.00    +0.000 A 
ATOM     28  C   UNL     1       7.382   5.018  15.404  0.00  0.00    +0.000 A 
ENDBRANCH  22  23
ENDBRANCH  17  18
ENDBRANCH  16  17
ENDBRANCH   1  16
TORSDOF 5
ENDMDL
MODEL 5
REMARK VINA RESULT:      -8.1      1.157      1.350
REMARK  Name = 
REMARK  8 active torsions:
REMARK  status: ('A' for Active; 'I' for Inactive)
REMARK    1  A    between atoms: C_1  and  C_2
REMARK    2  A    between atoms: C_6  and  C_7
REMARK    3  A    between atoms: C_9  and  C_10
REMARK    4  A    between atoms: C_10  and  C_12
REMARK    5  A    between atoms: C_12  and  S_13
REMARK    6  A    between atoms: S_13  and  C_14
REMARK    7  A    between atoms: N_18  and  C_19
REMARK    8  A    between atoms: C_25  and  C_26
REMARK                            x       y       z     vdW  Elec       q    Type
REMARK                         _______ _______ _______ _____ _____    ______ ____
ROOT
ATOM      1  C   UNL     1       2.688   7.257  18.161  0.00  0.00    +0.000 C 
ATOM      2  O   UNL     1       2.035   6.261  17.871  0.00  0.00    +0.000 OA
ENDROOT
BRANCH   1  11
ATOM      3  C   UNL     1      -2.241  12.237  23.258  0.00  0.00    +0.000 C 
ATOM      4  C   UNL     1      -1.233  11.454  22.523  0.00  0.00    +0.000 A 
ATOM      5  C   UNL     1      -0.942  11.285  21.191  0.00  0.00    +0.000 A 
ATOM      6  C   UNL     1       0.149  10.395  21.189  0.00  0.00    +0.000 A 
ATOM      7  N   UNL     1       0.881   9.886  20.064  0.00  0.00    +0.000 N 
ATOM      8  C   UNL     1       1.106  10.548  18.857  0.00  0.00    +0.000 A 
ATOM      9  C   UNL     1       0.774  11.978  18.583  0.00  0.00    +0.000 C 
ATOM     10  C   UNL     1       1.773   9.688  18.007  0.00  0.00    +0.000 A 
ATOM     11  C   UNL     1       2.013   8.467  18.682  0.00  0.00    +0.000 A 
ATOM     12  C   UNL     1       1.474   8.619  19.963  0.00  0.00    +0.000 A 
ATOM     13  C   UNL     1       1.391   7.630  21.088  0.00  0.00    +0.000 C 
ATOM     14  N   UNL     1       0.478  10.013  22.429  0.00  0.00    +0.000 NA
ATOM     15  O   UNL     1      -0.380  10.704  23.269  0.00  0.00    +0.000 OA
ENDBRANCH   1  11
BRANCH   1  16
ATOM     16  C   UNL     1       4.214   7.289  17.976  0.00  0.00    +0.000 C 
BRANCH  16  17
ATOM     17  S   UNL     1       4.625   6.815  16.264  0.00  0.00    +0.000 S 
BRANCH  17  18
ATOM     18  C   UNL     1       5.872   5.636  16.429  0.00  0.00    +0.000 A 
ATOM     19  N   UNL     1       7.099   5.752  15.977  0.00  0.00    +0.000 NA
ATOM     20  N   UNL     1       7.806   4.722  16.540  0.00  0.00    +0.000 NA
ATOM     21  N   UNL     1       7.041   3.998  17.345  0.00  0.00    +0.000 NA
ATOM     22  N   UNL     1       5.782   4.502  17.232  0.00  0.00    +0.000 N 
BRANCH  22  23
ATOM     23  C   UNL     1       4.682   3.863  17.866  0.00  0.00    +0.000 A 
ATOM     24  C   UNL     1       4.646   3.787  19.268  0.00  0.00    +0.000 A 
ATOM     25  C   UNL     1       3.567   3.176  19.913  0.00  0.00    +0.000 A 
ATOM     26  C   UNL     1       2.532   2.613  19.168  0.00  0.00    +0.000 A 
ATOM     27  C   UNL     1       2.574   2.658  17.778  0.00  0.00    +0.000 A 
ATOM     28  C   UNL     1       3.644   3.280  17.127  0.00  0.00    +0.000 A 
ENDBRANCH  22  23
ENDBRANCH  17  18
ENDBRANCH  16  17
ENDBRANCH   1  16
TORSDOF 5
ENDMDL
MODEL 6
REMARK VINA RESULT:      -8.0      2.469      3.706
REMARK  Name = 
REMARK  8 active torsions:
REMARK  status: ('A' for Active; 'I' for Inactive)
REMARK    1  A    between atoms: C_1  and  C_2
REMARK    2  A    between atoms: C_6  and  C_7
REMARK    3  A    between atoms: C_9  and  C_10
REMARK    4  A    between atoms: C_10  and  C_12
REMARK    5  A    between atoms: C_12  and  S_13
REMARK    6  A    between atoms: S_13  and  C_14
REMARK    7  A    between atoms: N_18  and  C_19
REMARK    8  A    between atoms: C_25  and  C_26
REMARK                            x       y       z     vdW  Elec       q    Type
REMARK                         _______ _______ _______ _____ _____    ______ ____
ROOT
ATOM      1  C   UNL     1       2.485   6.343  18.317  0.00  0.00    +0.000 C 
ATOM      2  O   UNL     1       1.716   5.579  17.745  0.00  0.00    +0.000 OA
ENDROOT
BRANCH   1  11
ATOM      3  C   UNL     1      -1.519  12.369  23.084  0.00  0.00    +0.000 C 
ATOM      4  C   UNL     1      -0.659  11.388  22.401  0.00  0.00    +0.000 A 
ATOM      5  C   UNL     1      -0.412  11.090  21.083  0.00  0.00    +0.000 A 
ATOM      6  C   UNL     1       0.519  10.036  21.139  0.00  0.00    +0.000 A 
ATOM      7  N   UNL     1       1.149   9.346  20.048  0.00  0.00    +0.000 N 
ATOM      8  C   UNL     1       1.466   9.886  18.802  0.00  0.00    +0.000 A 
ATOM      9  C   UNL     1       1.368  11.330  18.438  0.00  0.00    +0.000 C 
ATOM     10  C   UNL     1       1.976   8.877  18.009  0.00  0.00    +0.000 A 
ATOM     11  C   UNL     1       2.021   7.677  18.760  0.00  0.00    +0.000 A 
ATOM     12  C   UNL     1       1.526   7.996  20.029  0.00  0.00    +0.000 A 
ATOM     13  C   UNL     1       1.294   7.105  21.214  0.00  0.00    +0.000 C 
ATOM     14  N   UNL     1       0.793   9.685  22.400  0.00  0.00    +0.000 NA
ATOM     15  O   UNL     1       0.068  10.557  23.194  0.00  0.00    +0.000 OA
ENDBRANCH   1  11
BRANCH   1  16
ATOM     16  C   UNL     1       3.950   5.953  18.573  0.00  0.00    +0.000 C 
BRANCH  16  17
ATOM     17  S   UNL     1       4.951   6.371  17.107  0.00  0.00    +0.000 S 
BRANCH  17  18
ATOM     18  C   UNL     1       6.478   5.623  17.400  0.00  0.00    +0.000 A 
ATOM     19  N   UNL     1       7.089   5.559  18.560  0.00  0.00    +0.000 NA
ATOM     20  N   UNL     1       8.122   4.675  18.392  0.00  0.00    +0.000 NA
ATOM     21  N   UNL     1       8.138   4.183  17.162  0.00  0.00    +0.000 NA
ATOM     22  N   UNL     1       7.155   4.829  16.478  0.00  0.00    +0.000 N 
BRANCH  22  23
ATOM     23  C   UNL     1       6.989   4.632  15.080  0.00  0.00    +0.000 A 
ATOM     24  C   UNL     1       6.002   3.743  14.623  0.00  0.00    +0.000 A 
ATOM     25  C   UNL     1       5.812   3.546  13.252  0.00  0.00    +0.000 A 
ATOM     26  C   UNL     1       6.621   4.207  12.330  0.00  0.00    +0.000 A 
ATOM     27  C   UNL     1       7.620   5.066  12.775  0.00  0.00    +0.000 A 
ATOM     28  C   UNL     1       7.807   5.280  14.144  0.00  0.00    +0.000 A 
ENDBRANCH  22  23
ENDBRANCH  17  18
ENDBRANCH  16  17
ENDBRANCH   1  16
TORSDOF 5
ENDMDL
MODEL 7
REMARK VINA RESULT:      -8.0      1.725      3.185
REMARK  Name = 
REMARK  8 active torsions:
REMARK  status: ('A' for Active; 'I' for Inactive)
REMARK    1  A    between atoms: C_1  and  C_2
REMARK    2  A    between atoms: C_6  and  C_7
REMARK    3  A    between atoms: C_9  and  C_10
REMARK    4  A    between atoms: C_10  and  C_12
REMARK    5  A    between atoms: C_12  and  S_13
REMARK    6  A    between atoms: S_13  and  C_14
REMARK    7  A    between atoms: N_18  and  C_19
REMARK    8  A    between atoms: C_25  and  C_26
REMARK                            x       y       z     vdW  Elec       q    Type
REMARK                         _______ _______ _______ _____ _____    ______ ____
ROOT
ATOM      1  C   UNL     1       2.672   7.320  18.273  0.00  0.00    +0.000 C 
ATOM      2  O   UNL     1       3.780   7.424  17.759  0.00  0.00    +0.000 OA
ENDROOT
BRANCH   1  11
ATOM      3  C   UNL     1      -2.359  12.330  23.238  0.00  0.00    +0.000 C 
ATOM      4  C   UNL     1      -1.334  11.557  22.517  0.00  0.00    +0.000 A 
ATOM      5  C   UNL     1      -1.069  11.330  21.188  0.00  0.00    +0.000 A 
ATOM      6  C   UNL     1       0.063  10.494  21.203  0.00  0.00    +0.000 A 
ATOM      7  N   UNL     1       0.790   9.960  20.085  0.00  0.00    +0.000 N 
ATOM      8  C   UNL     1       0.951  10.566  18.839  0.00  0.00    +0.000 A 
ATOM      9  C   UNL     1       0.543  11.962  18.500  0.00  0.00    +0.000 C 
ATOM     10  C   UNL     1       1.637   9.694  18.017  0.00  0.00    +0.000 A 
ATOM     11  C   UNL     1       1.954   8.523  18.749  0.00  0.00    +0.000 A 
ATOM     12  C   UNL     1       1.441   8.719  20.035  0.00  0.00    +0.000 A 
ATOM     13  C   UNL     1       1.435   7.789  21.212  0.00  0.00    +0.000 C 
ATOM     14  N   UNL     1       0.442  10.195  22.450  0.00  0.00    +0.000 NA
ATOM     15  O   UNL     1      -0.426  10.889  23.277  0.00  0.00    +0.000 OA
ENDBRANCH   1  11
BRANCH   1  16
ATOM     16  C   UNL     1       2.006   5.946  18.457  0.00  0.00    +0.000 C 
BRANCH  16  17
ATOM     17  S   UNL     1       2.794   5.075  19.852  0.00  0.00    +0.000 S 
BRANCH  17  18
ATOM     18  C   UNL     1       3.175   3.513  19.227  0.00  0.00    +0.000 A 
ATOM     19  N   UNL     1       2.556   2.396  19.532  0.00  0.00    +0.000 NA
ATOM     20  N   UNL     1       3.003   1.463  18.635  0.00  0.00    +0.000 NA
ATOM     21  N   UNL     1       3.861   1.994  17.776  0.00  0.00    +0.000 NA
ATOM     22  N   UNL     1       4.057   3.280  18.177  0.00  0.00    +0.000 N 
BRANCH  22  23
ATOM     23  C   UNL     1       5.033   4.098  17.546  0.00  0.00    +0.000 A 
ATOM     24  C   UNL     1       4.878   4.432  16.190  0.00  0.00    +0.000 A 
ATOM     25  C   UNL     1       5.818   5.248  15.553  0.00  0.00    +0.000 A 
ATOM     26  C   UNL     1       6.931   5.713  16.252  0.00  0.00    +0.000 A 
ATOM     27  C   UNL     1       7.107   5.362  17.587  0.00  0.00    +0.000 A 
ATOM     28  C   UNL     1       6.164   4.558  18.234  0.00  0.00    +0.000 A 
ENDBRANCH  22  23
ENDBRANCH  17  18
ENDBRANCH  16  17
ENDBRANCH   1  16
TORSDOF 5
ENDMDL
MODEL 8
REMARK VINA RESULT:      -8.0      1.327      1.765
REMARK  Name = 
REMARK  8 active torsions:
REMARK  status: ('A' for Active; 'I' for Inactive)
REMARK    1  A    between atoms: C_1  and  C_2
REMARK    2  A    between atoms: C_6  and  C_7
REMARK    3  A    between atoms: C_9  and  C_10
REMARK    4  A    between atoms: C_10  and  C_12
REMARK    5  A    between atoms: C_12  and  S_13
REMARK    6  A    between atoms: S_13  and  C_14
REMARK    7  A    between atoms: N_18  and  C_19
REMARK    8  A    between atoms: C_25  and  C_26
REMARK                            x       y       z     vdW  Elec       q    Type
REMARK                         _______ _______ _______ _____ _____    ______ ____
ROOT
ATOM      1  C   UNL     1       2.660   7.271  18.236  0.00  0.00    +0.000 C 
ATOM      2  O   UNL     1       2.367   6.174  18.697  0.00  0.00    +0.000 OA
ENDROOT
BRANCH   1  11
ATOM      3  C   UNL     1      -2.227  12.360  23.265  0.00  0.00    +0.000 C 
ATOM      4  C   UNL     1      -1.227  11.556  22.543  0.00  0.00    +0.000 A 
ATOM      5  C   UNL     1      -0.925  11.376  21.215  0.00  0.00    +0.000 A 
ATOM      6  C   UNL     1       0.149  10.467  21.227  0.00  0.00    +0.000 A 
ATOM      7  N   UNL     1       0.883   9.941  20.111  0.00  0.00    +0.000 N 
ATOM      8  C   UNL     1       1.131  10.594  18.904  0.00  0.00    +0.000 A 
ATOM      9  C   UNL     1       0.828  12.028  18.621  0.00  0.00    +0.000 C 
ATOM     10  C   UNL     1       1.791   9.719  18.064  0.00  0.00    +0.000 A 
ATOM     11  C   UNL     1       2.003   8.495  18.746  0.00  0.00    +0.000 A 
ATOM     12  C   UNL     1       1.454   8.663  20.021  0.00  0.00    +0.000 A 
ATOM     13  C   UNL     1       1.341   7.679  21.149  0.00  0.00    +0.000 C 
ATOM     14  N   UNL     1       0.459  10.084  22.471  0.00  0.00    +0.000 NA
ATOM     15  O   UNL     1      -0.395  10.794  23.301  0.00  0.00    +0.000 OA
ENDBRANCH   1  11
BRANCH   1  16
ATOM     16  C   UNL     1       3.697   7.410  17.109  0.00  0.00    +0.000 C 
BRANCH  16  17
ATOM     17  S   UNL     1       5.370   7.169  17.794  0.00  0.00    +0.000 S 
BRANCH  17  18
ATOM     18  C   UNL     1       6.066   5.936  16.809  0.00  0.00    +0.000 A 
ATOM     19  N   UNL     1       7.065   6.098  15.973  0.00  0.00    +0.000 NA
ATOM     20  N   UNL     1       7.453   4.837  15.603  0.00  0.00    +0.000 NA
ATOM     21  N   UNL     1       6.729   3.912  16.217  0.00  0.00    +0.000 NA
ATOM     22  N   UNL     1       5.780   4.579  16.928  0.00  0.00    +0.000 N 
BRANCH  22  23
ATOM     23  C   UNL     1       4.745   3.874  17.601  0.00  0.00    +0.000 A 
ATOM     24  C   UNL     1       3.592   3.501  16.889  0.00  0.00    +0.000 A 
ATOM     25  C   UNL     1       2.568   2.795  17.527  0.00  0.00    +0.000 A 
ATOM     26  C   UNL     1       2.671   2.481  18.882  0.00  0.00    +0.000 A 
ATOM     27  C   UNL     1       3.796   2.873  19.600  0.00  0.00    +0.000 A 
ATOM     28  C   UNL     1       4.830   3.567  18.966  0.00  0.00    +0.000 A 
ENDBRANCH  22  23
ENDBRANCH  17  18
ENDBRANCH  16  17
ENDBRANCH   1  16
TORSDOF 5
ENDMDL
MODEL 9
REMARK VINA RESULT:      -7.8      1.593      1.869
REMARK  Name = 
REMARK  8 active torsions:
REMARK  status: ('A' for Active; 'I' for Inactive)
REMARK    1  A    between atoms: C_1  and  C_2
REMARK    2  A    between atoms: C_6  and  C_7
REMARK    3  A    between atoms: C_9  and  C_10
REMARK    4  A    between atoms: C_10  and  C_12
REMARK    5  A    between atoms: C_12  and  S_13
REMARK    6  A    between atoms: S_13  and  C_14
REMARK    7  A    between atoms: N_18  and  C_19
REMARK    8  A    between atoms: C_25  and  C_26
REMARK                            x       y       z     vdW  Elec       q    Type
REMARK                         _______ _______ _______ _____ _____    ______ ____
ROOT
ATOM      1  C   UNL     1       2.347   7.742  18.722  0.00  0.00    +0.000 C 
ATOM      2  O   UNL     1       2.311   6.731  19.414  0.00  0.00    +0.000 OA
ENDROOT
BRANCH   1  11
ATOM      3  C   UNL     1      -2.965  12.839  23.289  0.00  0.00    +0.000 C 
ATOM      4  C   UNL     1      -1.898  12.066  22.633  0.00  0.00    +0.000 A 
ATOM      5  C   UNL     1      -1.602  11.768  21.325  0.00  0.00    +0.000 A 
ATOM      6  C   UNL     1      -0.437  10.982  21.408  0.00  0.00    +0.000 A 
ATOM      7  N   UNL     1       0.330  10.410  20.337  0.00  0.00    +0.000 N 
ATOM      8  C   UNL     1       0.486  10.943  19.057  0.00  0.00    +0.000 A 
ATOM      9  C   UNL     1       0.027  12.296  18.624  0.00  0.00    +0.000 C 
ATOM     10  C   UNL     1       1.220  10.050  18.302  0.00  0.00    +0.000 A 
ATOM     11  C   UNL     1       1.573   8.942  19.110  0.00  0.00    +0.000 A 
ATOM     12  C   UNL     1       1.031   9.197  20.374  0.00  0.00    +0.000 A 
ATOM     13  C   UNL     1       1.043   8.342  21.608  0.00  0.00    +0.000 C 
ATOM     14  N   UNL     1      -0.067  10.778  22.677  0.00  0.00    +0.000 NA
ATOM     15  O   UNL     1      -0.977  11.486  23.446  0.00  0.00    +0.000 OA
ENDBRANCH   1  11
BRANCH   1  16
ATOM     16  C   UNL     1       3.176   7.791  17.427  0.00  0.00    +0.000 C 
BRANCH  16  17
ATOM     17  S   UNL     1       4.814   7.048  17.730  0.00  0.00    +0.000 S 
BRANCH  17  18
ATOM     18  C   UNL     1       4.974   5.841  16.509  0.00  0.00    +0.000 A 
ATOM     19  N   UNL     1       5.674   5.959  15.404  0.00  0.00    +0.000 NA
ATOM     20  N   UNL     1       5.733   4.703  14.862  0.00  0.00    +0.000 NA
ATOM     21  N   UNL     1       5.106   3.820  15.625  0.00  0.00    +0.000 NA
ATOM     22  N   UNL     1       4.538   4.526  16.640  0.00  0.00    +0.000 N 
BRANCH  22  23
ATOM     23  C   UNL     1       3.671   3.894  17.572  0.00  0.00    +0.000 A 
ATOM     24  C   UNL     1       4.222   3.212  18.671  0.00  0.00    +0.000 A 
ATOM     25  C   UNL     1       3.387   2.595  19.607  0.00  0.00    +0.000 A 
ATOM     26  C   UNL     1       2.003   2.628  19.442  0.00  0.00    +0.000 A 
ATOM     27  C   UNL     1       1.452   3.275  18.341  0.00  0.00    +0.000 A 
ATOM     28  C   UNL     1       2.279   3.906  17.408  0.00  0.00    +0.000 A 
ENDBRANCH  22  23
ENDBRANCH  17  18
ENDBRANCH  16  17
ENDBRANCH   1  16
TORSDOF 5
ENDMDL
