MODEL 1
REMARK VINA RESULT:      -6.6      0.000      0.000
REMARK  Name = 
REMARK  9 active torsions:
REMARK  status: ('A' for Active; 'I' for Inactive)
REMARK    1  A    between atoms: C_1  and  C_2
REMARK    2  A    between atoms: C_2  and  C_3
REMARK    3  A    between atoms: C_2  and  C_4
REMARK    4  A    between atoms: C_2  and  C_16
REMARK    5  A    between atoms: C_4  and  N_5
REMARK    6  A    between atoms: C_6  and  C_8
REMARK    7  A    between atoms: C_8  and  C_9
REMARK    8  A    between atoms: C_9  and  C_10
REMARK    9  A    between atoms: C_9  and  C_13
REMARK                            x       y       z     vdW  Elec       q    Type
REMARK                         _______ _______ _______ _____ _____    ______ ____
ROOT
ATOM      1  N   UNL     1       3.783   4.416  19.267  0.00  0.00    +0.000 N 
ATOM      2  C   UNL     1       3.878   4.309  17.899  0.00  0.00    +0.000 C 
ATOM      3  O   UNL     1       3.703   3.255  17.295  0.00  0.00    +0.000 OA
ATOM      4  H   UNL     1       3.800   5.334  19.703  0.00  0.00    +0.000 HD
ENDROOT
BRANCH   1   5
ATOM      5  C   UNL     1       3.393   3.306  20.120  0.00  0.00    +0.000 C 
BRANCH   5   7
ATOM      6  C   UNL     1       1.590   2.606  21.776  0.00  0.00    +0.000 C 
ATOM      7  C   UNL     1       1.868   3.199  20.385  0.00  0.00    +0.000 C 
ATOM      8  C   UNL     1       1.269   4.614  20.322  0.00  0.00    +0.000 C 
BRANCH   7   9
ATOM      9  C   UNL     1       1.226   2.334  19.292  0.00  0.00    +0.000 C 
ATOM     10  N   UNL     1       2.017   1.377  18.720  0.00  0.00    +0.000 N 
ATOM     11  O   UNL     1       0.061   2.445  18.918  0.00  0.00    +0.000 OA
ATOM     12  H   UNL     1       3.006   1.278  18.909  0.00  0.00    +0.000 HD
ATOM     13  H   UNL     1       1.606   0.807  17.992  0.00  0.00    +0.000 HD
ENDBRANCH   7   9
ENDBRANCH   5   7
ENDBRANCH   1   5
BRANCH   2  14
ATOM     14  C   UNL     1       4.286   5.600  17.215  0.00  0.00    +0.000 C 
BRANCH  14  15
ATOM     15  C   UNL     1       5.799   5.661  16.920  0.00  0.00    +0.000 C 
BRANCH  15  16
ATOM     16  C   UNL     1       6.035   5.608  15.417  0.00  0.00    +0.000 C 
ATOM     17  C   UNL     1       7.026   4.641  14.810  0.00  0.00    +0.000 C 
ATOM     18  C   UNL     1       5.565   4.514  14.487  0.00  0.00    +0.000 C 
ENDBRANCH  15  16
BRANCH  15  19
ATOM     19  C   UNL     1       6.404   6.854  17.633  0.00  0.00    +0.000 C 
ATOM     20  C   UNL     1       7.710   6.670  18.378  0.00  0.00    +0.000 C 
ATOM     21  C   UNL     1       7.673   7.516  17.142  0.00  0.00    +0.000 C 
ENDBRANCH  15  19
ENDBRANCH  14  15
ENDBRANCH   2  14
TORSDOF 7
ENDMDL
MODEL 2
REMARK VINA RESULT:      -6.4      1.507      2.825
REMARK  Name = 
REMARK  9 active torsions:
REMARK  status: ('A' for Active; 'I' for Inactive)
REMARK    1  A    between atoms: C_1  and  C_2
REMARK    2  A    between atoms: C_2  and  C_3
REMARK    3  A    between atoms: C_2  and  C_4
REMARK    4  A    between atoms: C_2  and  C_16
REMARK    5  A    between atoms: C_4  and  N_5
REMARK    6  A    between atoms: C_6  and  C_8
REMARK    7  A    between atoms: C_8  and  C_9
REMARK    8  A    between atoms: C_9  and  C_10
REMARK    9  A    between atoms: C_9  and  C_13
REMARK                            x       y       z     vdW  Elec       q    Type
REMARK                         _______ _______ _______ _____ _____    ______ ____
ROOT
ATOM      1  N   UNL     1       3.880   4.712  19.702  0.00  0.00    +0.000 N 
ATOM      2  C   UNL     1       4.339   5.522  18.690  0.00  0.00    +0.000 C 
ATOM      3  O   UNL     1       3.594   6.108  17.910  0.00  0.00    +0.000 OA
ATOM      4  H   UNL     1       4.529   4.363  20.402  0.00  0.00    +0.000 HD
ENDROOT
BRANCH   1   5
ATOM      5  C   UNL     1       2.466   4.532  19.990  0.00  0.00    +0.000 C 
BRANCH   5   7
ATOM      6  C   UNL     1       1.812   2.619  21.537  0.00  0.00    +0.000 C 
ATOM      7  C   UNL     1       2.009   3.052  20.075  0.00  0.00    +0.000 C 
ATOM      8  C   UNL     1       0.666   2.921  19.335  0.00  0.00    +0.000 C 
BRANCH   7   9
ATOM      9  C   UNL     1       3.050   2.162  19.384  0.00  0.00    +0.000 C 
ATOM     10  N   UNL     1       2.697   1.621  18.179  0.00  0.00    +0.000 N 
ATOM     11  O   UNL     1       4.167   1.924  19.839  0.00  0.00    +0.000 OA
ATOM     12  H   UNL     1       1.771   1.698  17.779  0.00  0.00    +0.000 HD
ATOM     13  H   UNL     1       3.374   1.026  17.719  0.00  0.00    +0.000 HD
ENDBRANCH   7   9
ENDBRANCH   5   7
ENDBRANCH   1   5
BRANCH   2  14
ATOM     14  C   UNL     1       5.851   5.569  18.588  0.00  0.00    +0.000 C 
BRANCH  14  15
ATOM     15  C   UNL     1       6.337   5.982  17.182  0.00  0.00    +0.000 C 
BRANCH  15  16
ATOM     16  C   UNL     1       7.629   6.780  17.295  0.00  0.00    +0.000 C 
ATOM     17  C   UNL     1       7.613   8.274  17.523  0.00  0.00    +0.000 C 
ATOM     18  C   UNL     1       8.197   7.365  18.566  0.00  0.00    +0.000 C 
ENDBRANCH  15  16
BRANCH  15  19
ATOM     19  C   UNL     1       6.402   4.758  16.292  0.00  0.00    +0.000 C 
ATOM     20  C   UNL     1       5.504   4.696  15.073  0.00  0.00    +0.000 C 
ATOM     21  C   UNL     1       6.987   4.818  14.897  0.00  0.00    +0.000 C 
ENDBRANCH  15  19
ENDBRANCH  14  15
ENDBRANCH   2  14
TORSDOF 7
ENDMDL
MODEL 3
REMARK VINA RESULT:      -6.3      2.612      5.984
REMARK  Name = 
REMARK  9 active torsions:
REMARK  status: ('A' for Active; 'I' for Inactive)
REMARK    1  A    between atoms: C_1  and  C_2
REMARK    2  A    between atoms: C_2  and  C_3
REMARK    3  A    between atoms: C_2  and  C_4
REMARK    4  A    between atoms: C_2  and  C_16
REMARK    5  A    between atoms: C_4  and  N_5
REMARK    6  A    between atoms: C_6  and  C_8
REMARK    7  A    between atoms: C_8  and  C_9
REMARK    8  A    between atoms: C_9  and  C_10
REMARK    9  A    between atoms: C_9  and  C_13
REMARK                            x       y       z     vdW  Elec       q    Type
REMARK                         _______ _______ _______ _____ _____    ______ ____
ROOT
ATOM      1  N   UNL     1       4.460   4.606  17.497  0.00  0.00    +0.000 N 
ATOM      2  C   UNL     1       4.953   4.636  18.781  0.00  0.00    +0.000 C 
ATOM      3  O   UNL     1       5.934   3.990  19.137  0.00  0.00    +0.000 OA
ATOM      4  H   UNL     1       3.734   5.261  17.221  0.00  0.00    +0.000 HD
ENDROOT
BRANCH   1   5
ATOM      5  C   UNL     1       5.098   3.863  16.423  0.00  0.00    +0.000 C 
BRANCH   5   7
ATOM      6  C   UNL     1       5.321   4.164  13.905  0.00  0.00    +0.000 C 
ATOM      7  C   UNL     1       5.677   4.743  15.284  0.00  0.00    +0.000 C 
ATOM      8  C   UNL     1       5.064   6.149  15.404  0.00  0.00    +0.000 C 
BRANCH   7   9
ATOM      9  C   UNL     1       7.199   4.844  15.450  0.00  0.00    +0.000 C 
ATOM     10  N   UNL     1       7.893   5.429  14.428  0.00  0.00    +0.000 N 
ATOM     11  O   UNL     1       7.814   4.448  16.438  0.00  0.00    +0.000 OA
ATOM     12  H   UNL     1       7.474   5.702  13.548  0.00  0.00    +0.000 HD
ATOM     13  H   UNL     1       8.898   5.493  14.525  0.00  0.00    +0.000 HD
ENDBRANCH   7   9
ENDBRANCH   5   7
ENDBRANCH   1   5
BRANCH   2  14
ATOM     14  C   UNL     1       4.132   5.489  19.728  0.00  0.00    +0.000 C 
BRANCH  14  15
ATOM     15  C   UNL     1       2.716   5.781  19.186  0.00  0.00    +0.000 C 
BRANCH  15  16
ATOM     16  C   UNL     1       1.676   5.092  20.059  0.00  0.00    +0.000 C 
ATOM     17  C   UNL     1       1.074   3.763  19.665  0.00  0.00    +0.000 C 
ATOM     18  C   UNL     1       1.908   3.866  20.909  0.00  0.00    +0.000 C 
ENDBRANCH  15  16
BRANCH  15  19
ATOM     19  C   UNL     1       2.539   7.276  19.017  0.00  0.00    +0.000 C 
ATOM     20  C   UNL     1       3.091   7.937  17.771  0.00  0.00    +0.000 C 
ATOM     21  C   UNL     1       1.609   7.855  17.973  0.00  0.00    +0.000 C 
ENDBRANCH  15  19
ENDBRANCH  14  15
ENDBRANCH   2  14
TORSDOF 7
ENDMDL
MODEL 4
REMARK VINA RESULT:      -6.3      2.206      6.195
REMARK  Name = 
REMARK  9 active torsions:
REMARK  status: ('A' for Active; 'I' for Inactive)
REMARK    1  A    between atoms: C_1  and  C_2
REMARK    2  A    between atoms: C_2  and  C_3
REMARK    3  A    between atoms: C_2  and  C_4
REMARK    4  A    between atoms: C_2  and  C_16
REMARK    5  A    between atoms: C_4  and  N_5
REMARK    6  A    between atoms: C_6  and  C_8
REMARK    7  A    between atoms: C_8  and  C_9
REMARK    8  A    between atoms: C_9  and  C_10
REMARK    9  A    between atoms: C_9  and  C_13
REMARK                            x       y       z     vdW  Elec       q    Type
REMARK                         _______ _______ _______ _____ _____    ______ ____
ROOT
ATOM      1  N   UNL     1       4.605   4.386  17.548  0.00  0.00    +0.000 N 
ATOM      2  C   UNL     1       4.102   3.482  18.456  0.00  0.00    +0.000 C 
ATOM      3  O   UNL     1       3.946   2.292  18.201  0.00  0.00    +0.000 OA
ATOM      4  H   UNL     1       4.842   5.326  17.852  0.00  0.00    +0.000 HD
ENDROOT
BRANCH   1   5
ATOM      5  C   UNL     1       5.068   4.001  16.225  0.00  0.00    +0.000 C 
BRANCH   5   7
ATOM      6  C   UNL     1       6.515   4.506  14.193  0.00  0.00    +0.000 C 
ATOM      7  C   UNL     1       6.016   5.028  15.550  0.00  0.00    +0.000 C 
ATOM      8  C   UNL     1       5.230   6.330  15.320  0.00  0.00    +0.000 C 
BRANCH   7   9
ATOM      9  C   UNL     1       7.197   5.314  16.486  0.00  0.00    +0.000 C 
ATOM     10  N   UNL     1       7.556   6.624  16.644  0.00  0.00    +0.000 N 
ATOM     11  O   UNL     1       7.818   4.449  17.099  0.00  0.00    +0.000 OA
ATOM     12  H   UNL     1       7.153   7.385  16.111  0.00  0.00    +0.000 HD
ATOM     13  H   UNL     1       8.339   6.823  17.253  0.00  0.00    +0.000 HD
ENDBRANCH   7   9
ENDBRANCH   5   7
ENDBRANCH   1   5
BRANCH   2  14
ATOM     14  C   UNL     1       3.697   4.109  19.776  0.00  0.00    +0.000 C 
BRANCH  14  15
ATOM     15  C   UNL     1       2.414   4.959  19.659  0.00  0.00    +0.000 C 
BRANCH  15  16
ATOM     16  C   UNL     1       1.293   4.318  20.465  0.00  0.00    +0.000 C 
ATOM     17  C   UNL     1       0.594   3.068  19.983  0.00  0.00    +0.000 C 
ATOM     18  C   UNL     1       1.395   3.033  21.253  0.00  0.00    +0.000 C 
ENDBRANCH  15  16
BRANCH  15  19
ATOM     19  C   UNL     1       2.730   6.398  20.011  0.00  0.00    +0.000 C 
ATOM     20  C   UNL     1       2.331   7.489  19.039  0.00  0.00    +0.000 C 
ATOM     21  C   UNL     1       1.642   7.389  20.365  0.00  0.00    +0.000 C 
ENDBRANCH  15  19
ENDBRANCH  14  15
ENDBRANCH   2  14
TORSDOF 7
ENDMDL
MODEL 5
REMARK VINA RESULT:      -6.3      2.284      5.853
REMARK  Name = 
REMARK  9 active torsions:
REMARK  status: ('A' for Active; 'I' for Inactive)
REMARK    1  A    between atoms: C_1  and  C_2
REMARK    2  A    between atoms: C_2  and  C_3
REMARK    3  A    between atoms: C_2  and  C_4
REMARK    4  A    between atoms: C_2  and  C_16
REMARK    5  A    between atoms: C_4  and  N_5
REMARK    6  A    between atoms: C_6  and  C_8
REMARK    7  A    between atoms: C_8  and  C_9
REMARK    8  A    between atoms: C_9  and  C_10
REMARK    9  A    between atoms: C_9  and  C_13
REMARK                            x       y       z     vdW  Elec       q    Type
REMARK                         _______ _______ _______ _____ _____    ______ ____
ROOT
ATOM      1  N   UNL     1       3.915   5.820  17.254  0.00  0.00    +0.000 N 
ATOM      2  C   UNL     1       2.839   5.862  18.110  0.00  0.00    +0.000 C 
ATOM      3  O   UNL     1       2.758   6.649  19.048  0.00  0.00    +0.000 OA
ATOM      4  H   UNL     1       3.871   5.247  16.416  0.00  0.00    +0.000 HD
ENDROOT
BRANCH   1   5
ATOM      5  C   UNL     1       5.026   6.755  17.336  0.00  0.00    +0.000 C 
BRANCH   5   7
ATOM      6  C   UNL     1       7.513   7.153  17.704  0.00  0.00    +0.000 C 
ATOM      7  C   UNL     1       6.415   6.091  17.528  0.00  0.00    +0.000 C 
ATOM      8  C   UNL     1       6.362   5.221  18.795  0.00  0.00    +0.000 C 
BRANCH   7   9
ATOM      9  C   UNL     1       6.717   5.198  16.318  0.00  0.00    +0.000 C 
ATOM     10  N   UNL     1       7.528   5.722  15.350  0.00  0.00    +0.000 N 
ATOM     11  O   UNL     1       6.289   4.054  16.180  0.00  0.00    +0.000 OA
ATOM     12  H   UNL     1       7.850   6.682  15.347  0.00  0.00    +0.000 HD
ATOM     13  H   UNL     1       7.726   5.144  14.544  0.00  0.00    +0.000 HD
ENDBRANCH   7   9
ENDBRANCH   5   7
ENDBRANCH   1   5
BRANCH   2  14
ATOM     14  C   UNL     1       1.795   4.799  17.825  0.00  0.00    +0.000 C 
BRANCH  14  15
ATOM     15  C   UNL     1       1.883   3.606  18.800  0.00  0.00    +0.000 C 
BRANCH  15  16
ATOM     16  C   UNL     1       3.264   2.971  18.717  0.00  0.00    +0.000 C 
ATOM     17  C   UNL     1       3.439   1.470  18.694  0.00  0.00    +0.000 C 
ATOM     18  C   UNL     1       3.851   2.288  17.504  0.00  0.00    +0.000 C 
ENDBRANCH  15  16
BRANCH  15  19
ATOM     19  C   UNL     1       1.452   4.052  20.182  0.00  0.00    +0.000 C 
ATOM     20  C   UNL     1       1.133   2.996  21.220  0.00  0.00    +0.000 C 
ATOM     21  C   UNL     1       2.341   3.865  21.392  0.00  0.00    +0.000 C 
ENDBRANCH  15  19
ENDBRANCH  14  15
ENDBRANCH   2  14
TORSDOF 7
ENDMDL
MODEL 6
REMARK VINA RESULT:      -6.2      1.593      2.938
REMARK  Name = 
REMARK  9 active torsions:
REMARK  status: ('A' for Active; 'I' for Inactive)
REMARK    1  A    between atoms: C_1  and  C_2
REMARK    2  A    between atoms: C_2  and  C_3
REMARK    3  A    between atoms: C_2  and  C_4
REMARK    4  A    between atoms: C_2  and  C_16
REMARK    5  A    between atoms: C_4  and  N_5
REMARK    6  A    between atoms: C_6  and  C_8
REMARK    7  A    between atoms: C_8  and  C_9
REMARK    8  A    between atoms: C_9  and  C_10
REMARK    9  A    between atoms: C_9  and  C_13
REMARK                            x       y       z     vdW  Elec       q    Type
REMARK                         _______ _______ _______ _____ _____    ______ ____
ROOT
ATOM      1  N   UNL     1       3.406   4.740  18.270  0.00  0.00    +0.000 N 
ATOM      2  C   UNL     1       4.735   5.021  18.480  0.00  0.00    +0.000 C 
ATOM      3  O   UNL     1       5.503   4.249  19.046  0.00  0.00    +0.000 OA
ATOM      4  H   UNL     1       2.849   5.350  17.678  0.00  0.00    +0.000 HD
ENDROOT
BRANCH   1   5
ATOM      5  C   UNL     1       2.800   3.469  18.633  0.00  0.00    +0.000 C 
BRANCH   5   7
ATOM      6  C   UNL     1       1.672   4.935  20.383  0.00  0.00    +0.000 C 
ATOM      7  C   UNL     1       1.997   3.492  19.961  0.00  0.00    +0.000 C 
ATOM      8  C   UNL     1       0.678   2.733  19.738  0.00  0.00    +0.000 C 
BRANCH   7   9
ATOM      9  C   UNL     1       2.807   2.780  21.052  0.00  0.00    +0.000 C 
ATOM     10  N   UNL     1       3.984   2.200  20.666  0.00  0.00    +0.000 N 
ATOM     11  O   UNL     1       2.469   2.714  22.231  0.00  0.00    +0.000 OA
ATOM     12  H   UNL     1       4.289   2.135  19.704  0.00  0.00    +0.000 HD
ATOM     13  H   UNL     1       4.521   1.720  21.377  0.00  0.00    +0.000 HD
ENDBRANCH   7   9
ENDBRANCH   5   7
ENDBRANCH   1   5
BRANCH   2  14
ATOM     14  C   UNL     1       5.147   6.403  18.007  0.00  0.00    +0.000 C 
BRANCH  14  15
ATOM     15  C   UNL     1       6.062   6.355  16.765  0.00  0.00    +0.000 C 
BRANCH  15  16
ATOM     16  C   UNL     1       7.486   6.722  17.159  0.00  0.00    +0.000 C 
ATOM     17  C   UNL     1       7.837   8.113  17.634  0.00  0.00    +0.000 C 
ATOM     18  C   UNL     1       7.984   6.945  18.567  0.00  0.00    +0.000 C 
ENDBRANCH  15  16
BRANCH  15  19
ATOM     19  C   UNL     1       5.901   5.019  16.071  0.00  0.00    +0.000 C 
ATOM     20  C   UNL     1       5.558   5.002  14.595  0.00  0.00    +0.000 C 
ATOM     21  C   UNL     1       6.903   4.525  15.050  0.00  0.00    +0.000 C 
ENDBRANCH  15  19
ENDBRANCH  14  15
ENDBRANCH   2  14
TORSDOF 7
ENDMDL
MODEL 7
REMARK VINA RESULT:      -6.2      2.484      6.216
REMARK  Name = 
REMARK  9 active torsions:
REMARK  status: ('A' for Active; 'I' for Inactive)
REMARK    1  A    between atoms: C_1  and  C_2
REMARK    2  A    between atoms: C_2  and  C_3
REMARK    3  A    between atoms: C_2  and  C_4
REMARK    4  A    between atoms: C_2  and  C_16
REMARK    5  A    between atoms: C_4  and  N_5
REMARK    6  A    between atoms: C_6  and  C_8
REMARK    7  A    between atoms: C_8  and  C_9
REMARK    8  A    between atoms: C_9  and  C_10
REMARK    9  A    between atoms: C_9  and  C_13
REMARK                            x       y       z     vdW  Elec       q    Type
REMARK                         _______ _______ _______ _____ _____    ______ ____
ROOT
ATOM      1  N   UNL     1       4.300   5.817  17.108  0.00  0.00    +0.000 N 
ATOM      2  C   UNL     1       3.151   6.062  17.823  0.00  0.00    +0.000 C 
ATOM      3  O   UNL     1       2.995   7.058  18.523  0.00  0.00    +0.000 OA
ATOM      4  H   UNL     1       4.325   5.052  16.440  0.00  0.00    +0.000 HD
ENDROOT
BRANCH   1   5
ATOM      5  C   UNL     1       5.412   6.752  17.057  0.00  0.00    +0.000 C 
BRANCH   5   7
ATOM      6  C   UNL     1       7.722   7.349  17.943  0.00  0.00    +0.000 C 
ATOM      7  C   UNL     1       6.744   6.204  17.635  0.00  0.00    +0.000 C 
ATOM      8  C   UNL     1       6.429   5.457  18.942  0.00  0.00    +0.000 C 
BRANCH   7   9
ATOM      9  C   UNL     1       7.362   5.222  16.631  0.00  0.00    +0.000 C 
ATOM     10  N   UNL     1       7.226   5.527  15.305  0.00  0.00    +0.000 N 
ATOM     11  O   UNL     1       7.970   4.202  16.948  0.00  0.00    +0.000 OA
ATOM     12  H   UNL     1       6.668   6.298  14.961  0.00  0.00    +0.000 HD
ATOM     13  H   UNL     1       7.622   4.880  14.636  0.00  0.00    +0.000 HD
ENDBRANCH   7   9
ENDBRANCH   5   7
ENDBRANCH   1   5
BRANCH   2  14
ATOM     14  C   UNL     1       2.122   4.953  17.718  0.00  0.00    +0.000 C 
BRANCH  14  15
ATOM     15  C   UNL     1       2.439   3.760  18.645  0.00  0.00    +0.000 C 
BRANCH  15  16
ATOM     16  C   UNL     1       1.297   3.553  19.630  0.00  0.00    +0.000 C 
ATOM     17  C   UNL     1       1.560   3.201  21.076  0.00  0.00    +0.000 C 
ATOM     18  C   UNL     1       0.898   4.504  20.733  0.00  0.00    +0.000 C 
ENDBRANCH  15  16
BRANCH  15  19
ATOM     19  C   UNL     1       2.804   2.553  17.805  0.00  0.00    +0.000 C 
ATOM     20  C   UNL     1       4.267   2.280  17.521  0.00  0.00    +0.000 C 
ATOM     21  C   UNL     1       3.495   1.347  18.403  0.00  0.00    +0.000 C 
ENDBRANCH  15  19
ENDBRANCH  14  15
ENDBRANCH   2  14
TORSDOF 7
ENDMDL
MODEL 8
REMARK VINA RESULT:      -6.2      1.907      3.283
REMARK  Name = 
REMARK  9 active torsions:
REMARK  status: ('A' for Active; 'I' for Inactive)
REMARK    1  A    between atoms: C_1  and  C_2
REMARK    2  A    between atoms: C_2  and  C_3
REMARK    3  A    between atoms: C_2  and  C_4
REMARK    4  A    between atoms: C_2  and  C_16
REMARK    5  A    between atoms: C_4  and  N_5
REMARK    6  A    between atoms: C_6  and  C_8
REMARK    7  A    between atoms: C_8  and  C_9
REMARK    8  A    between atoms: C_9  and  C_10
REMARK    9  A    between atoms: C_9  and  C_13
REMARK                            x       y       z     vdW  Elec       q    Type
REMARK                         _______ _______ _______ _____ _____    ______ ____
ROOT
ATOM      1  N   UNL     1       4.308   3.148  18.048  0.00  0.00    +0.000 N 
ATOM      2  C   UNL     1       5.411   3.831  18.506  0.00  0.00    +0.000 C 
ATOM      3  O   UNL     1       5.575   4.125  19.687  0.00  0.00    +0.000 OA
ATOM      4  H   UNL     1       4.287   2.811  17.090  0.00  0.00    +0.000 HD
ENDROOT
BRANCH   1   5
ATOM      5  C   UNL     1       3.268   2.646  18.931  0.00  0.00    +0.000 C 
BRANCH   5   7
ATOM      6  C   UNL     1       1.871   4.519  17.919  0.00  0.00    +0.000 C 
ATOM      7  C   UNL     1       2.081   3.621  19.150  0.00  0.00    +0.000 C 
ATOM      8  C   UNL     1       0.809   2.786  19.376  0.00  0.00    +0.000 C 
BRANCH   7   9
ATOM      9  C   UNL     1       2.351   4.471  20.398  0.00  0.00    +0.000 C 
ATOM     10  N   UNL     1       2.853   5.726  20.194  0.00  0.00    +0.000 N 
ATOM     11  O   UNL     1       2.135   4.097  21.549  0.00  0.00    +0.000 OA
ATOM     12  H   UNL     1       3.138   6.076  19.288  0.00  0.00    +0.000 HD
ATOM     13  H   UNL     1       3.042   6.291  21.011  0.00  0.00    +0.000 HD
ENDBRANCH   7   9
ENDBRANCH   5   7
ENDBRANCH   1   5
BRANCH   2  14
ATOM     14  C   UNL     1       6.370   4.244  17.407  0.00  0.00    +0.000 C 
BRANCH  14  15
ATOM     15  C   UNL     1       5.644   4.617  16.096  0.00  0.00    +0.000 C 
BRANCH  15  16
ATOM     16  C   UNL     1       5.491   6.128  16.002  0.00  0.00    +0.000 C 
ATOM     17  C   UNL     1       4.429   6.862  16.789  0.00  0.00    +0.000 C 
ATOM     18  C   UNL     1       5.881   7.124  17.069  0.00  0.00    +0.000 C 
ENDBRANCH  15  16
BRANCH  15  19
ATOM     19  C   UNL     1       6.346   3.958  14.926  0.00  0.00    +0.000 C 
ATOM     20  C   UNL     1       5.648   3.929  13.582  0.00  0.00    +0.000 C 
ATOM     21  C   UNL     1       6.880   4.764  13.762  0.00  0.00    +0.000 C 
ENDBRANCH  15  19
ENDBRANCH  14  15
ENDBRANCH   2  14
TORSDOF 7
ENDMDL
MODEL 9
REMARK VINA RESULT:      -6.2      1.657      3.096
REMARK  Name = 
REMARK  9 active torsions:
REMARK  status: ('A' for Active; 'I' for Inactive)
REMARK    1  A    between atoms: C_1  and  C_2
REMARK    2  A    between atoms: C_2  and  C_3
REMARK    3  A    between atoms: C_2  and  C_4
REMARK    4  A    between atoms: C_2  and  C_16
REMARK    5  A    between atoms: C_4  and  N_5
REMARK    6  A    between atoms: C_6  and  C_8
REMARK    7  A    between atoms: C_8  and  C_9
REMARK    8  A    between atoms: C_9  and  C_10
REMARK    9  A    between atoms: C_9  and  C_13
REMARK                            x       y       z     vdW  Elec       q    Type
REMARK                         _______ _______ _______ _____ _____    ______ ____
ROOT
ATOM      1  N   UNL     1       4.393   4.039  19.350  0.00  0.00    +0.000 N 
ATOM      2  C   UNL     1       4.902   5.274  19.023  0.00  0.00    +0.000 C 
ATOM      3  O   UNL     1       4.211   6.286  18.950  0.00  0.00    +0.000 OA
ATOM      4  H   UNL     1       5.027   3.265  19.532  0.00  0.00    +0.000 HD
ENDROOT
BRANCH   1   5
ATOM      5  C   UNL     1       3.001   3.829  19.712  0.00  0.00    +0.000 C 
BRANCH   5   7
ATOM      6  C   UNL     1       1.687   4.540  17.650  0.00  0.00    +0.000 C 
ATOM      7  C   UNL     1       2.095   3.357  18.543  0.00  0.00    +0.000 C 
ATOM      8  C   UNL     1       2.889   2.348  17.696  0.00  0.00    +0.000 C 
BRANCH   7   9
ATOM      9  C   UNL     1       0.854   2.662  19.118  0.00  0.00    +0.000 C 
ATOM     10  N   UNL     1       0.554   2.918  20.427  0.00  0.00    +0.000 N 
ATOM     11  O   UNL     1       0.122   1.911  18.476  0.00  0.00    +0.000 OA
ATOM     12  H   UNL     1       1.150   3.453  21.046  0.00  0.00    +0.000 HD
ATOM     13  H   UNL     1      -0.258   2.457  20.818  0.00  0.00    +0.000 HD
ENDBRANCH   7   9
ENDBRANCH   5   7
ENDBRANCH   1   5
BRANCH   2  14
ATOM     14  C   UNL     1       6.383   5.254  18.697  0.00  0.00    +0.000 C 
BRANCH  14  15
ATOM     15  C   UNL     1       6.683   5.773  17.275  0.00  0.00    +0.000 C 
BRANCH  15  16
ATOM     16  C   UNL     1       7.787   6.820  17.329  0.00  0.00    +0.000 C 
ATOM     17  C   UNL     1       7.472   8.286  17.518  0.00  0.00    +0.000 C 
ATOM     18  C   UNL     1       8.254   7.549  18.566  0.00  0.00    +0.000 C 
ENDBRANCH  15  16
BRANCH  15  19
ATOM     19  C   UNL     1       6.943   4.598  16.354  0.00  0.00    +0.000 C 
ATOM     20  C   UNL     1       5.791   4.043  15.541  0.00  0.00    +0.000 C 
ATOM     21  C   UNL     1       6.918   4.746  14.848  0.00  0.00    +0.000 C 
ENDBRANCH  15  19
ENDBRANCH  14  15
ENDBRANCH   2  14
TORSDOF 7
ENDMDL
