MODEL 1
REMARK VINA RESULT:      -8.0      0.000      0.000
REMARK  Name = 
REMARK  5 active torsions:
REMARK  status: ('A' for Active; 'I' for Inactive)
REMARK    1  A    between atoms: C_6  and  C_7
REMARK    2  A    between atoms: C_7  and  O_8
REMARK    3  A    between atoms: O_8  and  N_9
REMARK    4  A    between atoms: C_20  and  C_21
REMARK    5  A    between atoms: C_21  and  N_22
REMARK                            x       y       z     vdW  Elec       q    Type
REMARK                         _______ _______ _______ _____ _____    ______ ____
ROOT
ATOM      1  N   UNL     1       3.710   6.555  16.923  0.00  0.00    +0.000 NA
ATOM      2  C   UNL     1       2.911   6.093  17.844  0.00  0.00    +0.000 C 
ATOM      3  C   UNL     1       2.749   4.665  18.291  0.00  0.00    +0.000 A 
ATOM      4  C   UNL     1       3.027   3.599  17.422  0.00  0.00    +0.000 A 
ATOM      5  C   UNL     1       2.943   2.276  17.854  0.00  0.00    +0.000 A 
ATOM      6  C   UNL     1       2.528   2.001  19.147  0.00  0.00    +0.000 A 
ATOM      7  C   UNL     1       2.168   3.046  20.002  0.00  0.00    +0.000 A 
ATOM      8 BR   UNL     1       1.507   2.548  21.717  0.00  0.00    +0.000 Br
ATOM      9  C   UNL     1       2.273   4.393  19.594  0.00  0.00    +0.000 A 
ATOM     10  C   UNL     1       1.806   5.507  20.502  0.00  0.00    +0.000 C 
ATOM     11  C   UNL     1       2.285   6.888  20.080  0.00  0.00    +0.000 C 
ATOM     12  C   UNL     1       2.040   7.114  18.587  0.00  0.00    +0.000 C 
ENDROOT
BRANCH   1  13
ATOM     13  O   UNL     1       4.580   5.605  16.384  0.00  0.00    +0.000 OA
BRANCH  13  14
ATOM     14  C   UNL     1       5.748   6.260  15.878  0.00  0.00    +0.000 C 
BRANCH  14  20
ATOM     15 CL   UNL     1       8.847   9.524  18.558  0.00  0.00    +0.000 Cl
ATOM     16  C   UNL     1       8.137   7.975  18.315  0.00  0.00    +0.000 A 
ATOM     17  C   UNL     1       8.433   6.937  19.196  0.00  0.00    +0.000 A 
ATOM     18  C   UNL     1       7.860   5.682  19.000  0.00  0.00    +0.000 A 
ATOM     19  C   UNL     1       6.992   5.471  17.927  0.00  0.00    +0.000 A 
ATOM     20  C   UNL     1       6.689   6.510  17.033  0.00  0.00    +0.000 A 
ATOM     21  C   UNL     1       7.271   7.770  17.237  0.00  0.00    +0.000 A 
ENDBRANCH  14  20
ENDBRANCH  13  14
ENDBRANCH   1  13
BRANCH  12  22
ATOM     22  C   UNL     1       2.358   8.579  18.249  0.00  0.00    +0.000 C 
BRANCH  22  23
ATOM     23  N   UNL     1       1.304   9.513  18.577  0.00  0.00    +0.000 N 
ATOM     24  C   UNL     1       1.224  10.324  19.666  0.00  0.00    +0.000 A 
ATOM     25  N   UNL     1       0.111  11.018  19.616  0.00  0.00    +0.000 NA
ATOM     26  C   UNL     1      -0.469  10.576  18.461  0.00  0.00    +0.000 A 
ATOM     27  N   UNL     1       0.211   9.634  17.800  0.00  0.00    +0.000 NA
ENDBRANCH  22  23
ENDBRANCH  12  22
TORSDOF 5
ENDMDL
MODEL 2
REMARK VINA RESULT:      -8.0      2.748      3.570
REMARK  Name = 
REMARK  5 active torsions:
REMARK  status: ('A' for Active; 'I' for Inactive)
REMARK    1  A    between atoms: C_6  and  C_7
REMARK    2  A    between atoms: C_7  and  O_8
REMARK    3  A    between atoms: O_8  and  N_9
REMARK    4  A    between atoms: C_20  and  C_21
REMARK    5  A    between atoms: C_21  and  N_22
REMARK                            x       y       z     vdW  Elec       q    Type
REMARK                         _______ _______ _______ _____ _____    ______ ____
ROOT
ATOM      1  N   UNL     1       4.339   5.940  16.720  0.00  0.00    +0.000 NA
ATOM      2  C   UNL     1       3.431   5.637  17.604  0.00  0.00    +0.000 C 
ATOM      3  C   UNL     1       3.129   4.282  18.186  0.00  0.00    +0.000 A 
ATOM      4  C   UNL     1       3.406   3.108  17.469  0.00  0.00    +0.000 A 
ATOM      5  C   UNL     1       3.190   1.851  18.032  0.00  0.00    +0.000 A 
ATOM      6  C   UNL     1       2.644   1.752  19.302  0.00  0.00    +0.000 A 
ATOM      7  C   UNL     1       2.285   2.908  20.000  0.00  0.00    +0.000 A 
ATOM      8 BR   UNL     1       1.442   2.651  21.688  0.00  0.00    +0.000 Br
ATOM      9  C   UNL     1       2.522   4.190  19.460  0.00  0.00    +0.000 A 
ATOM     10  C   UNL     1       2.058   5.427  20.193  0.00  0.00    +0.000 C 
ATOM     11  C   UNL     1       2.669   6.719  19.671  0.00  0.00    +0.000 C 
ATOM     12  C   UNL     1       2.573   6.788  18.146  0.00  0.00    +0.000 C 
ENDROOT
BRANCH   1  13
ATOM     13  O   UNL     1       5.183   4.884  16.373  0.00  0.00    +0.000 OA
BRANCH  13  14
ATOM     14  C   UNL     1       6.461   5.400  15.988  0.00  0.00    +0.000 C 
BRANCH  14  20
ATOM     15 CL   UNL     1       5.298   2.409  11.848  0.00  0.00    +0.000 Cl
ATOM     16  C   UNL     1       6.230   3.642  12.605  0.00  0.00    +0.000 A 
ATOM     17  C   UNL     1       7.239   4.281  11.887  0.00  0.00    +0.000 A 
ATOM     18  C   UNL     1       7.995   5.278  12.499  0.00  0.00    +0.000 A 
ATOM     19  C   UNL     1       7.737   5.636  13.824  0.00  0.00    +0.000 A 
ATOM     20  C   UNL     1       6.723   4.998  14.556  0.00  0.00    +0.000 A 
ATOM     21  C   UNL     1       5.968   3.994  13.932  0.00  0.00    +0.000 A 
ENDBRANCH  14  20
ENDBRANCH  13  14
ENDBRANCH   1  13
BRANCH  12  22
ATOM     22  C   UNL     1       3.023   8.182  17.683  0.00  0.00    +0.000 C 
BRANCH  22  23
ATOM     23  N   UNL     1       2.084   9.242  17.972  0.00  0.00    +0.000 N 
ATOM     24  C   UNL     1       0.730   9.148  18.061  0.00  0.00    +0.000 A 
ATOM     25  N   UNL     1       0.224  10.330  18.326  0.00  0.00    +0.000 NA
ATOM     26  C   UNL     1       1.332  11.128  18.378  0.00  0.00    +0.000 A 
ATOM     27  N   UNL     1       2.495  10.513  18.142  0.00  0.00    +0.000 NA
ENDBRANCH  22  23
ENDBRANCH  12  22
TORSDOF 5
ENDMDL
MODEL 3
REMARK VINA RESULT:      -7.5      3.036      6.379
REMARK  Name = 
REMARK  5 active torsions:
REMARK  status: ('A' for Active; 'I' for Inactive)
REMARK    1  A    between atoms: C_6  and  C_7
REMARK    2  A    between atoms: C_7  and  O_8
REMARK    3  A    between atoms: O_8  and  N_9
REMARK    4  A    between atoms: C_20  and  C_21
REMARK    5  A    between atoms: C_21  and  N_22
REMARK                            x       y       z     vdW  Elec       q    Type
REMARK                         _______ _______ _______ _____ _____    ______ ____
ROOT
ATOM      1  N   UNL     1       3.554   7.626  17.890  0.00  0.00    +0.000 NA
ATOM      2  C   UNL     1       3.694   6.350  18.121  0.00  0.00    +0.000 C 
ATOM      3  C   UNL     1       2.749   5.439  18.857  0.00  0.00    +0.000 A 
ATOM      4  C   UNL     1       1.881   5.937  19.841  0.00  0.00    +0.000 A 
ATOM      5  C   UNL     1       0.959   5.107  20.475  0.00  0.00    +0.000 A 
ATOM      6  C   UNL     1       0.928   3.756  20.173  0.00  0.00    +0.000 A 
ATOM      7  C   UNL     1       1.839   3.225  19.256  0.00  0.00    +0.000 A 
ATOM      8 BR   UNL     1       1.781   1.339  18.998  0.00  0.00    +0.000 Br
ATOM      9  C   UNL     1       2.762   4.052  18.580  0.00  0.00    +0.000 A 
ATOM     10  C   UNL     1       3.791   3.452  17.651  0.00  0.00    +0.000 C 
ATOM     11  C   UNL     1       4.479   4.470  16.753  0.00  0.00    +0.000 C 
ATOM     12  C   UNL     1       4.955   5.675  17.565  0.00  0.00    +0.000 C 
ENDROOT
BRANCH   1  13
ATOM     13  O   UNL     1       2.325   8.153  18.289  0.00  0.00    +0.000 OA
BRANCH  13  14
ATOM     14  C   UNL     1       2.263   9.540  17.940  0.00  0.00    +0.000 C 
BRANCH  14  20
ATOM     15 CL   UNL     1      -2.960   9.852  17.703  0.00  0.00    +0.000 Cl
ATOM     16  C   UNL     1      -1.452  10.289  18.408  0.00  0.00    +0.000 A 
ATOM     17  C   UNL     1      -1.427  11.175  19.484  0.00  0.00    +0.000 A 
ATOM     18  C   UNL     1      -0.207  11.531  20.055  0.00  0.00    +0.000 A 
ATOM     19  C   UNL     1       0.981  10.997  19.552  0.00  0.00    +0.000 A 
ATOM     20  C   UNL     1       0.967  10.105  18.468  0.00  0.00    +0.000 A 
ATOM     21  C   UNL     1      -0.267   9.753  17.899  0.00  0.00    +0.000 A 
ENDBRANCH  14  20
ENDBRANCH  13  14
ENDBRANCH   1  13
BRANCH  12  22
ATOM     22  C   UNL     1       5.806   6.578  16.660  0.00  0.00    +0.000 C 
BRANCH  22  23
ATOM     23  N   UNL     1       6.875   7.276  17.340  0.00  0.00    +0.000 N 
ATOM     24  C   UNL     1       7.720   6.778  18.283  0.00  0.00    +0.000 A 
ATOM     25  N   UNL     1       8.547   7.721  18.673  0.00  0.00    +0.000 NA
ATOM     26  C   UNL     1       8.148   8.797  17.932  0.00  0.00    +0.000 A 
ATOM     27  N   UNL     1       7.110   8.582  17.118  0.00  0.00    +0.000 NA
ENDBRANCH  22  23
ENDBRANCH  12  22
TORSDOF 5
ENDMDL
MODEL 4
REMARK VINA RESULT:      -7.4      2.827      6.213
REMARK  Name = 
REMARK  5 active torsions:
REMARK  status: ('A' for Active; 'I' for Inactive)
REMARK    1  A    between atoms: C_6  and  C_7
REMARK    2  A    between atoms: C_7  and  O_8
REMARK    3  A    between atoms: O_8  and  N_9
REMARK    4  A    between atoms: C_20  and  C_21
REMARK    5  A    between atoms: C_21  and  N_22
REMARK                            x       y       z     vdW  Elec       q    Type
REMARK                         _______ _______ _______ _____ _____    ______ ____
ROOT
ATOM      1  N   UNL     1       3.380   7.612  17.894  0.00  0.00    +0.000 NA
ATOM      2  C   UNL     1       3.614   6.356  18.151  0.00  0.00    +0.000 C 
ATOM      3  C   UNL     1       2.729   5.386  18.887  0.00  0.00    +0.000 A 
ATOM      4  C   UNL     1       1.806   5.832  19.845  0.00  0.00    +0.000 A 
ATOM      5  C   UNL     1       0.939   4.943  20.479  0.00  0.00    +0.000 A 
ATOM      6  C   UNL     1       1.019   3.589  20.200  0.00  0.00    +0.000 A 
ATOM      7  C   UNL     1       1.986   3.115  19.310  0.00  0.00    +0.000 A 
ATOM      8 BR   UNL     1       2.079   1.226  19.086  0.00  0.00    +0.000 Br
ATOM      9  C   UNL     1       2.854   4.000  18.636  0.00  0.00    +0.000 A 
ATOM     10  C   UNL     1       3.945   3.466  17.737  0.00  0.00    +0.000 C 
ATOM     11  C   UNL     1       4.569   4.519  16.832  0.00  0.00    +0.000 C 
ATOM     12  C   UNL     1       4.934   5.772  17.631  0.00  0.00    +0.000 C 
ENDROOT
BRANCH   1  13
ATOM     13  O   UNL     1       2.106   8.048  18.261  0.00  0.00    +0.000 OA
BRANCH  13  14
ATOM     14  C   UNL     1       2.024   9.469  18.105  0.00  0.00    +0.000 C 
BRANCH  14  20
ATOM     15 CL   UNL     1      -0.196   9.313  22.846  0.00  0.00    +0.000 Cl
ATOM     16  C   UNL     1      -0.066   9.971  21.261  0.00  0.00    +0.000 A 
ATOM     17  C   UNL     1      -0.916  11.005  20.874  0.00  0.00    +0.000 A 
ATOM     18  C   UNL     1      -0.813  11.538  19.591  0.00  0.00    +0.000 A 
ATOM     19  C   UNL     1       0.140  11.038  18.702  0.00  0.00    +0.000 A 
ATOM     20  C   UNL     1       1.000   9.995  19.082  0.00  0.00    +0.000 A 
ATOM     21  C   UNL     1       0.888   9.464  20.376  0.00  0.00    +0.000 A 
ENDBRANCH  14  20
ENDBRANCH  13  14
ENDBRANCH   1  13
BRANCH  12  22
ATOM     22  C   UNL     1       5.730   6.722  16.724  0.00  0.00    +0.000 C 
BRANCH  22  23
ATOM     23  N   UNL     1       6.844   7.379  17.372  0.00  0.00    +0.000 N 
ATOM     24  C   UNL     1       7.723   6.837  18.258  0.00  0.00    +0.000 A 
ATOM     25  N   UNL     1       8.586   7.752  18.634  0.00  0.00    +0.000 NA
ATOM     26  C   UNL     1       8.175   8.857  17.944  0.00  0.00    +0.000 A 
ATOM     27  N   UNL     1       7.095   8.686  17.176  0.00  0.00    +0.000 NA
ENDBRANCH  22  23
ENDBRANCH  12  22
TORSDOF 5
ENDMDL
MODEL 5
REMARK VINA RESULT:      -7.4      1.140      1.491
REMARK  Name = 
REMARK  5 active torsions:
REMARK  status: ('A' for Active; 'I' for Inactive)
REMARK    1  A    between atoms: C_6  and  C_7
REMARK    2  A    between atoms: C_7  and  O_8
REMARK    3  A    between atoms: O_8  and  N_9
REMARK    4  A    between atoms: C_20  and  C_21
REMARK    5  A    between atoms: C_21  and  N_22
REMARK                            x       y       z     vdW  Elec       q    Type
REMARK                         _______ _______ _______ _____ _____    ______ ____
ROOT
ATOM      1  N   UNL     1       4.124   6.059  16.741  0.00  0.00    +0.000 NA
ATOM      2  C   UNL     1       3.256   5.732  17.657  0.00  0.00    +0.000 C 
ATOM      3  C   UNL     1       2.959   4.358  18.196  0.00  0.00    +0.000 A 
ATOM      4  C   UNL     1       3.180   3.212  17.418  0.00  0.00    +0.000 A 
ATOM      5  C   UNL     1       2.970   1.936  17.938  0.00  0.00    +0.000 A 
ATOM      6  C   UNL     1       2.487   1.791  19.228  0.00  0.00    +0.000 A 
ATOM      7  C   UNL     1       2.183   2.921  19.991  0.00  0.00    +0.000 A 
ATOM      8 BR   UNL     1       1.422   2.605  21.707  0.00  0.00    +0.000 Br
ATOM      9  C   UNL     1       2.416   4.222  19.494  0.00  0.00    +0.000 A 
ATOM     10  C   UNL     1       2.010   5.433  20.301  0.00  0.00    +0.000 C 
ATOM     11  C   UNL     1       2.617   6.737  19.803  0.00  0.00    +0.000 C 
ATOM     12  C   UNL     1       2.446   6.872  18.289  0.00  0.00    +0.000 C 
ENDROOT
BRANCH   1  13
ATOM     13  O   UNL     1       4.931   5.006  16.308  0.00  0.00    +0.000 OA
BRANCH  13  14
ATOM     14  C   UNL     1       6.147   5.528  15.764  0.00  0.00    +0.000 C 
BRANCH  14  20
ATOM     15 CL   UNL     1       8.505   5.219  20.432  0.00  0.00    +0.000 Cl
ATOM     16  C   UNL     1       8.028   6.108  19.038  0.00  0.00    +0.000 A 
ATOM     17  C   UNL     1       8.360   7.458  18.935  0.00  0.00    +0.000 A 
ATOM     18  C   UNL     1       7.973   8.179  17.808  0.00  0.00    +0.000 A 
ATOM     19  C   UNL     1       7.260   7.549  16.787  0.00  0.00    +0.000 A 
ATOM     20  C   UNL     1       6.920   6.190  16.881  0.00  0.00    +0.000 A 
ATOM     21  C   UNL     1       7.312   5.472  18.020  0.00  0.00    +0.000 A 
ENDBRANCH  14  20
ENDBRANCH  13  14
ENDBRANCH   1  13
BRANCH  12  22
ATOM     22  C   UNL     1       2.897   8.277  17.863  0.00  0.00    +0.000 C 
BRANCH  22  23
ATOM     23  N   UNL     1       2.019   9.344  18.288  0.00  0.00    +0.000 N 
ATOM     24  C   UNL     1       2.143  10.673  18.027  0.00  0.00    +0.000 A 
ATOM     25  N   UNL     1       1.156  11.326  18.595  0.00  0.00    +0.000 NA
ATOM     26  C   UNL     1       0.451  10.332  19.211  0.00  0.00    +0.000 A 
ATOM     27  N   UNL     1       0.954   9.101  19.074  0.00  0.00    +0.000 NA
ENDBRANCH  22  23
ENDBRANCH  12  22
TORSDOF 5
ENDMDL
MODEL 6
REMARK VINA RESULT:      -7.3      2.019      2.483
REMARK  Name = 
REMARK  5 active torsions:
REMARK  status: ('A' for Active; 'I' for Inactive)
REMARK    1  A    between atoms: C_6  and  C_7
REMARK    2  A    between atoms: C_7  and  O_8
REMARK    3  A    between atoms: O_8  and  N_9
REMARK    4  A    between atoms: C_20  and  C_21
REMARK    5  A    between atoms: C_21  and  N_22
REMARK                            x       y       z     vdW  Elec       q    Type
REMARK                         _______ _______ _______ _____ _____    ______ ____
ROOT
ATOM      1  N   UNL     1       2.777   8.111  17.674  0.00  0.00    +0.000 NA
ATOM      2  C   UNL     1       2.174   7.336  18.532  0.00  0.00    +0.000 C 
ATOM      3  C   UNL     1       2.242   5.834  18.623  0.00  0.00    +0.000 A 
ATOM      4  C   UNL     1       2.516   5.052  17.490  0.00  0.00    +0.000 A 
ATOM      5  C   UNL     1       2.646   3.668  17.584  0.00  0.00    +0.000 A 
ATOM      6  C   UNL     1       2.452   3.041  18.805  0.00  0.00    +0.000 A 
ATOM      7  C   UNL     1       2.098   3.794  19.927  0.00  0.00    +0.000 A 
ATOM      8 BR   UNL     1       1.749   2.818  21.525  0.00  0.00    +0.000 Br
ATOM      9  C   UNL     1       1.990   5.199  19.860  0.00  0.00    +0.000 A 
ATOM     10  C   UNL     1       1.531   5.990  21.063  0.00  0.00    +0.000 C 
ATOM     11  C   UNL     1       1.784   7.486  20.950  0.00  0.00    +0.000 C 
ATOM     12  C   UNL     1       1.305   8.017  19.597  0.00  0.00    +0.000 C 
ENDROOT
BRANCH   1  13
ATOM     13  O   UNL     1       3.665   7.450  16.824  0.00  0.00    +0.000 OA
BRANCH  13  14
ATOM     14  C   UNL     1       4.988   7.521  17.367  0.00  0.00    +0.000 C 
BRANCH  14  20
ATOM     15 CL   UNL     1       5.936   3.947  13.657  0.00  0.00    +0.000 Cl
ATOM     16  C   UNL     1       6.248   4.638  15.202  0.00  0.00    +0.000 A 
ATOM     17  C   UNL     1       7.231   4.082  16.018  0.00  0.00    +0.000 A 
ATOM     18  C   UNL     1       7.484   4.640  17.270  0.00  0.00    +0.000 A 
ATOM     19  C   UNL     1       6.756   5.752  17.698  0.00  0.00    +0.000 A 
ATOM     20  C   UNL     1       5.763   6.318  16.884  0.00  0.00    +0.000 A 
ATOM     21  C   UNL     1       5.515   5.749  15.625  0.00  0.00    +0.000 A 
ENDBRANCH  14  20
ENDBRANCH  13  14
ENDBRANCH   1  13
BRANCH  12  22
ATOM     22  C   UNL     1       1.402   9.550  19.604  0.00  0.00    +0.000 C 
BRANCH  22  23
ATOM     23  N   UNL     1       0.163  10.231  19.301  0.00  0.00    +0.000 N 
ATOM     24  C   UNL     1      -0.556  11.045  20.120  0.00  0.00    +0.000 A 
ATOM     25  N   UNL     1      -1.629  11.464  19.490  0.00  0.00    +0.000 NA
ATOM     26  C   UNL     1      -1.521  10.856  18.272  0.00  0.00    +0.000 A 
ATOM     27  N   UNL     1      -0.453  10.068  18.116  0.00  0.00    +0.000 NA
ENDBRANCH  22  23
ENDBRANCH  12  22
TORSDOF 5
ENDMDL
MODEL 7
REMARK VINA RESULT:      -7.3      2.927      6.153
REMARK  Name = 
REMARK  5 active torsions:
REMARK  status: ('A' for Active; 'I' for Inactive)
REMARK    1  A    between atoms: C_6  and  C_7
REMARK    2  A    between atoms: C_7  and  O_8
REMARK    3  A    between atoms: O_8  and  N_9
REMARK    4  A    between atoms: C_20  and  C_21
REMARK    5  A    between atoms: C_21  and  N_22
REMARK                            x       y       z     vdW  Elec       q    Type
REMARK                         _______ _______ _______ _____ _____    ______ ____
ROOT
ATOM      1  N   UNL     1       3.460   7.553  17.845  0.00  0.00    +0.000 NA
ATOM      2  C   UNL     1       3.671   6.295  18.117  0.00  0.00    +0.000 C 
ATOM      3  C   UNL     1       2.759   5.346  18.848  0.00  0.00    +0.000 A 
ATOM      4  C   UNL     1       1.830   5.815  19.788  0.00  0.00    +0.000 A 
ATOM      5  C   UNL     1       0.939   4.946  20.417  0.00  0.00    +0.000 A 
ATOM      6  C   UNL     1       1.002   3.588  20.152  0.00  0.00    +0.000 A 
ATOM      7  C   UNL     1       1.975   3.091  19.280  0.00  0.00    +0.000 A 
ATOM      8 BR   UNL     1       2.041   1.199  19.074  0.00  0.00    +0.000 Br
ATOM      9  C   UNL     1       2.867   3.956  18.611  0.00  0.00    +0.000 A 
ATOM     10  C   UNL     1       3.962   3.397  17.733  0.00  0.00    +0.000 C 
ATOM     11  C   UNL     1       4.616   4.432  16.829  0.00  0.00    +0.000 C 
ATOM     12  C   UNL     1       4.989   5.686  17.622  0.00  0.00    +0.000 C 
ENDROOT
BRANCH   1  13
ATOM     13  O   UNL     1       2.188   8.012  18.190  0.00  0.00    +0.000 OA
BRANCH  13  14
ATOM     14  C   UNL     1       2.131   9.433  18.020  0.00  0.00    +0.000 C 
BRANCH  14  20
ATOM     15 CL   UNL     1      -1.248  13.174  19.443  0.00  0.00    +0.000 Cl
ATOM     16  C   UNL     1      -0.424  11.692  19.738  0.00  0.00    +0.000 A 
ATOM     17  C   UNL     1      -0.664  10.996  20.922  0.00  0.00    +0.000 A 
ATOM     18  C   UNL     1       0.003   9.797  21.163  0.00  0.00    +0.000 A 
ATOM     19  C   UNL     1       0.903   9.297  20.221  0.00  0.00    +0.000 A 
ATOM     20  C   UNL     1       1.153   9.991  19.026  0.00  0.00    +0.000 A 
ATOM     21  C   UNL     1       0.477  11.199  18.792  0.00  0.00    +0.000 A 
ENDBRANCH  14  20
ENDBRANCH  13  14
ENDBRANCH   1  13
BRANCH  12  22
ATOM     22  C   UNL     1       5.813   6.616  16.719  0.00  0.00    +0.000 C 
BRANCH  22  23
ATOM     23  N   UNL     1       6.899   7.296  17.389  0.00  0.00    +0.000 N 
ATOM     24  C   UNL     1       7.744   6.786  18.325  0.00  0.00    +0.000 A 
ATOM     25  N   UNL     1       8.590   7.715  18.705  0.00  0.00    +0.000 NA
ATOM     26  C   UNL     1       8.205   8.796  17.965  0.00  0.00    +0.000 A 
ATOM     27  N   UNL     1       7.156   8.597  17.161  0.00  0.00    +0.000 NA
ENDBRANCH  22  23
ENDBRANCH  12  22
TORSDOF 5
ENDMDL
MODEL 8
REMARK VINA RESULT:      -7.1      4.113      6.948
REMARK  Name = 
REMARK  5 active torsions:
REMARK  status: ('A' for Active; 'I' for Inactive)
REMARK    1  A    between atoms: C_6  and  C_7
REMARK    2  A    between atoms: C_7  and  O_8
REMARK    3  A    between atoms: O_8  and  N_9
REMARK    4  A    between atoms: C_20  and  C_21
REMARK    5  A    between atoms: C_21  and  N_22
REMARK                            x       y       z     vdW  Elec       q    Type
REMARK                         _______ _______ _______ _____ _____    ______ ____
ROOT
ATOM      1  N   UNL     1       1.238  10.653  19.053  0.00  0.00    +0.000 NA
ATOM      2  C   UNL     1       0.177  11.410  19.027  0.00  0.00    +0.000 C 
ATOM      3  C   UNL     1      -1.187  11.066  18.491  0.00  0.00    +0.000 A 
ATOM      4  C   UNL     1      -1.346  10.108  17.478  0.00  0.00    +0.000 A 
ATOM      5  C   UNL     1      -2.612   9.738  17.027  0.00  0.00    +0.000 A 
ATOM      6  C   UNL     1      -3.735  10.361  17.548  0.00  0.00    +0.000 A 
ATOM      7  C   UNL     1      -3.593  11.375  18.498  0.00  0.00    +0.000 A 
ATOM      8 BR   UNL     1      -5.195  12.237  19.062  0.00  0.00    +0.000 Br
ATOM      9  C   UNL     1      -2.323  11.744  18.989  0.00  0.00    +0.000 A 
ATOM     10  C   UNL     1      -2.180  12.895  19.958  0.00  0.00    +0.000 C 
ATOM     11  C   UNL     1      -0.825  12.957  20.647  0.00  0.00    +0.000 C 
ATOM     12  C   UNL     1       0.308  12.815  19.629  0.00  0.00    +0.000 C 
ENDROOT
BRANCH   1  13
ATOM     13  O   UNL     1       1.022   9.342  18.627  0.00  0.00    +0.000 OA
BRANCH  13  14
ATOM     14  C   UNL     1       2.035   8.973  17.685  0.00  0.00    +0.000 C 
BRANCH  14  20
ATOM     15 CL   UNL     1       2.167   4.946  21.032  0.00  0.00    +0.000 Cl
ATOM     16  C   UNL     1       2.801   5.812  19.687  0.00  0.00    +0.000 A 
ATOM     17  C   UNL     1       3.934   5.332  19.032  0.00  0.00    +0.000 A 
ATOM     18  C   UNL     1       4.449   6.033  17.944  0.00  0.00    +0.000 A 
ATOM     19  C   UNL     1       3.830   7.207  17.513  0.00  0.00    +0.000 A 
ATOM     20  C   UNL     1       2.689   7.700  18.167  0.00  0.00    +0.000 A 
ATOM     21  C   UNL     1       2.178   6.988  19.263  0.00  0.00    +0.000 A 
ENDBRANCH  14  20
ENDBRANCH  13  14
ENDBRANCH   1  13
BRANCH  12  22
ATOM     22  C   UNL     1       1.646  13.075  20.338  0.00  0.00    +0.000 C 
BRANCH  22  23
ATOM     23  N   UNL     1       2.551  13.940  19.613  0.00  0.00    +0.000 N 
ATOM     24  C   UNL     1       3.104  13.721  18.389  0.00  0.00    +0.000 A 
ATOM     25  N   UNL     1       3.882  14.729  18.073  0.00  0.00    +0.000 NA
ATOM     26  C   UNL     1       3.776  15.546  19.162  0.00  0.00    +0.000 A 
ATOM     27  N   UNL     1       2.991  15.095  20.145  0.00  0.00    +0.000 NA
ENDBRANCH  22  23
ENDBRANCH  12  22
TORSDOF 5
ENDMDL
MODEL 9
REMARK VINA RESULT:      -7.1      3.384      5.168
REMARK  Name = 
REMARK  5 active torsions:
REMARK  status: ('A' for Active; 'I' for Inactive)
REMARK    1  A    between atoms: C_6  and  C_7
REMARK    2  A    between atoms: C_7  and  O_8
REMARK    3  A    between atoms: O_8  and  N_9
REMARK    4  A    between atoms: C_20  and  C_21
REMARK    5  A    between atoms: C_21  and  N_22
REMARK                            x       y       z     vdW  Elec       q    Type
REMARK                         _______ _______ _______ _____ _____    ______ ____
ROOT
ATOM      1  N   UNL     1       1.598   6.532  20.825  0.00  0.00    +0.000 NA
ATOM      2  C   UNL     1       2.314   7.025  19.854  0.00  0.00    +0.000 C 
ATOM      3  C   UNL     1       3.474   6.378  19.145  0.00  0.00    +0.000 A 
ATOM      4  C   UNL     1       4.265   5.411  19.784  0.00  0.00    +0.000 A 
ATOM      5  C   UNL     1       5.296   4.761  19.107  0.00  0.00    +0.000 A 
ATOM      6  C   UNL     1       5.583   5.108  17.797  0.00  0.00    +0.000 A 
ATOM      7  C   UNL     1       4.861   6.126  17.170  0.00  0.00    +0.000 A 
ATOM      8 BR   UNL     1       5.413   6.596  15.409  0.00  0.00    +0.000 Br
ATOM      9  C   UNL     1       3.794   6.776  17.826  0.00  0.00    +0.000 A 
ATOM     10  C   UNL     1       3.074   7.927  17.163  0.00  0.00    +0.000 C 
ATOM     11  C   UNL     1       1.757   8.297  17.830  0.00  0.00    +0.000 C 
ATOM     12  C   UNL     1       1.933   8.421  19.345  0.00  0.00    +0.000 C 
ENDROOT
BRANCH   1  13
ATOM     13  O   UNL     1       1.895   5.207  21.147  0.00  0.00    +0.000 OA
BRANCH  13  14
ATOM     14  C   UNL     1       0.936   4.340  20.534  0.00  0.00    +0.000 C 
BRANCH  14  20
ATOM     15 CL   UNL     1       4.139   0.537  18.886  0.00  0.00    +0.000 Cl
ATOM     16  C   UNL     1       3.088   1.863  18.578  0.00  0.00    +0.000 A 
ATOM     17  C   UNL     1       2.857   2.267  17.264  0.00  0.00    +0.000 A 
ATOM     18  C   UNL     1       2.006   3.342  17.013  0.00  0.00    +0.000 A 
ATOM     19  C   UNL     1       1.388   4.006  18.074  0.00  0.00    +0.000 A 
ATOM     20  C   UNL     1       1.615   3.607  19.401  0.00  0.00    +0.000 A 
ATOM     21  C   UNL     1       2.474   2.525  19.644  0.00  0.00    +0.000 A 
ENDBRANCH  14  20
ENDBRANCH  13  14
ENDBRANCH   1  13
BRANCH  12  22
ATOM     22  C   UNL     1       0.636   8.981  19.950  0.00  0.00    +0.000 C 
BRANCH  22  23
ATOM     23  N   UNL     1       0.727  10.351  20.403  0.00  0.00    +0.000 N 
ATOM     24  C   UNL     1       0.293  10.863  21.586  0.00  0.00    +0.000 A 
ATOM     25  N   UNL     1       0.543  12.151  21.624  0.00  0.00    +0.000 NA
ATOM     26  C   UNL     1       1.131  12.381  20.413  0.00  0.00    +0.000 A 
ATOM     27  N   UNL     1       1.244  11.314  19.617  0.00  0.00    +0.000 NA
ENDBRANCH  22  23
ENDBRANCH  12  22
TORSDOF 5
ENDMDL
