MODEL 1
REMARK VINA RESULT:      -8.1      0.000      0.000
REMARK  Name = 
REMARK  3 active torsions:
REMARK  status: ('A' for Active; 'I' for Inactive)
REMARK    1  A    between atoms: N_2  and  C_4
REMARK    2  A    between atoms: C_9  and  C_10
REMARK    3  A    between atoms: N_11  and  N_12
REMARK                            x       y       z     vdW  Elec       q    Type
REMARK                         _______ _______ _______ _____ _____    ______ ____
ROOT
ATOM      1  N   UNL     1       1.829   7.649  21.283  0.00  0.00    +0.000 N 
ATOM      2  C   UNL     1       0.973   8.769  21.155  0.00  0.00    +0.000 A 
ATOM      3  C   UNL     1       0.801   9.405  19.932  0.00  0.00    +0.000 A 
ATOM      4  N   UNL     1       0.046  10.520  19.755  0.00  0.00    +0.000 NA
ATOM      5  C   UNL     1      -0.590  10.980  20.843  0.00  0.00    +0.000 A 
ATOM      6  C   UNL     1      -1.415  12.092  20.716  0.00  0.00    +0.000 A 
ATOM      7  C   UNL     1      -2.170  12.566  21.787  0.00  0.00    +0.000 A 
ATOM      8  C   UNL     1      -2.076  11.927  23.016  0.00  0.00    +0.000 A 
ATOM      9  C   UNL     1      -1.209  10.841  23.163  0.00  0.00    +0.000 A 
ATOM     10  C   UNL     1      -0.457  10.338  22.100  0.00  0.00    +0.000 A 
ATOM     11  N   UNL     1       0.351   9.253  22.259  0.00  0.00    +0.000 NA
ATOM     12  H   UNL     1       1.774   7.307  22.243  0.00  0.00    +0.000 HD
ENDROOT
BRANCH   1  14
ATOM     13  C   UNL     1       2.195   5.533  20.620  0.00  0.00    +0.000 C 
ATOM     14  N   UNL     1       1.893   6.744  20.249  0.00  0.00    +0.000 NA
BRANCH  13  20
ATOM     15  C   UNL     1       2.210   3.048  20.049  0.00  0.00    +0.000 A 
ATOM     16  C   UNL     1       2.217   2.000  19.110  0.00  0.00    +0.000 A 
ATOM     17  C   UNL     1       2.278   2.299  17.753  0.00  0.00    +0.000 A 
ATOM     18  C   UNL     1       2.351   3.631  17.344  0.00  0.00    +0.000 A 
ATOM     19  C   UNL     1       2.347   4.669  18.286  0.00  0.00    +0.000 A 
ATOM     20  C   UNL     1       2.261   4.395  19.660  0.00  0.00    +0.000 A 
BRANCH  15  22
ATOM     21  O   UNL     1       3.271   2.307  21.939  0.00  0.00    +0.000 OA
ATOM     22  N   UNL     1       2.197   2.664  21.444  0.00  0.00    +0.000 N 
ATOM     23  O   UNL     1       1.106   2.678  22.026  0.00  0.00    +0.000 OA
ENDBRANCH  15  22
ENDBRANCH  13  20
ENDBRANCH   1  14
TORSDOF 3
ENDMDL
MODEL 2
REMARK VINA RESULT:      -7.8      1.848      2.147
REMARK  Name = 
REMARK  3 active torsions:
REMARK  status: ('A' for Active; 'I' for Inactive)
REMARK    1  A    between atoms: N_2  and  C_4
REMARK    2  A    between atoms: C_9  and  C_10
REMARK    3  A    between atoms: N_11  and  N_12
REMARK                            x       y       z     vdW  Elec       q    Type
REMARK                         _______ _______ _______ _____ _____    ______ ____
ROOT
ATOM      1  N   UNL     1       1.880   7.735  21.207  0.00  0.00    +0.000 N 
ATOM      2  C   UNL     1       0.998   8.838  21.108  0.00  0.00    +0.000 A 
ATOM      3  C   UNL     1       0.806   9.498  19.901  0.00  0.00    +0.000 A 
ATOM      4  N   UNL     1       0.025  10.599  19.753  0.00  0.00    +0.000 NA
ATOM      5  C   UNL     1      -0.617  11.019  20.853  0.00  0.00    +0.000 A 
ATOM      6  C   UNL     1      -1.467  12.115  20.755  0.00  0.00    +0.000 A 
ATOM      7  C   UNL     1      -2.229  12.546  21.840  0.00  0.00    +0.000 A 
ATOM      8  C   UNL     1      -2.115  11.882  23.053  0.00  0.00    +0.000 A 
ATOM      9  C   UNL     1      -1.222  10.813  23.172  0.00  0.00    +0.000 A 
ATOM     10  C   UNL     1      -0.463  10.351  22.095  0.00  0.00    +0.000 A 
ATOM     11  N   UNL     1       0.369   9.282  22.226  0.00  0.00    +0.000 NA
ATOM     12  H   UNL     1       1.836   7.370  22.159  0.00  0.00    +0.000 HD
ENDROOT
BRANCH   1  14
ATOM     13  C   UNL     1       2.196   5.625  20.503  0.00  0.00    +0.000 C 
ATOM     14  N   UNL     1       1.959   6.855  20.152  0.00  0.00    +0.000 NA
BRANCH  13  20
ATOM     15  C   UNL     1       3.359   4.294  18.665  0.00  0.00    +0.000 A 
ATOM     16  C   UNL     1       3.414   3.196  17.785  0.00  0.00    +0.000 A 
ATOM     17  C   UNL     1       2.355   2.294  17.753  0.00  0.00    +0.000 A 
ATOM     18  C   UNL     1       1.248   2.501  18.575  0.00  0.00    +0.000 A 
ATOM     19  C   UNL     1       1.200   3.598  19.446  0.00  0.00    +0.000 A 
ATOM     20  C   UNL     1       2.266   4.510  19.516  0.00  0.00    +0.000 A 
BRANCH  15  22
ATOM     21  O   UNL     1       4.396   6.138  17.787  0.00  0.00    +0.000 OA
ATOM     22  N   UNL     1       4.470   5.220  18.611  0.00  0.00    +0.000 N 
ATOM     23  O   UNL     1       5.429   4.999  19.359  0.00  0.00    +0.000 OA
ENDBRANCH  15  22
ENDBRANCH  13  20
ENDBRANCH   1  14
TORSDOF 3
ENDMDL
MODEL 3
REMARK VINA RESULT:      -7.4      8.043     10.865
REMARK  Name = 
REMARK  3 active torsions:
REMARK  status: ('A' for Active; 'I' for Inactive)
REMARK    1  A    between atoms: N_2  and  C_4
REMARK    2  A    between atoms: C_9  and  C_10
REMARK    3  A    between atoms: N_11  and  N_12
REMARK                            x       y       z     vdW  Elec       q    Type
REMARK                         _______ _______ _______ _____ _____    ______ ____
ROOT
ATOM      1  N   UNL     1       8.240   8.453  17.538  0.00  0.00    +0.000 N 
ATOM      2  C   UNL     1       7.477   7.299  17.837  0.00  0.00    +0.000 A 
ATOM      3  C   UNL     1       7.825   6.460  18.888  0.00  0.00    +0.000 A 
ATOM      4  N   UNL     1       7.173   5.307  19.187  0.00  0.00    +0.000 NA
ATOM      5  C   UNL     1       6.107   5.018  18.426  0.00  0.00    +0.000 A 
ATOM      6  C   UNL     1       5.371   3.873  18.712  0.00  0.00    +0.000 A 
ATOM      7  C   UNL     1       4.204   3.563  18.016  0.00  0.00    +0.000 A 
ATOM      8  C   UNL     1       3.782   4.404  16.995  0.00  0.00    +0.000 A 
ATOM      9  C   UNL     1       4.547   5.528  16.668  0.00  0.00    +0.000 A 
ATOM     10  C   UNL     1       5.709   5.868  17.363  0.00  0.00    +0.000 A 
ATOM     11  N   UNL     1       6.414   6.990  17.052  0.00  0.00    +0.000 NA
ATOM     12  H   UNL     1       7.788   8.951  16.770  0.00  0.00    +0.000 HD
ENDROOT
BRANCH   1  14
ATOM     13  C   UNL     1       8.943  10.438  18.322  0.00  0.00    +0.000 C 
ATOM     14  N   UNL     1       8.788   9.171  18.576  0.00  0.00    +0.000 NA
BRANCH  13  20
ATOM     15  C   UNL     1      10.304  12.480  19.015  0.00  0.00    +0.000 A 
ATOM     16  C   UNL     1      10.735  13.401  19.989  0.00  0.00    +0.000 A 
ATOM     17  C   UNL     1      10.325  13.241  21.309  0.00  0.00    +0.000 A 
ATOM     18  C   UNL     1       9.512  12.160  21.652  0.00  0.00    +0.000 A 
ATOM     19  C   UNL     1       9.090  11.246  20.676  0.00  0.00    +0.000 A 
ATOM     20  C   UNL     1       9.469  11.399  19.333  0.00  0.00    +0.000 A 
BRANCH  15  22
ATOM     21  O   UNL     1      11.842  12.074  17.367  0.00  0.00    +0.000 OA
ATOM     22  N   UNL     1      10.808  12.677  17.673  0.00  0.00    +0.000 N 
ATOM     23  O   UNL     1      10.194  13.468  16.948  0.00  0.00    +0.000 OA
ENDBRANCH  15  22
ENDBRANCH  13  20
ENDBRANCH   1  14
TORSDOF 3
ENDMDL
MODEL 4
REMARK VINA RESULT:      -7.4      5.031      8.882
REMARK  Name = 
REMARK  3 active torsions:
REMARK  status: ('A' for Active; 'I' for Inactive)
REMARK    1  A    between atoms: N_2  and  C_4
REMARK    2  A    between atoms: C_9  and  C_10
REMARK    3  A    between atoms: N_11  and  N_12
REMARK                            x       y       z     vdW  Elec       q    Type
REMARK                         _______ _______ _______ _____ _____    ______ ____
ROOT
ATOM      1  N   UNL     1       6.927   4.472  18.121  0.00  0.00    +0.000 N 
ATOM      2  C   UNL     1       6.748   4.300  16.728  0.00  0.00    +0.000 A 
ATOM      3  C   UNL     1       5.838   3.378  16.228  0.00  0.00    +0.000 A 
ATOM      4  N   UNL     1       5.665   3.121  14.906  0.00  0.00    +0.000 NA
ATOM      5  C   UNL     1       6.406   3.853  14.061  0.00  0.00    +0.000 A 
ATOM      6  C   UNL     1       6.240   3.668  12.693  0.00  0.00    +0.000 A 
ATOM      7  C   UNL     1       6.915   4.458  11.764  0.00  0.00    +0.000 A 
ATOM      8  C   UNL     1       7.793   5.434  12.215  0.00  0.00    +0.000 A 
ATOM      9  C   UNL     1       8.003   5.589  13.589  0.00  0.00    +0.000 A 
ATOM     10  C   UNL     1       7.325   4.822  14.538  0.00  0.00    +0.000 A 
ATOM     11  N   UNL     1       7.516   5.020  15.872  0.00  0.00    +0.000 NA
ATOM     12  H   UNL     1       7.599   5.225  18.272  0.00  0.00    +0.000 HD
ENDROOT
BRANCH   1  14
ATOM     13  C   UNL     1       4.707   4.708  18.380  0.00  0.00    +0.000 C 
ATOM     14  N   UNL     1       5.830   4.373  18.946  0.00  0.00    +0.000 NA
BRANCH  13  20
ATOM     15  C   UNL     1       2.556   3.498  19.022  0.00  0.00    +0.000 A 
ATOM     16  C   UNL     1       1.352   3.427  19.747  0.00  0.00    +0.000 A 
ATOM     17  C   UNL     1       0.976   4.498  20.552  0.00  0.00    +0.000 A 
ATOM     18  C   UNL     1       1.786   5.632  20.613  0.00  0.00    +0.000 A 
ATOM     19  C   UNL     1       2.982   5.695  19.885  0.00  0.00    +0.000 A 
ATOM     20  C   UNL     1       3.397   4.619  19.084  0.00  0.00    +0.000 A 
BRANCH  15  22
ATOM     21  O   UNL     1       3.623   1.512  18.619  0.00  0.00    +0.000 OA
ATOM     22  N   UNL     1       2.861   2.372  18.166  0.00  0.00    +0.000 N 
ATOM     23  O   UNL     1       2.373   2.375  17.030  0.00  0.00    +0.000 OA
ENDBRANCH  15  22
ENDBRANCH  13  20
ENDBRANCH   1  14
TORSDOF 3
ENDMDL
MODEL 5
REMARK VINA RESULT:      -7.4      3.235      7.959
REMARK  Name = 
REMARK  3 active torsions:
REMARK  status: ('A' for Active; 'I' for Inactive)
REMARK    1  A    between atoms: N_2  and  C_4
REMARK    2  A    between atoms: C_9  and  C_10
REMARK    3  A    between atoms: N_11  and  N_12
REMARK                            x       y       z     vdW  Elec       q    Type
REMARK                         _______ _______ _______ _____ _____    ______ ____
ROOT
ATOM      1  N   UNL     1       2.539   6.035  20.614  0.00  0.00    +0.000 N 
ATOM      2  C   UNL     1       3.354   5.679  19.513  0.00  0.00    +0.000 A 
ATOM      3  C   UNL     1       2.814   5.508  18.245  0.00  0.00    +0.000 A 
ATOM      4  N   UNL     1       3.530   5.107  17.163  0.00  0.00    +0.000 NA
ATOM      5  C   UNL     1       4.842   4.915  17.361  0.00  0.00    +0.000 A 
ATOM      6  C   UNL     1       5.636   4.547  16.280  0.00  0.00    +0.000 A 
ATOM      7  C   UNL     1       7.018   4.419  16.401  0.00  0.00    +0.000 A 
ATOM      8  C   UNL     1       7.612   4.637  17.637  0.00  0.00    +0.000 A 
ATOM      9  C   UNL     1       6.814   4.956  18.739  0.00  0.00    +0.000 A 
ATOM     10  C   UNL     1       5.430   5.108  18.638  0.00  0.00    +0.000 A 
ATOM     11  N   UNL     1       4.678   5.458  19.717  0.00  0.00    +0.000 NA
ATOM     12  H   UNL     1       3.136   6.158  21.433  0.00  0.00    +0.000 HD
ENDROOT
BRANCH   1  14
ATOM     13  C   UNL     1       1.839   8.157  20.377  0.00  0.00    +0.000 C 
ATOM     14  N   UNL     1       1.492   6.903  20.409  0.00  0.00    +0.000 NA
BRANCH  13  20
ATOM     15  C   UNL     1       0.031   9.806  21.095  0.00  0.00    +0.000 A 
ATOM     16  C   UNL     1      -0.838  10.879  20.820  0.00  0.00    +0.000 A 
ATOM     17  C   UNL     1      -0.879  11.411  19.536  0.00  0.00    +0.000 A 
ATOM     18  C   UNL     1      -0.076  10.862  18.536  0.00  0.00    +0.000 A 
ATOM     19  C   UNL     1       0.784   9.792  18.818  0.00  0.00    +0.000 A 
ATOM     20  C   UNL     1       0.863   9.252  20.112  0.00  0.00    +0.000 A 
BRANCH  15  22
ATOM     21  O   UNL     1       0.756   9.765  23.268  0.00  0.00    +0.000 OA
ATOM     22  N   UNL     1      -0.013   9.268  22.438  0.00  0.00    +0.000 N 
ATOM     23  O   UNL     1      -0.783   8.323  22.645  0.00  0.00    +0.000 OA
ENDBRANCH  15  22
ENDBRANCH  13  20
ENDBRANCH   1  14
TORSDOF 3
ENDMDL
MODEL 6
REMARK VINA RESULT:      -7.3      5.689      8.855
REMARK  Name = 
REMARK  3 active torsions:
REMARK  status: ('A' for Active; 'I' for Inactive)
REMARK    1  A    between atoms: N_2  and  C_4
REMARK    2  A    between atoms: C_9  and  C_10
REMARK    3  A    between atoms: N_11  and  N_12
REMARK                            x       y       z     vdW  Elec       q    Type
REMARK                         _______ _______ _______ _____ _____    ______ ____
ROOT
ATOM      1  N   UNL     1       6.457   4.886  18.160  0.00  0.00    +0.000 N 
ATOM      2  C   UNL     1       6.396   4.598  16.776  0.00  0.00    +0.000 A 
ATOM      3  C   UNL     1       5.505   3.658  16.275  0.00  0.00    +0.000 A 
ATOM      4  N   UNL     1       5.441   3.292  14.969  0.00  0.00    +0.000 NA
ATOM      5  C   UNL     1       6.276   3.929  14.136  0.00  0.00    +0.000 A 
ATOM      6  C   UNL     1       6.227   3.630  12.779  0.00  0.00    +0.000 A 
ATOM      7  C   UNL     1       7.006   4.319  11.852  0.00  0.00    +0.000 A 
ATOM      8  C   UNL     1       7.871   5.309  12.297  0.00  0.00    +0.000 A 
ATOM      9  C   UNL     1       7.964   5.578  13.666  0.00  0.00    +0.000 A 
ATOM     10  C   UNL     1       7.180   4.914  14.611  0.00  0.00    +0.000 A 
ATOM     11  N   UNL     1       7.259   5.222  15.935  0.00  0.00    +0.000 NA
ATOM     12  H   UNL     1       7.136   5.633  18.307  0.00  0.00    +0.000 HD
ENDROOT
BRANCH   1  14
ATOM     13  C   UNL     1       4.686   3.733  18.926  0.00  0.00    +0.000 C 
ATOM     14  N   UNL     1       5.288   4.886  18.887  0.00  0.00    +0.000 NA
BRANCH  13  20
ATOM     15  C   UNL     1       2.157   3.833  19.231  0.00  0.00    +0.000 A 
ATOM     16  C   UNL     1       0.993   3.553  19.972  0.00  0.00    +0.000 A 
ATOM     17  C   UNL     1       1.106   2.937  21.215  0.00  0.00    +0.000 A 
ATOM     18  C   UNL     1       2.370   2.625  21.716  0.00  0.00    +0.000 A 
ATOM     19  C   UNL     1       3.524   2.909  20.972  0.00  0.00    +0.000 A 
ATOM     20  C   UNL     1       3.436   3.508  19.706  0.00  0.00    +0.000 A 
BRANCH  15  22
ATOM     21  O   UNL     1       2.131   5.745  17.971  0.00  0.00    +0.000 OA
ATOM     22  N   UNL     1       1.969   4.520  17.972  0.00  0.00    +0.000 N 
ATOM     23  O   UNL     1       1.618   3.840  17.001  0.00  0.00    +0.000 OA
ENDBRANCH  15  22
ENDBRANCH  13  20
ENDBRANCH   1  14
TORSDOF 3
ENDMDL
MODEL 7
REMARK VINA RESULT:      -7.3      4.833      8.893
REMARK  Name = 
REMARK  3 active torsions:
REMARK  status: ('A' for Active; 'I' for Inactive)
REMARK    1  A    between atoms: N_2  and  C_4
REMARK    2  A    between atoms: C_9  and  C_10
REMARK    3  A    between atoms: N_11  and  N_12
REMARK                            x       y       z     vdW  Elec       q    Type
REMARK                         _______ _______ _______ _____ _____    ______ ____
ROOT
ATOM      1  N   UNL     1       7.176   5.497  17.879  0.00  0.00    +0.000 N 
ATOM      2  C   UNL     1       6.917   4.987  16.584  0.00  0.00    +0.000 A 
ATOM      3  C   UNL     1       6.043   3.925  16.392  0.00  0.00    +0.000 A 
ATOM      4  N   UNL     1       5.801   3.350  15.186  0.00  0.00    +0.000 NA
ATOM      5  C   UNL     1       6.429   3.897  14.135  0.00  0.00    +0.000 A 
ATOM      6  C   UNL     1       6.186   3.380  12.866  0.00  0.00    +0.000 A 
ATOM      7  C   UNL     1       6.739   3.959  11.725  0.00  0.00    +0.000 A 
ATOM      8  C   UNL     1       7.573   5.060  11.862  0.00  0.00    +0.000 A 
ATOM      9  C   UNL     1       7.863   5.551  13.138  0.00  0.00    +0.000 A 
ATOM     10  C   UNL     1       7.306   5.000  14.293  0.00  0.00    +0.000 A 
ATOM     11  N   UNL     1       7.572   5.521  15.523  0.00  0.00    +0.000 NA
ATOM     12  H   UNL     1       7.801   6.300  17.792  0.00  0.00    +0.000 HD
ENDROOT
BRANCH   1  14
ATOM     13  C   UNL     1       5.022   5.059  18.346  0.00  0.00    +0.000 C 
ATOM     14  N   UNL     1       6.147   5.540  18.791  0.00  0.00    +0.000 NA
BRANCH  13  20
ATOM     15  C   UNL     1       3.354   3.773  19.783  0.00  0.00    +0.000 A 
ATOM     16  C   UNL     1       2.227   3.732  20.626  0.00  0.00    +0.000 A 
ATOM     17  C   UNL     1       1.529   4.907  20.888  0.00  0.00    +0.000 A 
ATOM     18  C   UNL     1       1.942   6.101  20.297  0.00  0.00    +0.000 A 
ATOM     19  C   UNL     1       3.064   6.131  19.456  0.00  0.00    +0.000 A 
ATOM     20  C   UNL     1       3.800   4.965  19.195  0.00  0.00    +0.000 A 
BRANCH  15  22
ATOM     21  O   UNL     1       3.559   1.839  18.573  0.00  0.00    +0.000 OA
ATOM     22  N   UNL     1       4.002   2.507  19.513  0.00  0.00    +0.000 N 
ATOM     23  O   UNL     1       4.921   2.168  20.268  0.00  0.00    +0.000 OA
ENDBRANCH  15  22
ENDBRANCH  13  20
ENDBRANCH   1  14
TORSDOF 3
ENDMDL
MODEL 8
REMARK VINA RESULT:      -7.2      2.075      2.469
REMARK  Name = 
REMARK  3 active torsions:
REMARK  status: ('A' for Active; 'I' for Inactive)
REMARK    1  A    between atoms: N_2  and  C_4
REMARK    2  A    between atoms: C_9  and  C_10
REMARK    3  A    between atoms: N_11  and  N_12
REMARK                            x       y       z     vdW  Elec       q    Type
REMARK                         _______ _______ _______ _____ _____    ______ ____
ROOT
ATOM      1  N   UNL     1       1.850   7.647  21.202  0.00  0.00    +0.000 N 
ATOM      2  C   UNL     1       0.979   8.754  21.066  0.00  0.00    +0.000 A 
ATOM      3  C   UNL     1       0.684   9.287  19.818  0.00  0.00    +0.000 A 
ATOM      4  N   UNL     1      -0.092  10.385  19.625  0.00  0.00    +0.000 NA
ATOM      5  C   UNL     1      -0.622  10.934  20.728  0.00  0.00    +0.000 A 
ATOM      6  C   UNL     1      -1.462  12.034  20.591  0.00  0.00    +0.000 A 
ATOM      7  C   UNL     1      -2.112  12.596  21.688  0.00  0.00    +0.000 A 
ATOM      8  C   UNL     1      -1.894  12.060  22.950  0.00  0.00    +0.000 A 
ATOM      9  C   UNL     1      -1.010  10.988  23.101  0.00  0.00    +0.000 A 
ATOM     10  C   UNL     1      -0.362  10.398  22.015  0.00  0.00    +0.000 A 
ATOM     11  N   UNL     1       0.464   9.328  22.183  0.00  0.00    +0.000 NA
ATOM     12  H   UNL     1       1.891   7.385  22.188  0.00  0.00    +0.000 HD
ENDROOT
BRANCH   1  14
ATOM     13  C   UNL     1       2.988   6.329  19.781  0.00  0.00    +0.000 C 
ATOM     14  N   UNL     1       1.818   6.659  20.245  0.00  0.00    +0.000 NA
BRANCH  13  20
ATOM     15  C   UNL     1       4.430   4.831  18.305  0.00  0.00    +0.000 A 
ATOM     16  C   UNL     1       4.572   3.762  17.400  0.00  0.00    +0.000 A 
ATOM     17  C   UNL     1       3.439   3.088  16.956  0.00  0.00    +0.000 A 
ATOM     18  C   UNL     1       2.179   3.494  17.397  0.00  0.00    +0.000 A 
ATOM     19  C   UNL     1       2.047   4.562  18.296  0.00  0.00    +0.000 A 
ATOM     20  C   UNL     1       3.176   5.243  18.778  0.00  0.00    +0.000 A 
BRANCH  15  22
ATOM     21  O   UNL     1       6.203   5.143  19.721  0.00  0.00    +0.000 OA
ATOM     22  N   UNL     1       5.645   5.520  18.685  0.00  0.00    +0.000 N 
ATOM     23  O   UNL     1       6.009   6.462  17.972  0.00  0.00    +0.000 OA
ENDBRANCH  15  22
ENDBRANCH  13  20
ENDBRANCH   1  14
TORSDOF 3
ENDMDL
MODEL 9
REMARK VINA RESULT:      -7.2      3.463      8.181
REMARK  Name = 
REMARK  3 active torsions:
REMARK  status: ('A' for Active; 'I' for Inactive)
REMARK    1  A    between atoms: N_2  and  C_4
REMARK    2  A    between atoms: C_9  and  C_10
REMARK    3  A    between atoms: N_11  and  N_12
REMARK                            x       y       z     vdW  Elec       q    Type
REMARK                         _______ _______ _______ _____ _____    ______ ____
ROOT
ATOM      1  N   UNL     1       2.131   6.712  20.572  0.00  0.00    +0.000 N 
ATOM      2  C   UNL     1       2.956   6.579  19.430  0.00  0.00    +0.000 A 
ATOM      3  C   UNL     1       2.804   7.416  18.332  0.00  0.00    +0.000 A 
ATOM      4  N   UNL     1       3.519   7.300  17.183  0.00  0.00    +0.000 NA
ATOM      5  C   UNL     1       4.448   6.334  17.162  0.00  0.00    +0.000 A 
ATOM      6  C   UNL     1       5.244   6.194  16.030  0.00  0.00    +0.000 A 
ATOM      7  C   UNL     1       6.284   5.268  15.980  0.00  0.00    +0.000 A 
ATOM      8  C   UNL     1       6.514   4.448  17.076  0.00  0.00    +0.000 A 
ATOM      9  C   UNL     1       5.684   4.547  18.196  0.00  0.00    +0.000 A 
ATOM     10  C   UNL     1       4.648   5.480  18.277  0.00  0.00    +0.000 A 
ATOM     11  N   UNL     1       3.879   5.585  19.396  0.00  0.00    +0.000 NA
ATOM     12  H   UNL     1       2.440   6.040  21.275  0.00  0.00    +0.000 HD
ENDROOT
BRANCH   1  14
ATOM     13  C   UNL     1       0.462   8.157  20.992  0.00  0.00    +0.000 C 
ATOM     14  N   UNL     1       1.750   7.973  20.969  0.00  0.00    +0.000 NA
BRANCH  13  20
ATOM     15  C   UNL     1      -0.422  10.515  20.591  0.00  0.00    +0.000 A 
ATOM     16  C   UNL     1      -1.061  11.685  21.044  0.00  0.00    +0.000 A 
ATOM     17  C   UNL     1      -1.443  11.781  22.378  0.00  0.00    +0.000 A 
ATOM     18  C   UNL     1      -1.170  10.728  23.251  0.00  0.00    +0.000 A 
ATOM     19  C   UNL     1      -0.531   9.567  22.792  0.00  0.00    +0.000 A 
ATOM     20  C   UNL     1      -0.157   9.435  21.445  0.00  0.00    +0.000 A 
BRANCH  15  22
ATOM     21  O   UNL     1       1.151  10.858  18.963  0.00  0.00    +0.000 OA
ATOM     22  N   UNL     1      -0.007  10.502  19.205  0.00  0.00    +0.000 N 
ATOM     23  O   UNL     1      -0.852  10.180  18.363  0.00  0.00    +0.000 OA
ENDBRANCH  15  22
ENDBRANCH  13  20
ENDBRANCH   1  14
TORSDOF 3
ENDMDL
