MODEL 1
REMARK VINA RESULT:      -6.8      0.000      0.000
REMARK  Name = 
REMARK  4 active torsions:
REMARK  status: ('A' for Active; 'I' for Inactive)
REMARK    1  A    between atoms: C_1  and  S_2
REMARK    2  A    between atoms: S_2  and  C_5
REMARK    3  A    between atoms: C_8  and  C_9
REMARK    4  A    between atoms: C_12  and  C_13
REMARK                            x       y       z     vdW  Elec       q    Type
REMARK                         _______ _______ _______ _____ _____    ______ ____
ROOT
ATOM      1  C   UNL     1       1.207   8.606  20.710  0.00  0.00    +0.000 A 
ATOM      2  C   UNL     1       1.286   8.919  22.082  0.00  0.00    +0.000 A 
ATOM      3  N   UNL     1       0.664  10.033  22.558  0.00  0.00    +0.000 NA
ATOM      4  C   UNL     1      -0.061  10.843  21.747  0.00  0.00    +0.000 A 
ATOM      5  C   UNL     1      -0.149  10.534  20.383  0.00  0.00    +0.000 A 
ATOM      6  N   UNL     1       0.497   9.438  19.902  0.00  0.00    +0.000 NA
ENDROOT
BRANCH   1  10
ATOM      7  C   UNL     1       3.105   5.102  19.071  0.00  0.00    +0.000 A 
ATOM      8  C   UNL     1       3.188   6.326  18.401  0.00  0.00    +0.000 A 
ATOM      9  C   UNL     1       2.556   7.460  18.915  0.00  0.00    +0.000 A 
ATOM     10  C   UNL     1       1.844   7.397  20.126  0.00  0.00    +0.000 A 
ATOM     11  C   UNL     1       1.776   6.160  20.805  0.00  0.00    +0.000 A 
ATOM     12  C   UNL     1       2.390   5.021  20.271  0.00  0.00    +0.000 A 
BRANCH   7  14
ATOM     13  C   UNL     1       3.080   2.105  17.977  0.00  0.00    +0.000 C 
ATOM     14  S   UNL     1       3.927   3.643  18.421  0.00  0.00    +0.000 S 
ATOM     15  O   UNL     1       5.053   3.264  19.396  0.00  0.00    +0.000 OA
ATOM     16  O   UNL     1       4.788   4.080  17.225  0.00  0.00    +0.000 OA
ENDBRANCH   7  14
ENDBRANCH   1  10
BRANCH   4  17
ATOM     17  C   UNL     1      -0.752  12.063  22.292  0.00  0.00    +0.000 C 
ATOM     18  C   UNL     1      -2.001  11.756  23.104  0.00  0.00    +0.000 C 
ATOM     19  C   UNL     1      -2.533  13.163  23.249  0.00  0.00    +0.000 C 
ATOM     20  C   UNL     1      -2.359  13.694  21.827  0.00  0.00    +0.000 C 
ATOM     21  N   UNL     1      -1.212  12.974  21.241  0.00  0.00    +0.000 NA
ATOM     22  H   UNL     1      -0.451  13.623  20.941  0.00  0.00    +0.000 HD
ENDBRANCH   4  17
TORSDOF 3
ENDMDL
MODEL 2
REMARK VINA RESULT:      -6.7      5.286      9.493
REMARK  Name = 
REMARK  4 active torsions:
REMARK  status: ('A' for Active; 'I' for Inactive)
REMARK    1  A    between atoms: C_1  and  S_2
REMARK    2  A    between atoms: S_2  and  C_5
REMARK    3  A    between atoms: C_8  and  C_9
REMARK    4  A    between atoms: C_12  and  C_13
REMARK                            x       y       z     vdW  Elec       q    Type
REMARK                         _______ _______ _______ _____ _____    ______ ____
ROOT
ATOM      1  C   UNL     1       3.963   6.284  17.246  0.00  0.00    +0.000 A 
ATOM      2  C   UNL     1       4.811   6.999  16.377  0.00  0.00    +0.000 A 
ATOM      3  N   UNL     1       5.579   6.324  15.477  0.00  0.00    +0.000 NA
ATOM      4  C   UNL     1       5.529   4.973  15.371  0.00  0.00    +0.000 A 
ATOM      5  C   UNL     1       4.683   4.256  16.228  0.00  0.00    +0.000 A 
ATOM      6  N   UNL     1       3.939   4.928  17.148  0.00  0.00    +0.000 NA
ENDROOT
BRANCH   1  10
ATOM      7  C   UNL     1       1.467   8.282  20.134  0.00  0.00    +0.000 A 
ATOM      8  C   UNL     1       2.030   7.036  20.432  0.00  0.00    +0.000 A 
ATOM      9  C   UNL     1       2.820   6.374  19.491  0.00  0.00    +0.000 A 
ATOM     10  C   UNL     1       3.084   6.956  18.238  0.00  0.00    +0.000 A 
ATOM     11  C   UNL     1       2.524   8.220  17.951  0.00  0.00    +0.000 A 
ATOM     12  C   UNL     1       1.711   8.868  18.888  0.00  0.00    +0.000 A 
BRANCH   7  14
ATOM     13  C   UNL     1      -0.357  10.734  21.050  0.00  0.00    +0.000 C 
ATOM     14  S   UNL     1       0.459   9.145  21.346  0.00  0.00    +0.000 S 
ATOM     15  O   UNL     1       1.297   9.308  22.624  0.00  0.00    +0.000 OA
ATOM     16  O   UNL     1      -0.590   8.156  21.877  0.00  0.00    +0.000 OA
ENDBRANCH   7  14
ENDBRANCH   1  10
BRANCH   4  17
ATOM     17  C   UNL     1       6.375   4.245  14.362  0.00  0.00    +0.000 C 
ATOM     18  C   UNL     1       7.137   5.161  13.417  0.00  0.00    +0.000 C 
ATOM     19  C   UNL     1       7.633   4.121  12.439  0.00  0.00    +0.000 C 
ATOM     20  C   UNL     1       6.373   3.282  12.234  0.00  0.00    +0.000 C 
ATOM     21  N   UNL     1       5.590   3.378  13.480  0.00  0.00    +0.000 NA
ATOM     22  H   UNL     1       5.425   2.443  13.915  0.00  0.00    +0.000 HD
ENDBRANCH   4  17
TORSDOF 3
ENDMDL
MODEL 3
REMARK VINA RESULT:      -6.6      0.972      1.579
REMARK  Name = 
REMARK  4 active torsions:
REMARK  status: ('A' for Active; 'I' for Inactive)
REMARK    1  A    between atoms: C_1  and  S_2
REMARK    2  A    between atoms: S_2  and  C_5
REMARK    3  A    between atoms: C_8  and  C_9
REMARK    4  A    between atoms: C_12  and  C_13
REMARK                            x       y       z     vdW  Elec       q    Type
REMARK                         _______ _______ _______ _____ _____    ______ ____
ROOT
ATOM      1  C   UNL     1       1.235   8.719  20.549  0.00  0.00    +0.000 A 
ATOM      2  C   UNL     1       1.169   8.847  21.951  0.00  0.00    +0.000 A 
ATOM      3  N   UNL     1       0.584   9.946  22.502  0.00  0.00    +0.000 NA
ATOM      4  C   UNL     1       0.030  10.917  21.734  0.00  0.00    +0.000 A 
ATOM      5  C   UNL     1       0.086  10.793  20.339  0.00  0.00    +0.000 A 
ATOM      6  N   UNL     1       0.698   9.710  19.788  0.00  0.00    +0.000 NA
ENDROOT
BRANCH   1  10
ATOM      7  C   UNL     1       2.938   5.296  18.561  0.00  0.00    +0.000 A 
ATOM      8  C   UNL     1       2.318   5.151  19.807  0.00  0.00    +0.000 A 
ATOM      9  C   UNL     1       1.785   6.260  20.466  0.00  0.00    +0.000 A 
ATOM     10  C   UNL     1       1.841   7.538  19.880  0.00  0.00    +0.000 A 
ATOM     11  C   UNL     1       2.456   7.674  18.617  0.00  0.00    +0.000 A 
ATOM     12  C   UNL     1       3.012   6.562  17.972  0.00  0.00    +0.000 A 
BRANCH   7  14
ATOM     13  C   UNL     1       5.014   3.937  16.557  0.00  0.00    +0.000 C 
ATOM     14  S   UNL     1       3.615   3.870  17.703  0.00  0.00    +0.000 S 
ATOM     15  O   UNL     1       2.462   3.180  16.956  0.00  0.00    +0.000 OA
ATOM     16  O   UNL     1       3.901   2.782  18.749  0.00  0.00    +0.000 OA
ENDBRANCH   7  14
ENDBRANCH   1  10
BRANCH   4  17
ATOM     17  C   UNL     1      -0.624  12.119  22.360  0.00  0.00    +0.000 C 
ATOM     18  C   UNL     1      -1.877  11.795  23.158  0.00  0.00    +0.000 C 
ATOM     19  C   UNL     1      -2.369  13.204  23.396  0.00  0.00    +0.000 C 
ATOM     20  C   UNL     1      -2.186  13.820  22.010  0.00  0.00    +0.000 C 
ATOM     21  N   UNL     1      -1.062  13.108  21.372  0.00  0.00    +0.000 NA
ATOM     22  H   UNL     1      -0.284  13.753  21.110  0.00  0.00    +0.000 HD
ENDBRANCH   4  17
TORSDOF 3
ENDMDL
MODEL 4
REMARK VINA RESULT:      -6.6      5.242      8.726
REMARK  Name = 
REMARK  4 active torsions:
REMARK  status: ('A' for Active; 'I' for Inactive)
REMARK    1  A    between atoms: C_1  and  S_2
REMARK    2  A    between atoms: S_2  and  C_5
REMARK    3  A    between atoms: C_8  and  C_9
REMARK    4  A    between atoms: C_12  and  C_13
REMARK                            x       y       z     vdW  Elec       q    Type
REMARK                         _______ _______ _______ _____ _____    ______ ____
ROOT
ATOM      1  C   UNL     1       0.957   8.837  20.318  0.00  0.00    +0.000 A 
ATOM      2  C   UNL     1       1.331   7.622  20.926  0.00  0.00    +0.000 A 
ATOM      3  N   UNL     1       2.131   6.748  20.253  0.00  0.00    +0.000 NA
ATOM      4  C   UNL     1       2.606   7.029  19.015  0.00  0.00    +0.000 A 
ATOM      5  C   UNL     1       2.242   8.239  18.407  0.00  0.00    +0.000 A 
ATOM      6  N   UNL     1       1.419   9.098  19.066  0.00  0.00    +0.000 NA
ENDROOT
BRANCH   1  10
ATOM      7  C   UNL     1      -1.569  11.706  22.307  0.00  0.00    +0.000 A 
ATOM      8  C   UNL     1      -1.313  11.823  20.937  0.00  0.00    +0.000 A 
ATOM      9  C   UNL     1      -0.477  10.910  20.292  0.00  0.00    +0.000 A 
ATOM     10  C   UNL     1       0.104   9.844  21.002  0.00  0.00    +0.000 A 
ATOM     11  C   UNL     1      -0.170   9.725  22.382  0.00  0.00    +0.000 A 
ATOM     12  C   UNL     1      -0.988  10.658  23.028  0.00  0.00    +0.000 A 
BRANCH   7  14
ATOM     13  C   UNL     1      -2.079  14.268  24.139  0.00  0.00    +0.000 C 
ATOM     14  S   UNL     1      -2.654  12.872  23.140  0.00  0.00    +0.000 S 
ATOM     15  O   UNL     1      -3.623  12.065  24.019  0.00  0.00    +0.000 OA
ATOM     16  O   UNL     1      -3.659  13.401  22.106  0.00  0.00    +0.000 OA
ENDBRANCH   7  14
ENDBRANCH   1  10
BRANCH   4  17
ATOM     17  C   UNL     1       3.499   6.058  18.290  0.00  0.00    +0.000 C 
ATOM     18  C   UNL     1       2.772   4.840  17.744  0.00  0.00    +0.000 C 
ATOM     19  C   UNL     1       3.974   4.017  17.339  0.00  0.00    +0.000 C 
ATOM     20  C   UNL     1       4.876   4.192  18.560  0.00  0.00    +0.000 C 
ATOM     21  N   UNL     1       4.551   5.506  19.146  0.00  0.00    +0.000 NA
ATOM     22  H   UNL     1       5.382   6.137  19.182  0.00  0.00    +0.000 HD
ENDBRANCH   4  17
TORSDOF 3
ENDMDL
MODEL 5
REMARK VINA RESULT:      -6.6      0.349      1.112
REMARK  Name = 
REMARK  4 active torsions:
REMARK  status: ('A' for Active; 'I' for Inactive)
REMARK    1  A    between atoms: C_1  and  S_2
REMARK    2  A    between atoms: S_2  and  C_5
REMARK    3  A    between atoms: C_8  and  C_9
REMARK    4  A    between atoms: C_12  and  C_13
REMARK                            x       y       z     vdW  Elec       q    Type
REMARK                         _______ _______ _______ _____ _____    ______ ____
ROOT
ATOM      1  C   UNL     1       1.267   8.585  20.541  0.00  0.00    +0.000 A 
ATOM      2  C   UNL     1       1.132   8.866  21.915  0.00  0.00    +0.000 A 
ATOM      3  N   UNL     1       0.484   9.996  22.313  0.00  0.00    +0.000 NA
ATOM      4  C   UNL     1      -0.067  10.852  21.417  0.00  0.00    +0.000 A 
ATOM      5  C   UNL     1       0.058  10.575  20.048  0.00  0.00    +0.000 A 
ATOM      6  N   UNL     1       0.732   9.463  19.650  0.00  0.00    +0.000 NA
ENDROOT
BRANCH   1  10
ATOM      7  C   UNL     1       3.181   5.034  19.028  0.00  0.00    +0.000 A 
ATOM      8  C   UNL     1       2.474   4.993  20.234  0.00  0.00    +0.000 A 
ATOM      9  C   UNL     1       1.872   6.146  20.740  0.00  0.00    +0.000 A 
ATOM     10  C   UNL     1       1.945   7.362  20.037  0.00  0.00    +0.000 A 
ATOM     11  C   UNL     1       2.648   7.392  18.813  0.00  0.00    +0.000 A 
ATOM     12  C   UNL     1       3.272   6.238  18.323  0.00  0.00    +0.000 A 
BRANCH   7  14
ATOM     13  C   UNL     1       3.140   1.932  18.284  0.00  0.00    +0.000 C 
ATOM     14  S   UNL     1       3.948   3.550  18.365  0.00  0.00    +0.000 S 
ATOM     15  O   UNL     1       5.283   3.343  19.097  0.00  0.00    +0.000 OA
ATOM     16  O   UNL     1       4.494   3.885  16.969  0.00  0.00    +0.000 OA
ENDBRANCH   7  14
ENDBRANCH   1  10
BRANCH   4  17
ATOM     17  C   UNL     1      -0.792  12.090  21.874  0.00  0.00    +0.000 C 
ATOM     18  C   UNL     1      -1.574  11.907  23.164  0.00  0.00    +0.000 C 
ATOM     19  C   UNL     1      -2.335  13.212  23.159  0.00  0.00    +0.000 C 
ATOM     20  C   UNL     1      -2.792  13.282  21.703  0.00  0.00    +0.000 C 
ATOM     21  N   UNL     1      -1.785  12.558  20.904  0.00  0.00    +0.000 NA
ATOM     22  H   UNL     1      -1.348  13.166  20.176  0.00  0.00    +0.000 HD
ENDBRANCH   4  17
TORSDOF 3
ENDMDL
MODEL 6
REMARK VINA RESULT:      -6.6      0.852      1.531
REMARK  Name = 
REMARK  4 active torsions:
REMARK  status: ('A' for Active; 'I' for Inactive)
REMARK    1  A    between atoms: C_1  and  S_2
REMARK    2  A    between atoms: S_2  and  C_5
REMARK    3  A    between atoms: C_8  and  C_9
REMARK    4  A    between atoms: C_12  and  C_13
REMARK                            x       y       z     vdW  Elec       q    Type
REMARK                         _______ _______ _______ _____ _____    ______ ____
ROOT
ATOM      1  C   UNL     1       1.283   8.684  20.492  0.00  0.00    +0.000 A 
ATOM      2  C   UNL     1       1.150   9.012  21.857  0.00  0.00    +0.000 A 
ATOM      3  N   UNL     1       0.527  10.168  22.215  0.00  0.00    +0.000 NA
ATOM      4  C   UNL     1      -0.001  11.007  21.290  0.00  0.00    +0.000 A 
ATOM      5  C   UNL     1       0.122  10.684  19.932  0.00  0.00    +0.000 A 
ATOM      6  N   UNL     1       0.771   9.544  19.572  0.00  0.00    +0.000 NA
ENDROOT
BRANCH   1  10
ATOM      7  C   UNL     1       3.117   5.041  19.102  0.00  0.00    +0.000 A 
ATOM      8  C   UNL     1       2.419   5.060  20.314  0.00  0.00    +0.000 A 
ATOM      9  C   UNL     1       1.843   6.242  20.780  0.00  0.00    +0.000 A 
ATOM     10  C   UNL     1       1.933   7.429  20.031  0.00  0.00    +0.000 A 
ATOM     11  C   UNL     1       2.628   7.399  18.802  0.00  0.00    +0.000 A 
ATOM     12  C   UNL     1       3.226   6.216  18.352  0.00  0.00    +0.000 A 
BRANCH   7  14
ATOM     13  C   UNL     1       2.921   2.004  18.144  0.00  0.00    +0.000 C 
ATOM     14  S   UNL     1       3.851   3.519  18.490  0.00  0.00    +0.000 S 
ATOM     15  O   UNL     1       4.992   3.131  19.444  0.00  0.00    +0.000 OA
ATOM     16  O   UNL     1       4.688   3.864  17.249  0.00  0.00    +0.000 OA
ENDBRANCH   7  14
ENDBRANCH   1  10
BRANCH   4  17
ATOM     17  C   UNL     1      -0.698  12.276  21.704  0.00  0.00    +0.000 C 
ATOM     18  C   UNL     1       0.170  13.520  21.602  0.00  0.00    +0.000 C 
ATOM     19  C   UNL     1      -0.740  14.494  22.314  0.00  0.00    +0.000 C 
ATOM     20  C   UNL     1      -1.177  13.664  23.520  0.00  0.00    +0.000 C 
ATOM     21  N   UNL     1      -1.142  12.251  23.100  0.00  0.00    +0.000 NA
ATOM     22  H   UNL     1      -2.074  11.789  23.194  0.00  0.00    +0.000 HD
ENDBRANCH   4  17
TORSDOF 3
ENDMDL
MODEL 7
REMARK VINA RESULT:      -6.6      1.189      1.239
REMARK  Name = 
REMARK  4 active torsions:
REMARK  status: ('A' for Active; 'I' for Inactive)
REMARK    1  A    between atoms: C_1  and  S_2
REMARK    2  A    between atoms: S_2  and  C_5
REMARK    3  A    between atoms: C_8  and  C_9
REMARK    4  A    between atoms: C_12  and  C_13
REMARK                            x       y       z     vdW  Elec       q    Type
REMARK                         _______ _______ _______ _____ _____    ______ ____
ROOT
ATOM      1  C   UNL     1       1.322   8.674  20.138  0.00  0.00    +0.000 A 
ATOM      2  C   UNL     1       0.901   8.643  21.482  0.00  0.00    +0.000 A 
ATOM      3  N   UNL     1       0.152   9.666  21.979  0.00  0.00    +0.000 NA
ATOM      4  C   UNL     1      -0.229  10.710  21.202  0.00  0.00    +0.000 A 
ATOM      5  C   UNL     1       0.181  10.744  19.862  0.00  0.00    +0.000 A 
ATOM      6  N   UNL     1       0.955   9.737  19.374  0.00  0.00    +0.000 NA
ENDROOT
BRANCH   1  10
ATOM      7  C   UNL     1       3.699   5.520  18.413  0.00  0.00    +0.000 A 
ATOM      8  C   UNL     1       3.576   6.748  17.756  0.00  0.00    +0.000 A 
ATOM      9  C   UNL     1       2.789   7.765  18.299  0.00  0.00    +0.000 A 
ATOM     10  C   UNL     1       2.124   7.583  19.525  0.00  0.00    +0.000 A 
ATOM     11  C   UNL     1       2.265   6.344  20.189  0.00  0.00    +0.000 A 
ATOM     12  C   UNL     1       3.034   5.319  19.628  0.00  0.00    +0.000 A 
BRANCH   7  14
ATOM     13  C   UNL     1       5.295   4.158  16.010  0.00  0.00    +0.000 C 
ATOM     14  S   UNL     1       4.721   4.211  17.726  0.00  0.00    +0.000 S 
ATOM     15  O   UNL     1       4.017   2.872  18.000  0.00  0.00    +0.000 OA
ATOM     16  O   UNL     1       5.937   4.030  18.646  0.00  0.00    +0.000 OA
ENDBRANCH   7  14
ENDBRANCH   1  10
BRANCH   4  17
ATOM     17  C   UNL     1      -1.068  11.826  21.764  0.00  0.00    +0.000 C 
ATOM     18  C   UNL     1      -1.745  11.487  23.082  0.00  0.00    +0.000 C 
ATOM     19  C   UNL     1      -2.656  12.688  23.188  0.00  0.00    +0.000 C 
ATOM     20  C   UNL     1      -3.203  12.772  21.764  0.00  0.00    +0.000 C 
ATOM     21  N   UNL     1      -2.166  12.215  20.875  0.00  0.00    +0.000 NA
ATOM     22  H   UNL     1      -1.848  12.906  20.159  0.00  0.00    +0.000 HD
ENDBRANCH   4  17
TORSDOF 3
ENDMDL
MODEL 8
REMARK VINA RESULT:      -6.6      0.998      1.198
REMARK  Name = 
REMARK  4 active torsions:
REMARK  status: ('A' for Active; 'I' for Inactive)
REMARK    1  A    between atoms: C_1  and  S_2
REMARK    2  A    between atoms: S_2  and  C_5
REMARK    3  A    between atoms: C_8  and  C_9
REMARK    4  A    between atoms: C_12  and  C_13
REMARK                            x       y       z     vdW  Elec       q    Type
REMARK                         _______ _______ _______ _____ _____    ______ ____
ROOT
ATOM      1  C   UNL     1       1.047   8.923  20.737  0.00  0.00    +0.000 A 
ATOM      2  C   UNL     1       1.121   9.074  22.137  0.00  0.00    +0.000 A 
ATOM      3  N   UNL     1       0.494  10.123  22.737  0.00  0.00    +0.000 NA
ATOM      4  C   UNL     1      -0.231  11.020  22.024  0.00  0.00    +0.000 A 
ATOM      5  C   UNL     1      -0.314  10.873  20.633  0.00  0.00    +0.000 A 
ATOM      6  N   UNL     1       0.338   9.842  20.029  0.00  0.00    +0.000 NA
ENDROOT
BRANCH   1  10
ATOM      7  C   UNL     1       2.968   5.647  18.702  0.00  0.00    +0.000 A 
ATOM      8  C   UNL     1       2.903   6.908  18.101  0.00  0.00    +0.000 A 
ATOM      9  C   UNL     1       2.262   7.967  18.746  0.00  0.00    +0.000 A 
ATOM     10  C   UNL     1       1.690   7.792  20.019  0.00  0.00    +0.000 A 
ATOM     11  C   UNL     1       1.772   6.520  20.625  0.00  0.00    +0.000 A 
ATOM     12  C   UNL     1       2.393   5.454  19.963  0.00  0.00    +0.000 A 
BRANCH   7  14
ATOM     13  C   UNL     1       5.092   4.481  16.627  0.00  0.00    +0.000 C 
ATOM     14  S   UNL     1       3.803   4.283  17.882  0.00  0.00    +0.000 S 
ATOM     15  O   UNL     1       2.726   3.371  17.273  0.00  0.00    +0.000 OA
ATOM     16  O   UNL     1       4.330   3.332  18.968  0.00  0.00    +0.000 OA
ENDBRANCH   7  14
ENDBRANCH   1  10
BRANCH   4  17
ATOM     17  C   UNL     1      -0.929  12.166  22.706  0.00  0.00    +0.000 C 
ATOM     18  C   UNL     1      -2.334  11.839  23.183  0.00  0.00    +0.000 C 
ATOM     19  C   UNL     1      -2.782  13.234  23.555  0.00  0.00    +0.000 C 
ATOM     20  C   UNL     1      -2.285  14.034  22.352  0.00  0.00    +0.000 C 
ATOM     21  N   UNL     1      -1.099  13.329  21.831  0.00  0.00    +0.000 NA
ATOM     22  H   UNL     1      -0.248  13.935  21.835  0.00  0.00    +0.000 HD
ENDBRANCH   4  17
TORSDOF 3
ENDMDL
MODEL 9
REMARK VINA RESULT:      -6.6      4.937      8.726
REMARK  Name = 
REMARK  4 active torsions:
REMARK  status: ('A' for Active; 'I' for Inactive)
REMARK    1  A    between atoms: C_1  and  S_2
REMARK    2  A    between atoms: S_2  and  C_5
REMARK    3  A    between atoms: C_8  and  C_9
REMARK    4  A    between atoms: C_12  and  C_13
REMARK                            x       y       z     vdW  Elec       q    Type
REMARK                         _______ _______ _______ _____ _____    ______ ____
ROOT
ATOM      1  C   UNL     1       1.556   7.745  20.289  0.00  0.00    +0.000 A 
ATOM      2  C   UNL     1       2.256   7.786  19.067  0.00  0.00    +0.000 A 
ATOM      3  N   UNL     1       2.869   6.662  18.602  0.00  0.00    +0.000 NA
ATOM      4  C   UNL     1       2.799   5.485  19.272  0.00  0.00    +0.000 A 
ATOM      5  C   UNL     1       2.098   5.436  20.485  0.00  0.00    +0.000 A 
ATOM      6  N   UNL     1       1.512   6.566  20.965  0.00  0.00    +0.000 NA
ENDROOT
BRANCH   1  10
ATOM      7  C   UNL     1      -0.559  11.133  21.906  0.00  0.00    +0.000 A 
ATOM      8  C   UNL     1      -0.161  11.126  20.565  0.00  0.00    +0.000 A 
ATOM      9  C   UNL     1       0.545  10.041  20.042  0.00  0.00    +0.000 A 
ATOM     10  C   UNL     1       0.848   8.927  20.846  0.00  0.00    +0.000 A 
ATOM     11  C   UNL     1       0.430   8.936  22.195  0.00  0.00    +0.000 A 
ATOM     12  C   UNL     1      -0.254  10.038  22.720  0.00  0.00    +0.000 A 
BRANCH   7  14
ATOM     13  C   UNL     1      -3.056  12.373  23.456  0.00  0.00    +0.000 C 
ATOM     14  S   UNL     1      -1.478  12.521  22.581  0.00  0.00    +0.000 S 
ATOM     15  O   UNL     1      -1.692  13.539  21.449  0.00  0.00    +0.000 OA
ATOM     16  O   UNL     1      -0.518  13.342  23.457  0.00  0.00    +0.000 OA
ENDBRANCH   7  14
ENDBRANCH   1  10
BRANCH   4  17
ATOM     17  C   UNL     1       3.472   4.250  18.737  0.00  0.00    +0.000 C 
ATOM     18  C   UNL     1       2.606   3.437  17.788  0.00  0.00    +0.000 C 
ATOM     19  C   UNL     1       3.478   2.207  17.677  0.00  0.00    +0.000 C 
ATOM     20  C   UNL     1       3.860   1.982  19.139  0.00  0.00    +0.000 C 
ATOM     21  N   UNL     1       3.849   3.306  19.791  0.00  0.00    +0.000 NA
ATOM     22  H   UNL     1       4.777   3.549  20.204  0.00  0.00    +0.000 HD
ENDBRANCH   4  17
TORSDOF 3
ENDMDL
