MODEL 1
REMARK VINA RESULT:      -6.5      0.000      0.000
REMARK  Name = 
REMARK  13 active torsions:
REMARK  status: ('A' for Active; 'I' for Inactive)
REMARK    1  A    between atoms: C_1  and  C_2
REMARK    2  A    between atoms: C_2  and  C_3
REMARK    3  A    between atoms: C_3  and  O_4
REMARK    4  A    between atoms: O_4  and  C_5
REMARK    5  A    between atoms: C_7  and  O_8
REMARK    6  A    between atoms: O_8  and  C_9
REMARK    7  A    between atoms: C_10  and  C_11
REMARK    8  A    between atoms: C_11  and  C_12
REMARK    9  A    between atoms: C_12  and  N_13
REMARK   10  A    between atoms: C_12  and  C_14
REMARK   11  A    between atoms: C_14  and  C_15
REMARK   12  A    between atoms: C_17  and  O_18
REMARK   13  A    between atoms: O_18  and  C_19
REMARK                            x       y       z     vdW  Elec       q    Type
REMARK                         _______ _______ _______ _____ _____    ______ ____
ROOT
ATOM      1  C   UNL     1       5.867   6.506  16.788  0.00  0.00    +0.000 A 
ATOM      2  C   UNL     1       4.625   6.637  17.456  0.00  0.00    +0.000 A 
ATOM      3  C   UNL     1       3.704   5.579  17.620  0.00  0.00    +0.000 A 
ATOM      4  C   UNL     1       4.050   4.323  17.115  0.00  0.00    +0.000 A 
ATOM      5  C   UNL     1       5.277   4.210  16.424  0.00  0.00    +0.000 A 
ATOM      6  C   UNL     1       6.195   5.267  16.243  0.00  0.00    +0.000 A 
ENDROOT
BRANCH   3   7
ATOM      7  O   UNL     1       2.542   5.690  18.322  0.00  0.00    +0.000 OA
ATOM      8  C   UNL     1       2.628   5.822  19.746  0.00  0.00    +0.000 C 
ENDBRANCH   3   7
BRANCH   6   9
ATOM      9  O   UNL     1       7.229   4.836  15.465  0.00  0.00    +0.000 OA
ATOM     10  C   UNL     1       7.124   4.716  14.062  0.00  0.00    +0.000 C 
ENDBRANCH   6   9
BRANCH   1  11
ATOM     11  O   UNL     1       6.550   7.692  16.837  0.00  0.00    +0.000 OA
BRANCH  11  12
ATOM     12  C   UNL     1       7.673   7.814  17.684  0.00  0.00    +0.000 C 
BRANCH  12  14
ATOM     13  C   UNL     1       8.990   9.464  18.995  0.00  0.00    +0.000 C 
ATOM     14  C   UNL     1       8.146   9.261  17.746  0.00  0.00    +0.000 C 
ENDBRANCH  12  14
ENDBRANCH  11  12
ENDBRANCH   1  11
BRANCH   4  15
ATOM     15  C   UNL     1       3.317   3.010  17.349  0.00  0.00    +0.000 C 
BRANCH  15  16
ATOM     16  C   UNL     1       3.418   2.190  18.652  0.00  0.00    +0.000 C 
BRANCH  16  17
ATOM     17  N   UNL     1       4.003   0.865  18.345  0.00  0.00    +0.000 NA
ATOM     18  H   UNL     1       3.377   0.352  17.725  0.00  0.00    +0.000 HD
ATOM     19  H   UNL     1       4.863   0.995  17.815  0.00  0.00    +0.000 HD
ENDBRANCH  16  17
BRANCH  16  20
ATOM     20  C   UNL     1       2.085   1.996  19.397  0.00  0.00    +0.000 C 
ATOM     21  C   UNL     1       0.858   2.641  18.758  0.00  0.00    +0.000 C 
ENDBRANCH  16  20
ENDBRANCH  15  16
ENDBRANCH   4  15
TORSDOF 9
ENDMDL
MODEL 2
REMARK VINA RESULT:      -6.4      1.400      1.567
REMARK  Name = 
REMARK  13 active torsions:
REMARK  status: ('A' for Active; 'I' for Inactive)
REMARK    1  A    between atoms: C_1  and  C_2
REMARK    2  A    between atoms: C_2  and  C_3
REMARK    3  A    between atoms: C_3  and  O_4
REMARK    4  A    between atoms: O_4  and  C_5
REMARK    5  A    between atoms: C_7  and  O_8
REMARK    6  A    between atoms: O_8  and  C_9
REMARK    7  A    between atoms: C_10  and  C_11
REMARK    8  A    between atoms: C_11  and  C_12
REMARK    9  A    between atoms: C_12  and  N_13
REMARK   10  A    between atoms: C_12  and  C_14
REMARK   11  A    between atoms: C_14  and  C_15
REMARK   12  A    between atoms: C_17  and  O_18
REMARK   13  A    between atoms: O_18  and  C_19
REMARK                            x       y       z     vdW  Elec       q    Type
REMARK                         _______ _______ _______ _____ _____    ______ ____
ROOT
ATOM      1  C   UNL     1       5.647   5.923  16.760  0.00  0.00    +0.000 A 
ATOM      2  C   UNL     1       4.655   6.659  17.452  0.00  0.00    +0.000 A 
ATOM      3  C   UNL     1       3.399   6.132  17.824  0.00  0.00    +0.000 A 
ATOM      4  C   UNL     1       3.128   4.798  17.510  0.00  0.00    +0.000 A 
ATOM      5  C   UNL     1       4.111   4.081  16.792  0.00  0.00    +0.000 A 
ATOM      6  C   UNL     1       5.363   4.606  16.405  0.00  0.00    +0.000 A 
ENDROOT
BRANCH   3   7
ATOM      7  O   UNL     1       2.474   6.820  18.549  0.00  0.00    +0.000 OA
ATOM      8  C   UNL     1       2.253   8.197  18.220  0.00  0.00    +0.000 C 
ENDBRANCH   3   7
BRANCH   6   9
ATOM      9  O   UNL     1       6.029   3.677  15.660  0.00  0.00    +0.000 OA
ATOM     10  C   UNL     1       6.303   3.861  14.287  0.00  0.00    +0.000 C 
ENDBRANCH   6   9
BRANCH   1  11
ATOM     11  O   UNL     1       6.766   6.694  16.589  0.00  0.00    +0.000 OA
BRANCH  11  12
ATOM     12  C   UNL     1       6.871   7.927  17.267  0.00  0.00    +0.000 C 
BRANCH  12  14
ATOM     13  C   UNL     1       8.560   9.424  18.309  0.00  0.00    +0.000 C 
ATOM     14  C   UNL     1       8.145   7.975  18.102  0.00  0.00    +0.000 C 
ENDBRANCH  12  14
ENDBRANCH  11  12
ENDBRANCH   1  11
BRANCH   4  15
ATOM     15  C   UNL     1       1.941   3.971  17.982  0.00  0.00    +0.000 C 
BRANCH  15  16
ATOM     16  C   UNL     1       2.015   2.938  19.125  0.00  0.00    +0.000 C 
BRANCH  16  17
ATOM     17  N   UNL     1       1.751   1.588  18.576  0.00  0.00    +0.000 NA
ATOM     18  H   UNL     1       0.864   1.241  18.937  0.00  0.00    +0.000 HD
ATOM     19  H   UNL     1       1.626   1.657  17.568  0.00  0.00    +0.000 HD
ENDBRANCH  16  17
BRANCH  16  20
ATOM     20  C   UNL     1       1.053   3.204  20.299  0.00  0.00    +0.000 C 
ATOM     21  C   UNL     1       1.501   2.687  21.663  0.00  0.00    +0.000 C 
ENDBRANCH  16  20
ENDBRANCH  15  16
ENDBRANCH   4  15
TORSDOF 9
ENDMDL
MODEL 3
REMARK VINA RESULT:      -6.4      3.054      5.820
REMARK  Name = 
REMARK  13 active torsions:
REMARK  status: ('A' for Active; 'I' for Inactive)
REMARK    1  A    between atoms: C_1  and  C_2
REMARK    2  A    between atoms: C_2  and  C_3
REMARK    3  A    between atoms: C_3  and  O_4
REMARK    4  A    between atoms: O_4  and  C_5
REMARK    5  A    between atoms: C_7  and  O_8
REMARK    6  A    between atoms: O_8  and  C_9
REMARK    7  A    between atoms: C_10  and  C_11
REMARK    8  A    between atoms: C_11  and  C_12
REMARK    9  A    between atoms: C_12  and  N_13
REMARK   10  A    between atoms: C_12  and  C_14
REMARK   11  A    between atoms: C_14  and  C_15
REMARK   12  A    between atoms: C_17  and  O_18
REMARK   13  A    between atoms: O_18  and  C_19
REMARK                            x       y       z     vdW  Elec       q    Type
REMARK                         _______ _______ _______ _____ _____    ______ ____
ROOT
ATOM      1  C   UNL     1       3.522   4.933  19.720  0.00  0.00    +0.000 A 
ATOM      2  C   UNL     1       3.203   6.127  19.029  0.00  0.00    +0.000 A 
ATOM      3  C   UNL     1       3.869   6.566  17.864  0.00  0.00    +0.000 A 
ATOM      4  C   UNL     1       4.888   5.761  17.349  0.00  0.00    +0.000 A 
ATOM      5  C   UNL     1       5.219   4.586  18.062  0.00  0.00    +0.000 A 
ATOM      6  C   UNL     1       4.567   4.150  19.235  0.00  0.00    +0.000 A 
ENDROOT
BRANCH   3   7
ATOM      7  O   UNL     1       3.515   7.679  17.164  0.00  0.00    +0.000 OA
ATOM      8  C   UNL     1       2.432   8.471  17.666  0.00  0.00    +0.000 C 
ENDBRANCH   3   7
BRANCH   6   9
ATOM      9  O   UNL     1       5.189   3.031  19.705  0.00  0.00    +0.000 OA
ATOM     10  C   UNL     1       4.477   1.940  20.249  0.00  0.00    +0.000 C 
ENDBRANCH   6   9
BRANCH   1  11
ATOM     11  O   UNL     1       2.669   4.763  20.778  0.00  0.00    +0.000 OA
BRANCH  11  12
ATOM     12  C   UNL     1       1.296   4.539  20.536  0.00  0.00    +0.000 C 
BRANCH  12  14
ATOM     13  C   UNL     1       0.827   2.619  19.030  0.00  0.00    +0.000 C 
ATOM     14  C   UNL     1       0.995   3.047  20.479  0.00  0.00    +0.000 C 
ENDBRANCH  12  14
ENDBRANCH  11  12
ENDBRANCH   1  11
BRANCH   4  15
ATOM     15  C   UNL     1       5.597   5.927  16.012  0.00  0.00    +0.000 C 
BRANCH  15  16
ATOM     16  C   UNL     1       6.519   4.858  15.391  0.00  0.00    +0.000 C 
BRANCH  16  17
ATOM     17  N   UNL     1       7.612   5.532  14.652  0.00  0.00    +0.000 NA
ATOM     18  H   UNL     1       7.394   6.523  14.553  0.00  0.00    +0.000 HD
ATOM     19  H   UNL     1       8.463   5.495  15.210  0.00  0.00    +0.000 HD
ENDBRANCH  16  17
BRANCH  16  20
ATOM     20  C   UNL     1       5.813   3.861  14.453  0.00  0.00    +0.000 C 
ATOM     21  C   UNL     1       6.314   3.826  13.012  0.00  0.00    +0.000 C 
ENDBRANCH  16  20
ENDBRANCH  15  16
ENDBRANCH   4  15
TORSDOF 9
ENDMDL
MODEL 4
REMARK VINA RESULT:      -6.4      2.167      5.585
REMARK  Name = 
REMARK  13 active torsions:
REMARK  status: ('A' for Active; 'I' for Inactive)
REMARK    1  A    between atoms: C_1  and  C_2
REMARK    2  A    between atoms: C_2  and  C_3
REMARK    3  A    between atoms: C_3  and  O_4
REMARK    4  A    between atoms: O_4  and  C_5
REMARK    5  A    between atoms: C_7  and  O_8
REMARK    6  A    between atoms: O_8  and  C_9
REMARK    7  A    between atoms: C_10  and  C_11
REMARK    8  A    between atoms: C_11  and  C_12
REMARK    9  A    between atoms: C_12  and  N_13
REMARK   10  A    between atoms: C_12  and  C_14
REMARK   11  A    between atoms: C_14  and  C_15
REMARK   12  A    between atoms: C_17  and  O_18
REMARK   13  A    between atoms: O_18  and  C_19
REMARK                            x       y       z     vdW  Elec       q    Type
REMARK                         _______ _______ _______ _____ _____    ______ ____
ROOT
ATOM      1  C   UNL     1       3.317   5.267  17.847  0.00  0.00    +0.000 A 
ATOM      2  C   UNL     1       4.303   6.239  17.551  0.00  0.00    +0.000 A 
ATOM      3  C   UNL     1       5.530   5.949  16.915  0.00  0.00    +0.000 A 
ATOM      4  C   UNL     1       5.775   4.627  16.535  0.00  0.00    +0.000 A 
ATOM      5  C   UNL     1       4.798   3.659  16.862  0.00  0.00    +0.000 A 
ATOM      6  C   UNL     1       3.577   3.941  17.510  0.00  0.00    +0.000 A 
ENDROOT
BRANCH   3   7
ATOM      7  O   UNL     1       6.446   6.895  16.570  0.00  0.00    +0.000 OA
ATOM      8  C   UNL     1       7.431   7.261  17.544  0.00  0.00    +0.000 C 
ENDBRANCH   3   7
BRANCH   6   9
ATOM      9  O   UNL     1       2.912   2.773  17.745  0.00  0.00    +0.000 OA
ATOM     10  C   UNL     1       3.382   1.803  18.658  0.00  0.00    +0.000 C 
ENDBRANCH   6   9
BRANCH   1  11
ATOM     11  O   UNL     1       2.226   5.868  18.419  0.00  0.00    +0.000 OA
BRANCH  11  12
ATOM     12  C   UNL     1       2.275   6.251  19.776  0.00  0.00    +0.000 C 
BRANCH  12  14
ATOM     13  C   UNL     1       0.961   4.215  20.327  0.00  0.00    +0.000 C 
ATOM     14  C   UNL     1       2.194   5.030  20.684  0.00  0.00    +0.000 C 
ENDBRANCH  12  14
ENDBRANCH  11  12
ENDBRANCH   1  11
BRANCH   4  15
ATOM     15  C   UNL     1       6.920   4.122  15.670  0.00  0.00    +0.000 C 
BRANCH  15  16
ATOM     16  C   UNL     1       6.935   4.208  14.130  0.00  0.00    +0.000 C 
BRANCH  16  17
ATOM     17  N   UNL     1       7.472   5.527  13.724  0.00  0.00    +0.000 NA
ATOM     18  H   UNL     1       8.404   5.651  14.118  0.00  0.00    +0.000 HD
ATOM     19  H   UNL     1       7.601   5.538  12.714  0.00  0.00    +0.000 HD
ENDBRANCH  16  17
BRANCH  16  20
ATOM     20  C   UNL     1       5.567   3.990  13.457  0.00  0.00    +0.000 C 
ATOM     21  C   UNL     1       5.586   3.245  12.125  0.00  0.00    +0.000 C 
ENDBRANCH  16  20
ENDBRANCH  15  16
ENDBRANCH   4  15
TORSDOF 9
ENDMDL
MODEL 5
REMARK VINA RESULT:      -6.4      1.717      4.182
REMARK  Name = 
REMARK  13 active torsions:
REMARK  status: ('A' for Active; 'I' for Inactive)
REMARK    1  A    between atoms: C_1  and  C_2
REMARK    2  A    between atoms: C_2  and  C_3
REMARK    3  A    between atoms: C_3  and  O_4
REMARK    4  A    between atoms: O_4  and  C_5
REMARK    5  A    between atoms: C_7  and  O_8
REMARK    6  A    between atoms: O_8  and  C_9
REMARK    7  A    between atoms: C_10  and  C_11
REMARK    8  A    between atoms: C_11  and  C_12
REMARK    9  A    between atoms: C_12  and  N_13
REMARK   10  A    between atoms: C_12  and  C_14
REMARK   11  A    between atoms: C_14  and  C_15
REMARK   12  A    between atoms: C_17  and  O_18
REMARK   13  A    between atoms: O_18  and  C_19
REMARK                            x       y       z     vdW  Elec       q    Type
REMARK                         _______ _______ _______ _____ _____    ______ ____
ROOT
ATOM      1  C   UNL     1       5.690   5.169  16.069  0.00  0.00    +0.000 A 
ATOM      2  C   UNL     1       4.767   4.114  16.269  0.00  0.00    +0.000 A 
ATOM      3  C   UNL     1       3.658   4.191  17.139  0.00  0.00    +0.000 A 
ATOM      4  C   UNL     1       3.446   5.389  17.826  0.00  0.00    +0.000 A 
ATOM      5  C   UNL     1       4.389   6.425  17.643  0.00  0.00    +0.000 A 
ATOM      6  C   UNL     1       5.508   6.349  16.786  0.00  0.00    +0.000 A 
ENDROOT
BRANCH   3   7
ATOM      7  O   UNL     1       2.734   3.201  17.277  0.00  0.00    +0.000 OA
ATOM      8  C   UNL     1       3.133   2.001  17.950  0.00  0.00    +0.000 C 
ENDBRANCH   3   7
BRANCH   6   9
ATOM      9  O   UNL     1       6.250   7.487  16.912  0.00  0.00    +0.000 OA
ATOM     10  C   UNL     1       7.542   7.491  17.482  0.00  0.00    +0.000 C 
ENDBRANCH   6   9
BRANCH   1  11
ATOM     11  O   UNL     1       6.622   4.803  15.133  0.00  0.00    +0.000 OA
BRANCH  11  12
ATOM     12  C   UNL     1       6.383   3.677  14.317  0.00  0.00    +0.000 C 
BRANCH  12  14
ATOM     13  C   UNL     1       5.544   3.173  12.032  0.00  0.00    +0.000 C 
ATOM     14  C   UNL     1       6.488   4.048  12.843  0.00  0.00    +0.000 C 
ENDBRANCH  12  14
ENDBRANCH  11  12
ENDBRANCH   1  11
BRANCH   4  15
ATOM     15  C   UNL     1       2.222   5.767  18.648  0.00  0.00    +0.000 C 
BRANCH  15  16
ATOM     16  C   UNL     1       1.965   5.266  20.084  0.00  0.00    +0.000 C 
BRANCH  16  17
ATOM     17  N   UNL     1       3.252   4.860  20.693  0.00  0.00    +0.000 NA
ATOM     18  H   UNL     1       3.957   4.757  19.964  0.00  0.00    +0.000 HD
ATOM     19  H   UNL     1       3.590   5.612  21.292  0.00  0.00    +0.000 HD
ENDBRANCH  16  17
BRANCH  16  20
ATOM     20  C   UNL     1       0.964   4.100  20.192  0.00  0.00    +0.000 C 
ATOM     21  C   UNL     1       1.339   2.981  21.159  0.00  0.00    +0.000 C 
ENDBRANCH  16  20
ENDBRANCH  15  16
ENDBRANCH   4  15
TORSDOF 9
ENDMDL
MODEL 6
REMARK VINA RESULT:      -6.3      2.993      5.835
REMARK  Name = 
REMARK  13 active torsions:
REMARK  status: ('A' for Active; 'I' for Inactive)
REMARK    1  A    between atoms: C_1  and  C_2
REMARK    2  A    between atoms: C_2  and  C_3
REMARK    3  A    between atoms: C_3  and  O_4
REMARK    4  A    between atoms: O_4  and  C_5
REMARK    5  A    between atoms: C_7  and  O_8
REMARK    6  A    between atoms: O_8  and  C_9
REMARK    7  A    between atoms: C_10  and  C_11
REMARK    8  A    between atoms: C_11  and  C_12
REMARK    9  A    between atoms: C_12  and  N_13
REMARK   10  A    between atoms: C_12  and  C_14
REMARK   11  A    between atoms: C_14  and  C_15
REMARK   12  A    between atoms: C_17  and  O_18
REMARK   13  A    between atoms: O_18  and  C_19
REMARK                            x       y       z     vdW  Elec       q    Type
REMARK                         _______ _______ _______ _____ _____    ______ ____
ROOT
ATOM      1  C   UNL     1       2.133   4.274  18.482  0.00  0.00    +0.000 A 
ATOM      2  C   UNL     1       2.365   5.670  18.462  0.00  0.00    +0.000 A 
ATOM      3  C   UNL     1       3.398   6.287  17.723  0.00  0.00    +0.000 A 
ATOM      4  C   UNL     1       4.226   5.472  16.946  0.00  0.00    +0.000 A 
ATOM      5  C   UNL     1       4.005   4.077  16.996  0.00  0.00    +0.000 A 
ATOM      6  C   UNL     1       2.984   3.453  17.745  0.00  0.00    +0.000 A 
ENDROOT
BRANCH   3   7
ATOM      7  O   UNL     1       3.576   7.635  17.651  0.00  0.00    +0.000 OA
ATOM      8  C   UNL     1       2.426   8.473  17.816  0.00  0.00    +0.000 C 
ENDBRANCH   3   7
BRANCH   6   9
ATOM      9  O   UNL     1       3.108   2.099  17.634  0.00  0.00    +0.000 OA
ATOM     10  C   UNL     1       3.703   1.307  18.640  0.00  0.00    +0.000 C 
ENDBRANCH   6   9
BRANCH   1  11
ATOM     11  O   UNL     1       1.034   3.994  19.251  0.00  0.00    +0.000 OA
BRANCH  11  12
ATOM     12  C   UNL     1       0.971   4.476  20.576  0.00  0.00    +0.000 C 
BRANCH  12  14
ATOM     13  C   UNL     1       1.635   2.400  21.769  0.00  0.00    +0.000 C 
ATOM     14  C   UNL     1       2.047   3.826  21.438  0.00  0.00    +0.000 C 
ENDBRANCH  12  14
ENDBRANCH  11  12
ENDBRANCH   1  11
BRANCH   4  15
ATOM     15  C   UNL     1       5.259   5.926  15.925  0.00  0.00    +0.000 C 
BRANCH  15  16
ATOM     16  C   UNL     1       6.692   5.362  15.845  0.00  0.00    +0.000 C 
BRANCH  16  17
ATOM     17  N   UNL     1       7.652   6.421  16.233  0.00  0.00    +0.000 NA
ATOM     18  H   UNL     1       8.600   6.047  16.208  0.00  0.00    +0.000 HD
ATOM     19  H   UNL     1       7.633   7.160  15.533  0.00  0.00    +0.000 HD
ENDBRANCH  16  17
BRANCH  16  20
ATOM     20  C   UNL     1       7.088   4.800  14.467  0.00  0.00    +0.000 C 
ATOM     21  C   UNL     1       6.037   3.944  13.764  0.00  0.00    +0.000 C 
ENDBRANCH  16  20
ENDBRANCH  15  16
ENDBRANCH   4  15
TORSDOF 9
ENDMDL
MODEL 7
REMARK VINA RESULT:      -6.3      2.343      5.897
REMARK  Name = 
REMARK  13 active torsions:
REMARK  status: ('A' for Active; 'I' for Inactive)
REMARK    1  A    between atoms: C_1  and  C_2
REMARK    2  A    between atoms: C_2  and  C_3
REMARK    3  A    between atoms: C_3  and  O_4
REMARK    4  A    between atoms: O_4  and  C_5
REMARK    5  A    between atoms: C_7  and  O_8
REMARK    6  A    between atoms: O_8  and  C_9
REMARK    7  A    between atoms: C_10  and  C_11
REMARK    8  A    between atoms: C_11  and  C_12
REMARK    9  A    between atoms: C_12  and  N_13
REMARK   10  A    between atoms: C_12  and  C_14
REMARK   11  A    between atoms: C_14  and  C_15
REMARK   12  A    between atoms: C_17  and  O_18
REMARK   13  A    between atoms: O_18  and  C_19
REMARK                            x       y       z     vdW  Elec       q    Type
REMARK                         _______ _______ _______ _____ _____    ______ ____
ROOT
ATOM      1  C   UNL     1       4.050   4.398  18.783  0.00  0.00    +0.000 A 
ATOM      2  C   UNL     1       4.757   5.597  18.521  0.00  0.00    +0.000 A 
ATOM      3  C   UNL     1       5.348   5.906  17.276  0.00  0.00    +0.000 A 
ATOM      4  C   UNL     1       5.207   4.985  16.235  0.00  0.00    +0.000 A 
ATOM      5  C   UNL     1       4.526   3.779  16.516  0.00  0.00    +0.000 A 
ATOM      6  C   UNL     1       3.946   3.457  17.761  0.00  0.00    +0.000 A 
ENDROOT
BRANCH   3   7
ATOM      7  O   UNL     1       5.968   7.089  17.006  0.00  0.00    +0.000 OA
ATOM      8  C   UNL     1       7.318   7.256  17.456  0.00  0.00    +0.000 C 
ENDBRANCH   3   7
BRANCH   6   9
ATOM      9  O   UNL     1       3.445   2.189  17.710  0.00  0.00    +0.000 OA
ATOM     10  C   UNL     1       3.768   1.207  18.671  0.00  0.00    +0.000 C 
ENDBRANCH   6   9
BRANCH   1  11
ATOM     11  O   UNL     1       3.559   4.416  20.062  0.00  0.00    +0.000 OA
BRANCH  11  12
ATOM     12  C   UNL     1       2.276   4.952  20.306  0.00  0.00    +0.000 C 
BRANCH  12  14
ATOM     13  C   UNL     1       0.744   3.096  19.684  0.00  0.00    +0.000 C 
ATOM     14  C   UNL     1       1.338   3.878  20.845  0.00  0.00    +0.000 C 
ENDBRANCH  12  14
ENDBRANCH  11  12
ENDBRANCH   1  11
BRANCH   4  15
ATOM     15  C   UNL     1       5.579   5.193  14.774  0.00  0.00    +0.000 C 
BRANCH  15  16
ATOM     16  C   UNL     1       6.837   4.590  14.115  0.00  0.00    +0.000 C 
BRANCH  16  17
ATOM     17  N   UNL     1       7.971   5.525  14.290  0.00  0.00    +0.000 NA
ATOM     18  H   UNL     1       7.655   6.479  14.118  0.00  0.00    +0.000 HD
ATOM     19  H   UNL     1       8.269   5.509  15.264  0.00  0.00    +0.000 HD
ENDBRANCH  16  17
BRANCH  16  20
ATOM     20  C   UNL     1       6.683   4.254  12.619  0.00  0.00    +0.000 C 
ATOM     21  C   UNL     1       5.628   3.208  12.272  0.00  0.00    +0.000 C 
ENDBRANCH  16  20
ENDBRANCH  15  16
ENDBRANCH   4  15
TORSDOF 9
ENDMDL
MODEL 8
REMARK VINA RESULT:      -6.3      1.876      2.241
REMARK  Name = 
REMARK  13 active torsions:
REMARK  status: ('A' for Active; 'I' for Inactive)
REMARK    1  A    between atoms: C_1  and  C_2
REMARK    2  A    between atoms: C_2  and  C_3
REMARK    3  A    between atoms: C_3  and  O_4
REMARK    4  A    between atoms: O_4  and  C_5
REMARK    5  A    between atoms: C_7  and  O_8
REMARK    6  A    between atoms: O_8  and  C_9
REMARK    7  A    between atoms: C_10  and  C_11
REMARK    8  A    between atoms: C_11  and  C_12
REMARK    9  A    between atoms: C_12  and  N_13
REMARK   10  A    between atoms: C_12  and  C_14
REMARK   11  A    between atoms: C_14  and  C_15
REMARK   12  A    between atoms: C_17  and  O_18
REMARK   13  A    between atoms: O_18  and  C_19
REMARK                            x       y       z     vdW  Elec       q    Type
REMARK                         _______ _______ _______ _____ _____    ______ ____
ROOT
ATOM      1  C   UNL     1       5.845   4.875  17.676  0.00  0.00    +0.000 A 
ATOM      2  C   UNL     1       5.054   5.483  18.681  0.00  0.00    +0.000 A 
ATOM      3  C   UNL     1       3.667   5.268  18.830  0.00  0.00    +0.000 A 
ATOM      4  C   UNL     1       3.042   4.384  17.947  0.00  0.00    +0.000 A 
ATOM      5  C   UNL     1       3.833   3.806  16.929  0.00  0.00    +0.000 A 
ATOM      6  C   UNL     1       5.217   4.028  16.765  0.00  0.00    +0.000 A 
ENDROOT
BRANCH   3   7
ATOM      7  O   UNL     1       2.923   5.799  19.838  0.00  0.00    +0.000 OA
ATOM      8  C   UNL     1       2.336   7.090  19.630  0.00  0.00    +0.000 C 
ENDBRANCH   3   7
BRANCH   6   9
ATOM      9  O   UNL     1       5.647   3.385  15.642  0.00  0.00    +0.000 OA
ATOM     10  C   UNL     1       6.324   4.053  14.598  0.00  0.00    +0.000 C 
ENDBRANCH   6   9
BRANCH   1  11
ATOM     11  O   UNL     1       7.156   5.245  17.825  0.00  0.00    +0.000 OA
BRANCH  11  12
ATOM     12  C   UNL     1       7.562   5.905  19.005  0.00  0.00    +0.000 C 
BRANCH  12  14
ATOM     13  C   UNL     1       7.619   7.916  17.546  0.00  0.00    +0.000 C 
ATOM     14  C   UNL     1       8.326   7.181  18.674  0.00  0.00    +0.000 C 
ENDBRANCH  12  14
ENDBRANCH  11  12
ENDBRANCH   1  11
BRANCH   4  15
ATOM     15  C   UNL     1       1.620   3.850  18.041  0.00  0.00    +0.000 C 
BRANCH  15  16
ATOM     16  C   UNL     1       1.088   3.030  19.234  0.00  0.00    +0.000 C 
BRANCH  16  17
ATOM     17  N   UNL     1       0.479   3.950  20.222  0.00  0.00    +0.000 NA
ATOM     18  H   UNL     1       1.066   4.777  20.323  0.00  0.00    +0.000 HD
ATOM     19  H   UNL     1      -0.409   4.290  19.856  0.00  0.00    +0.000 HD
ENDBRANCH  16  17
BRANCH  16  20
ATOM     20  C   UNL     1       2.144   2.157  19.940  0.00  0.00    +0.000 C 
ATOM     21  C   UNL     1       2.576   2.619  21.329  0.00  0.00    +0.000 C 
ENDBRANCH  16  20
ENDBRANCH  15  16
ENDBRANCH   4  15
TORSDOF 9
ENDMDL
MODEL 9
REMARK VINA RESULT:      -6.3      1.437      1.621
REMARK  Name = 
REMARK  13 active torsions:
REMARK  status: ('A' for Active; 'I' for Inactive)
REMARK    1  A    between atoms: C_1  and  C_2
REMARK    2  A    between atoms: C_2  and  C_3
REMARK    3  A    between atoms: C_3  and  O_4
REMARK    4  A    between atoms: O_4  and  C_5
REMARK    5  A    between atoms: C_7  and  O_8
REMARK    6  A    between atoms: O_8  and  C_9
REMARK    7  A    between atoms: C_10  and  C_11
REMARK    8  A    between atoms: C_11  and  C_12
REMARK    9  A    between atoms: C_12  and  N_13
REMARK   10  A    between atoms: C_12  and  C_14
REMARK   11  A    between atoms: C_14  and  C_15
REMARK   12  A    between atoms: C_17  and  O_18
REMARK   13  A    between atoms: O_18  and  C_19
REMARK                            x       y       z     vdW  Elec       q    Type
REMARK                         _______ _______ _______ _____ _____    ______ ____
ROOT
ATOM      1  C   UNL     1       6.108   5.551  16.905  0.00  0.00    +0.000 A 
ATOM      2  C   UNL     1       5.260   5.949  17.967  0.00  0.00    +0.000 A 
ATOM      3  C   UNL     1       4.205   5.158  18.472  0.00  0.00    +0.000 A 
ATOM      4  C   UNL     1       4.001   3.897  17.905  0.00  0.00    +0.000 A 
ATOM      5  C   UNL     1       4.833   3.522  16.827  0.00  0.00    +0.000 A 
ATOM      6  C   UNL     1       5.879   4.314  16.308  0.00  0.00    +0.000 A 
ENDROOT
BRANCH   3   7
ATOM      7  O   UNL     1       3.436   5.514  19.537  0.00  0.00    +0.000 OA
ATOM      8  C   UNL     1       2.605   6.674  19.407  0.00  0.00    +0.000 C 
ENDBRANCH   3   7
BRANCH   6   9
ATOM      9  O   UNL     1       6.421   3.688  15.223  0.00  0.00    +0.000 OA
ATOM     10  C   UNL     1       6.073   4.031  13.898  0.00  0.00    +0.000 C 
ENDBRANCH   6   9
BRANCH   1  11
ATOM     11  O   UNL     1       7.059   6.512  16.681  0.00  0.00    +0.000 OA
BRANCH  11  12
ATOM     12  C   UNL     1       6.975   7.745  17.363  0.00  0.00    +0.000 C 
BRANCH  12  14
ATOM     13  C   UNL     1       8.482   9.534  18.203  0.00  0.00    +0.000 C 
ATOM     14  C   UNL     1       8.266   8.031  18.120  0.00  0.00    +0.000 C 
ENDBRANCH  12  14
ENDBRANCH  11  12
ENDBRANCH   1  11
BRANCH   4  15
ATOM     15  C   UNL     1       3.070   2.806  18.414  0.00  0.00    +0.000 C 
BRANCH  15  16
ATOM     16  C   UNL     1       1.532   2.880  18.324  0.00  0.00    +0.000 C 
BRANCH  16  17
ATOM     17  N   UNL     1       1.151   4.047  17.497  0.00  0.00    +0.000 NA
ATOM     18  H   UNL     1       0.139   4.168  17.525  0.00  0.00    +0.000 HD
ATOM     19  H   UNL     1       1.536   4.892  17.915  0.00  0.00    +0.000 HD
ENDBRANCH  16  17
BRANCH  16  20
ATOM     20  C   UNL     1       0.809   2.963  19.682  0.00  0.00    +0.000 C 
ATOM     21  C   UNL     1       1.693   2.838  20.920  0.00  0.00    +0.000 C 
ENDBRANCH  16  20
ENDBRANCH  15  16
ENDBRANCH   4  15
TORSDOF 9
ENDMDL
