MODEL 1
REMARK VINA RESULT:      -6.0      0.000      0.000
REMARK  Name = 
REMARK  22 active torsions:
REMARK  status: ('A' for Active; 'I' for Inactive)
REMARK    1  A    between atoms: C_1  and  C_2
REMARK    2  A    between atoms: C_2  and  C_3
REMARK    3  A    between atoms: C_3  and  C_4
REMARK    4  A    between atoms: C_4  and  C_5
REMARK    5  A    between atoms: C_5  and  C_6
REMARK    6  A    between atoms: C_6  and  C_7
REMARK    7  A    between atoms: C_7  and  C_8
REMARK    8  A    between atoms: C_8  and  C_9
REMARK    9  A    between atoms: C_9  and  C_10
REMARK   10  A    between atoms: C_10  and  O_12
REMARK   11  A    between atoms: O_12  and  C_13
REMARK   12  A    between atoms: C_13  and  C_14
REMARK   13  A    between atoms: C_14  and  O_15
REMARK   14  A    between atoms: C_14  and  C_16
REMARK   15  A    between atoms: C_16  and  O_17
REMARK   16  A    between atoms: O_17  and  C_18
REMARK   17  A    between atoms: C_20  and  C_21
REMARK   18  A    between atoms: C_21  and  S_22
REMARK   19  A    between atoms: S_22  and  O_25
REMARK   20  A    between atoms: C_26  and  O_27
REMARK   21  A    between atoms: C_28  and  O_29
REMARK   22  A    between atoms: C_30  and  O_31
REMARK                            x       y       z     vdW  Elec       q    Type
REMARK                         _______ _______ _______ _____ _____    ______ ____
ROOT
ATOM      1  O   UNL     1       2.788   6.419  19.390  0.00  0.00    +0.000 OA
ENDROOT
BRANCH   1   2
ATOM      2  C   UNL     1       2.164   5.366  18.649  0.00  0.00    +0.000 C 
ATOM      3  O   UNL     1       2.979   4.921  17.565  0.00  0.00    +0.000 OA
ATOM      4  C   UNL     1       4.285   4.524  17.992  0.00  0.00    +0.000 C 
ATOM      5  C   UNL     1       4.175   3.285  18.871  0.00  0.00    +0.000 C 
ATOM      6  C   UNL     1       3.248   3.586  20.069  0.00  0.00    +0.000 C 
ATOM      7  C   UNL     1       1.906   4.176  19.589  0.00  0.00    +0.000 C 
BRANCH   7   8
ATOM      8  O   UNL     1       1.099   4.569  20.704  0.00  0.00    +0.000 OA
ATOM      9  H   UNL     1       0.231   4.836  20.343  0.00  0.00    +0.000 HD
ENDBRANCH   7   8
BRANCH   6  10
ATOM     10  O   UNL     1       3.034   2.388  20.825  0.00  0.00    +0.000 OA
ATOM     11  H   UNL     1       2.292   2.546  21.434  0.00  0.00    +0.000 HD
ENDBRANCH   6  10
BRANCH   5  12
ATOM     12  O   UNL     1       5.476   2.891  19.299  0.00  0.00    +0.000 OA
ATOM     13  H   UNL     1       6.144   3.328  18.736  0.00  0.00    +0.000 HD
ENDBRANCH   5  12
BRANCH   4  14
ATOM     14  C   UNL     1       5.187   4.330  16.781  0.00  0.00    +0.000 C 
BRANCH  14  15
ATOM     15  S   UNL     1       6.656   5.324  17.031  0.00  0.00    +0.000 S 
ATOM     16  O   UNL     1       6.832   5.594  18.453  0.00  0.00    +0.000 OA
ATOM     17  O   UNL     1       7.716   4.813  16.218  0.00  0.00    +0.000 OA
BRANCH  15  18
ATOM     18  O   UNL     1       6.107   6.708  16.406  0.00  0.00    +0.000 OA
ATOM     19  H   UNL     1       6.711   7.435  16.668  0.00  0.00    +0.000 HD
ENDBRANCH  15  18
ENDBRANCH  14  15
ENDBRANCH   4  14
ENDBRANCH   1   2
BRANCH   1  20
ATOM     20  C   UNL     1       2.075   7.647  19.267  0.00  0.00    +0.000 C 
BRANCH  20  21
ATOM     21  C   UNL     1       2.294   8.247  17.881  0.00  0.00    +0.000 C 
BRANCH  21  22
ATOM     22  O   UNL     1       3.665   8.047  17.516  0.00  0.00    +0.000 OA
ATOM     23  H   UNL     1       4.081   8.927  17.451  0.00  0.00    +0.000 HD
ENDBRANCH  21  22
BRANCH  21  24
ATOM     24  C   UNL     1       1.924   9.745  17.899  0.00  0.00    +0.000 C 
BRANCH  24  25
ATOM     25  O   UNL     1       0.977  10.009  18.943  0.00  0.00    +0.000 OA
BRANCH  25  26
ATOM     26  C   UNL     1       0.805  11.340  19.201  0.00  0.00    +0.000 C 
ATOM     27  O   UNL     1       1.640  12.072  19.706  0.00  0.00    +0.000 OA
BRANCH  26  28
ATOM     28  C   UNL     1      -0.533  11.802  18.672  0.00  0.00    +0.000 C 
BRANCH  28  29
ATOM     29  C   UNL     1      -1.541  10.671  18.746  0.00  0.00    +0.000 C 
BRANCH  29  30
ATOM     30  C   UNL     1      -2.551  10.735  17.612  0.00  0.00    +0.000 C 
BRANCH  30  31
ATOM     31  C   UNL     1      -3.732  11.608  18.015  0.00  0.00    +0.000 C 
BRANCH  31  32
ATOM     32  C   UNL     1      -4.977  11.202  17.243  0.00  0.00    +0.000 C 
BRANCH  32  33
ATOM     33  C   UNL     1      -6.228  11.671  17.971  0.00  0.00    +0.000 C 
BRANCH  33  34
ATOM     34  C   UNL     1      -6.382  10.921  19.285  0.00  0.00    +0.000 C 
BRANCH  34  36
ATOM     35  C   UNL     1      -7.423   8.946  20.398  0.00  0.00    +0.000 C 
ATOM     36  C   UNL     1      -7.127   9.611  19.069  0.00  0.00    +0.000 C 
ENDBRANCH  34  36
ENDBRANCH  33  34
ENDBRANCH  32  33
ENDBRANCH  31  32
ENDBRANCH  30  31
ENDBRANCH  29  30
ENDBRANCH  28  29
ENDBRANCH  26  28
ENDBRANCH  25  26
ENDBRANCH  24  25
ENDBRANCH  21  24
ENDBRANCH  20  21
ENDBRANCH   1  20
TORSDOF 21
ENDMDL
MODEL 2
REMARK VINA RESULT:      -5.9      2.516      4.805
REMARK  Name = 
REMARK  22 active torsions:
REMARK  status: ('A' for Active; 'I' for Inactive)
REMARK    1  A    between atoms: C_1  and  C_2
REMARK    2  A    between atoms: C_2  and  C_3
REMARK    3  A    between atoms: C_3  and  C_4
REMARK    4  A    between atoms: C_4  and  C_5
REMARK    5  A    between atoms: C_5  and  C_6
REMARK    6  A    between atoms: C_6  and  C_7
REMARK    7  A    between atoms: C_7  and  C_8
REMARK    8  A    between atoms: C_8  and  C_9
REMARK    9  A    between atoms: C_9  and  C_10
REMARK   10  A    between atoms: C_10  and  O_12
REMARK   11  A    between atoms: O_12  and  C_13
REMARK   12  A    between atoms: C_13  and  C_14
REMARK   13  A    between atoms: C_14  and  O_15
REMARK   14  A    between atoms: C_14  and  C_16
REMARK   15  A    between atoms: C_16  and  O_17
REMARK   16  A    between atoms: O_17  and  C_18
REMARK   17  A    between atoms: C_20  and  C_21
REMARK   18  A    between atoms: C_21  and  S_22
REMARK   19  A    between atoms: S_22  and  O_25
REMARK   20  A    between atoms: C_26  and  O_27
REMARK   21  A    between atoms: C_28  and  O_29
REMARK   22  A    between atoms: C_30  and  O_31
REMARK                            x       y       z     vdW  Elec       q    Type
REMARK                         _______ _______ _______ _____ _____    ______ ____
ROOT
ATOM      1  O   UNL     1       3.013   6.587  18.693  0.00  0.00    +0.000 OA
ENDROOT
BRANCH   1   2
ATOM      2  C   UNL     1       2.377   5.462  18.079  0.00  0.00    +0.000 C 
ATOM      3  O   UNL     1       3.232   4.817  17.136  0.00  0.00    +0.000 OA
ATOM      4  C   UNL     1       4.484   4.431  17.708  0.00  0.00    +0.000 C 
ATOM      5  C   UNL     1       4.250   3.351  18.755  0.00  0.00    +0.000 C 
ATOM      6  C   UNL     1       3.270   3.877  19.826  0.00  0.00    +0.000 C 
ATOM      7  C   UNL     1       1.995   4.446  19.169  0.00  0.00    +0.000 C 
BRANCH   7   8
ATOM      8  O   UNL     1       1.144   5.045  20.152  0.00  0.00    +0.000 OA
ATOM      9  H   UNL     1       0.584   5.693  19.682  0.00  0.00    +0.000 HD
ENDBRANCH   7   8
BRANCH   6  10
ATOM     10  O   UNL     1       2.941   2.822  20.739  0.00  0.00    +0.000 OA
ATOM     11  H   UNL     1       2.461   2.136  20.245  0.00  0.00    +0.000 HD
ENDBRANCH   6  10
BRANCH   5  12
ATOM     12  O   UNL     1       5.499   2.968  19.328  0.00  0.00    +0.000 OA
ATOM     13  H   UNL     1       6.172   2.920  18.623  0.00  0.00    +0.000 HD
ENDBRANCH   5  12
BRANCH   4  14
ATOM     14  C   UNL     1       5.448   4.010  16.606  0.00  0.00    +0.000 C 
BRANCH  14  15
ATOM     15  S   UNL     1       6.927   5.006  16.767  0.00  0.00    +0.000 S 
ATOM     16  O   UNL     1       7.688   4.961  15.524  0.00  0.00    +0.000 OA
ATOM     17  O   UNL     1       6.598   6.239  17.411  0.00  0.00    +0.000 OA
BRANCH  15  18
ATOM     18  O   UNL     1       7.738   4.054  17.789  0.00  0.00    +0.000 OA
ATOM     19  H   UNL     1       8.688   4.067  17.549  0.00  0.00    +0.000 HD
ENDBRANCH  15  18
ENDBRANCH  14  15
ENDBRANCH   4  14
ENDBRANCH   1   2
BRANCH   1  20
ATOM     20  C   UNL     1       3.035   7.720  17.827  0.00  0.00    +0.000 C 
BRANCH  20  21
ATOM     21  C   UNL     1       1.774   8.557  18.022  0.00  0.00    +0.000 C 
BRANCH  21  22
ATOM     22  O   UNL     1       1.975   9.826  17.389  0.00  0.00    +0.000 OA
ATOM     23  H   UNL     1       1.144  10.060  16.934  0.00  0.00    +0.000 HD
ENDBRANCH  21  22
BRANCH  21  24
ATOM     24  C   UNL     1       1.483   8.713  19.529  0.00  0.00    +0.000 C 
BRANCH  24  25
ATOM     25  O   UNL     1       1.093  10.062  19.821  0.00  0.00    +0.000 OA
BRANCH  25  26
ATOM     26  C   UNL     1      -0.176  10.167  20.319  0.00  0.00    +0.000 C 
ATOM     27  O   UNL     1      -0.507   9.901  21.462  0.00  0.00    +0.000 OA
BRANCH  26  28
ATOM     28  C   UNL     1      -1.094  10.763  19.276  0.00  0.00    +0.000 C 
BRANCH  28  29
ATOM     29  C   UNL     1      -1.163  12.269  19.444  0.00  0.00    +0.000 C 
BRANCH  29  30
ATOM     30  C   UNL     1      -0.307  12.994  18.418  0.00  0.00    +0.000 C 
BRANCH  30  31
ATOM     31  C   UNL     1       0.984  13.480  19.065  0.00  0.00    +0.000 C 
BRANCH  31  32
ATOM     32  C   UNL     1       2.103  13.532  18.038  0.00  0.00    +0.000 C 
BRANCH  32  33
ATOM     33  C   UNL     1       3.355  14.141  18.651  0.00  0.00    +0.000 C 
BRANCH  33  34
ATOM     34  C   UNL     1       3.843  15.304  17.800  0.00  0.00    +0.000 C 
BRANCH  34  36
ATOM     35  C   UNL     1       2.432  16.999  18.965  0.00  0.00    +0.000 C 
ATOM     36  C   UNL     1       3.848  16.594  18.609  0.00  0.00    +0.000 C 
ENDBRANCH  34  36
ENDBRANCH  33  34
ENDBRANCH  32  33
ENDBRANCH  31  32
ENDBRANCH  30  31
ENDBRANCH  29  30
ENDBRANCH  28  29
ENDBRANCH  26  28
ENDBRANCH  25  26
ENDBRANCH  24  25
ENDBRANCH  21  24
ENDBRANCH  20  21
ENDBRANCH   1  20
TORSDOF 21
ENDMDL
MODEL 3
REMARK VINA RESULT:      -5.9      1.888      3.637
REMARK  Name = 
REMARK  22 active torsions:
REMARK  status: ('A' for Active; 'I' for Inactive)
REMARK    1  A    between atoms: C_1  and  C_2
REMARK    2  A    between atoms: C_2  and  C_3
REMARK    3  A    between atoms: C_3  and  C_4
REMARK    4  A    between atoms: C_4  and  C_5
REMARK    5  A    between atoms: C_5  and  C_6
REMARK    6  A    between atoms: C_6  and  C_7
REMARK    7  A    between atoms: C_7  and  C_8
REMARK    8  A    between atoms: C_8  and  C_9
REMARK    9  A    between atoms: C_9  and  C_10
REMARK   10  A    between atoms: C_10  and  O_12
REMARK   11  A    between atoms: O_12  and  C_13
REMARK   12  A    between atoms: C_13  and  C_14
REMARK   13  A    between atoms: C_14  and  O_15
REMARK   14  A    between atoms: C_14  and  C_16
REMARK   15  A    between atoms: C_16  and  O_17
REMARK   16  A    between atoms: O_17  and  C_18
REMARK   17  A    between atoms: C_20  and  C_21
REMARK   18  A    between atoms: C_21  and  S_22
REMARK   19  A    between atoms: S_22  and  O_25
REMARK   20  A    between atoms: C_26  and  O_27
REMARK   21  A    between atoms: C_28  and  O_29
REMARK   22  A    between atoms: C_30  and  O_31
REMARK                            x       y       z     vdW  Elec       q    Type
REMARK                         _______ _______ _______ _____ _____    ______ ____
ROOT
ATOM      1  O   UNL     1       3.184   6.688  18.121  0.00  0.00    +0.000 OA
ENDROOT
BRANCH   1   2
ATOM      2  C   UNL     1       4.477   6.212  18.510  0.00  0.00    +0.000 C 
ATOM      3  O   UNL     1       4.392   5.216  19.528  0.00  0.00    +0.000 OA
ATOM      4  C   UNL     1       3.550   4.122  19.153  0.00  0.00    +0.000 C 
ATOM      5  C   UNL     1       4.183   3.372  17.990  0.00  0.00    +0.000 C 
ATOM      6  C   UNL     1       4.412   4.346  16.814  0.00  0.00    +0.000 C 
ATOM      7  C   UNL     1       5.176   5.601  17.284  0.00  0.00    +0.000 C 
BRANCH   7   8
ATOM      8  O   UNL     1       5.279   6.558  16.223  0.00  0.00    +0.000 OA
ATOM      9  H   UNL     1       5.999   7.171  16.467  0.00  0.00    +0.000 HD
ENDBRANCH   7   8
BRANCH   6  10
ATOM     10  O   UNL     1       5.128   3.680  15.767  0.00  0.00    +0.000 OA
ATOM     11  H   UNL     1       4.667   2.846  15.571  0.00  0.00    +0.000 HD
ENDBRANCH   6  10
BRANCH   5  12
ATOM     12  O   UNL     1       3.342   2.283  17.614  0.00  0.00    +0.000 OA
ATOM     13  H   UNL     1       2.418   2.500  17.844  0.00  0.00    +0.000 HD
ENDBRANCH   5  12
BRANCH   4  14
ATOM     14  C   UNL     1       3.276   3.241  20.366  0.00  0.00    +0.000 C 
BRANCH  14  15
ATOM     15  S   UNL     1       1.538   3.395  20.769  0.00  0.00    +0.000 S 
ATOM     16  O   UNL     1       1.243   2.634  21.977  0.00  0.00    +0.000 OA
ATOM     17  O   UNL     1       1.136   4.759  20.614  0.00  0.00    +0.000 OA
BRANCH  15  18
ATOM     18  O   UNL     1       0.940   2.509  19.559  0.00  0.00    +0.000 OA
ATOM     19  H   UNL     1       0.311   3.058  19.045  0.00  0.00    +0.000 HD
ENDBRANCH  15  18
ENDBRANCH  14  15
ENDBRANCH   4  14
ENDBRANCH   1   2
BRANCH   1  20
ATOM     20  C   UNL     1       3.229   8.048  17.695  0.00  0.00    +0.000 C 
BRANCH  20  21
ATOM     21  C   UNL     1       1.879   8.719  17.933  0.00  0.00    +0.000 C 
BRANCH  21  22
ATOM     22  O   UNL     1       1.921  10.030  17.357  0.00  0.00    +0.000 OA
ATOM     23  H   UNL     1       2.182  10.650  18.064  0.00  0.00    +0.000 HD
ENDBRANCH  21  22
BRANCH  21  24
ATOM     24  C   UNL     1       1.585   8.772  19.447  0.00  0.00    +0.000 C 
BRANCH  24  25
ATOM     25  O   UNL     1       0.958  10.015  19.787  0.00  0.00    +0.000 OA
BRANCH  25  26
ATOM     26  C   UNL     1      -0.293   9.869  20.320  0.00  0.00    +0.000 C 
ATOM     27  O   UNL     1      -0.643   8.956  21.049  0.00  0.00    +0.000 OA
BRANCH  26  28
ATOM     28  C   UNL     1      -1.152  11.059  19.962  0.00  0.00    +0.000 C 
BRANCH  28  29
ATOM     29  C   UNL     1      -1.060  11.339  18.473  0.00  0.00    +0.000 C 
BRANCH  29  30
ATOM     30  C   UNL     1      -1.678  10.223  17.647  0.00  0.00    +0.000 C 
BRANCH  30  31
ATOM     31  C   UNL     1      -3.163  10.101  17.966  0.00  0.00    +0.000 C 
BRANCH  31  32
ATOM     32  C   UNL     1      -3.970  11.052  17.097  0.00  0.00    +0.000 C 
BRANCH  32  33
ATOM     33  C   UNL     1      -4.951  11.844  17.950  0.00  0.00    +0.000 C 
BRANCH  33  34
ATOM     34  C   UNL     1      -6.300  11.142  17.986  0.00  0.00    +0.000 C 
BRANCH  34  36
ATOM     35  C   UNL     1      -7.061   9.286  19.469  0.00  0.00    +0.000 C 
ATOM     36  C   UNL     1      -6.658  10.745  19.412  0.00  0.00    +0.000 C 
ENDBRANCH  34  36
ENDBRANCH  33  34
ENDBRANCH  32  33
ENDBRANCH  31  32
ENDBRANCH  30  31
ENDBRANCH  29  30
ENDBRANCH  28  29
ENDBRANCH  26  28
ENDBRANCH  25  26
ENDBRANCH  24  25
ENDBRANCH  21  24
ENDBRANCH  20  21
ENDBRANCH   1  20
TORSDOF 21
ENDMDL
MODEL 4
REMARK VINA RESULT:      -5.8      2.538      3.294
REMARK  Name = 
REMARK  22 active torsions:
REMARK  status: ('A' for Active; 'I' for Inactive)
REMARK    1  A    between atoms: C_1  and  C_2
REMARK    2  A    between atoms: C_2  and  C_3
REMARK    3  A    between atoms: C_3  and  C_4
REMARK    4  A    between atoms: C_4  and  C_5
REMARK    5  A    between atoms: C_5  and  C_6
REMARK    6  A    between atoms: C_6  and  C_7
REMARK    7  A    between atoms: C_7  and  C_8
REMARK    8  A    between atoms: C_8  and  C_9
REMARK    9  A    between atoms: C_9  and  C_10
REMARK   10  A    between atoms: C_10  and  O_12
REMARK   11  A    between atoms: O_12  and  C_13
REMARK   12  A    between atoms: C_13  and  C_14
REMARK   13  A    between atoms: C_14  and  O_15
REMARK   14  A    between atoms: C_14  and  C_16
REMARK   15  A    between atoms: C_16  and  O_17
REMARK   16  A    between atoms: O_17  and  C_18
REMARK   17  A    between atoms: C_20  and  C_21
REMARK   18  A    between atoms: C_21  and  S_22
REMARK   19  A    between atoms: S_22  and  O_25
REMARK   20  A    between atoms: C_26  and  O_27
REMARK   21  A    between atoms: C_28  and  O_29
REMARK   22  A    between atoms: C_30  and  O_31
REMARK                            x       y       z     vdW  Elec       q    Type
REMARK                         _______ _______ _______ _____ _____    ______ ____
ROOT
ATOM      1  O   UNL     1       2.825   6.412  19.296  0.00  0.00    +0.000 OA
ENDROOT
BRANCH   1   2
ATOM      2  C   UNL     1       2.194   5.353  18.569  0.00  0.00    +0.000 C 
ATOM      3  O   UNL     1       3.037   4.837  17.540  0.00  0.00    +0.000 OA
ATOM      4  C   UNL     1       4.308   4.412  18.037  0.00  0.00    +0.000 C 
ATOM      5  C   UNL     1       4.117   3.214  18.957  0.00  0.00    +0.000 C 
ATOM      6  C   UNL     1       3.153   3.594  20.103  0.00  0.00    +0.000 C 
ATOM      7  C   UNL     1       1.854   4.211  19.543  0.00  0.00    +0.000 C 
BRANCH   7   8
ATOM      8  O   UNL     1       1.016   4.676  20.606  0.00  0.00    +0.000 OA
ATOM      9  H   UNL     1       0.707   3.884  21.087  0.00  0.00    +0.000 HD
ENDBRANCH   7   8
BRANCH   6  10
ATOM     10  O   UNL     1       2.864   2.436  20.894  0.00  0.00    +0.000 OA
ATOM     11  H   UNL     1       3.331   2.526  21.742  0.00  0.00    +0.000 HD
ENDBRANCH   6  10
BRANCH   5  12
ATOM     12  O   UNL     1       5.384   2.792  19.456  0.00  0.00    +0.000 OA
ATOM     13  H   UNL     1       5.720   3.462  20.082  0.00  0.00    +0.000 HD
ENDBRANCH   5  12
BRANCH   4  14
ATOM     14  C   UNL     1       5.253   4.139  16.874  0.00  0.00    +0.000 C 
BRANCH  14  15
ATOM     15  S   UNL     1       6.694   5.180  17.087  0.00  0.00    +0.000 S 
ATOM     16  O   UNL     1       7.480   5.191  15.859  0.00  0.00    +0.000 OA
ATOM     17  O   UNL     1       6.310   6.387  17.753  0.00  0.00    +0.000 OA
BRANCH  15  18
ATOM     18  O   UNL     1       7.517   4.233  18.103  0.00  0.00    +0.000 OA
ATOM     19  H   UNL     1       7.461   4.612  19.005  0.00  0.00    +0.000 HD
ENDBRANCH  15  18
ENDBRANCH  14  15
ENDBRANCH   4  14
ENDBRANCH   1   2
BRANCH   1  20
ATOM     20  C   UNL     1       2.171   7.661  19.084  0.00  0.00    +0.000 C 
BRANCH  20  21
ATOM     21  C   UNL     1       1.779   8.284  20.421  0.00  0.00    +0.000 C 
BRANCH  21  22
ATOM     22  O   UNL     1       1.006   7.326  21.154  0.00  0.00    +0.000 OA
ATOM     23  H   UNL     1       0.747   6.621  20.530  0.00  0.00    +0.000 HD
ENDBRANCH  21  22
BRANCH  21  24
ATOM     24  C   UNL     1       0.986   9.585  20.175  0.00  0.00    +0.000 C 
BRANCH  24  25
ATOM     25  O   UNL     1       0.692   9.729  18.779  0.00  0.00    +0.000 OA
BRANCH  25  26
ATOM     26  C   UNL     1      -0.540  10.269  18.534  0.00  0.00    +0.000 C 
ATOM     27  O   UNL     1      -1.238  10.015  17.567  0.00  0.00    +0.000 OA
BRANCH  26  28
ATOM     28  C   UNL     1      -0.962  11.146  19.690  0.00  0.00    +0.000 C 
BRANCH  28  29
ATOM     29  C   UNL     1      -0.656  12.599  19.380  0.00  0.00    +0.000 C 
BRANCH  29  30
ATOM     30  C   UNL     1       0.248  13.225  20.429  0.00  0.00    +0.000 C 
BRANCH  30  31
ATOM     31  C   UNL     1      -0.534  14.241  21.251  0.00  0.00    +0.000 C 
BRANCH  31  32
ATOM     32  C   UNL     1      -0.922  13.648  22.595  0.00  0.00    +0.000 C 
BRANCH  32  33
ATOM     33  C   UNL     1      -2.436  13.610  22.740  0.00  0.00    +0.000 C 
BRANCH  33  34
ATOM     34  C   UNL     1      -2.884  12.233  23.205  0.00  0.00    +0.000 C 
BRANCH  34  36
ATOM     35  C   UNL     1      -5.137  13.134  23.783  0.00  0.00    +0.000 C 
ATOM     36  C   UNL     1      -3.942  12.354  24.293  0.00  0.00    +0.000 C 
ENDBRANCH  34  36
ENDBRANCH  33  34
ENDBRANCH  32  33
ENDBRANCH  31  32
ENDBRANCH  30  31
ENDBRANCH  29  30
ENDBRANCH  28  29
ENDBRANCH  26  28
ENDBRANCH  25  26
ENDBRANCH  24  25
ENDBRANCH  21  24
ENDBRANCH  20  21
ENDBRANCH   1  20
TORSDOF 21
ENDMDL
MODEL 5
REMARK VINA RESULT:      -5.8      3.326      4.002
REMARK  Name = 
REMARK  22 active torsions:
REMARK  status: ('A' for Active; 'I' for Inactive)
REMARK    1  A    between atoms: C_1  and  C_2
REMARK    2  A    between atoms: C_2  and  C_3
REMARK    3  A    between atoms: C_3  and  C_4
REMARK    4  A    between atoms: C_4  and  C_5
REMARK    5  A    between atoms: C_5  and  C_6
REMARK    6  A    between atoms: C_6  and  C_7
REMARK    7  A    between atoms: C_7  and  C_8
REMARK    8  A    between atoms: C_8  and  C_9
REMARK    9  A    between atoms: C_9  and  C_10
REMARK   10  A    between atoms: C_10  and  O_12
REMARK   11  A    between atoms: O_12  and  C_13
REMARK   12  A    between atoms: C_13  and  C_14
REMARK   13  A    between atoms: C_14  and  O_15
REMARK   14  A    between atoms: C_14  and  C_16
REMARK   15  A    between atoms: C_16  and  O_17
REMARK   16  A    between atoms: O_17  and  C_18
REMARK   17  A    between atoms: C_20  and  C_21
REMARK   18  A    between atoms: C_21  and  S_22
REMARK   19  A    between atoms: S_22  and  O_25
REMARK   20  A    between atoms: C_26  and  O_27
REMARK   21  A    between atoms: C_28  and  O_29
REMARK   22  A    between atoms: C_30  and  O_31
REMARK                            x       y       z     vdW  Elec       q    Type
REMARK                         _______ _______ _______ _____ _____    ______ ____
ROOT
ATOM      1  O   UNL     1       2.821   6.471  19.144  0.00  0.00    +0.000 OA
ENDROOT
BRANCH   1   2
ATOM      2  C   UNL     1       2.247   5.402  18.385  0.00  0.00    +0.000 C 
ATOM      3  O   UNL     1       3.159   4.888  17.415  0.00  0.00    +0.000 OA
ATOM      4  C   UNL     1       4.399   4.476  17.996  0.00  0.00    +0.000 C 
ATOM      5  C   UNL     1       4.159   3.282  18.909  0.00  0.00    +0.000 C 
ATOM      6  C   UNL     1       3.119   3.661  19.987  0.00  0.00    +0.000 C 
ATOM      7  C   UNL     1       1.854   4.263  19.341  0.00  0.00    +0.000 C 
BRANCH   7   8
ATOM      8  O   UNL     1       0.946   4.726  20.345  0.00  0.00    +0.000 OA
ATOM      9  H   UNL     1       1.332   4.482  21.208  0.00  0.00    +0.000 HD
ENDBRANCH   7   8
BRANCH   6  10
ATOM     10  O   UNL     1       2.789   2.504  20.766  0.00  0.00    +0.000 OA
ATOM     11  H   UNL     1       1.822   2.469  20.857  0.00  0.00    +0.000 HD
ENDBRANCH   6  10
BRANCH   5  12
ATOM     12  O   UNL     1       5.395   2.874  19.492  0.00  0.00    +0.000 OA
ATOM     13  H   UNL     1       6.066   3.565  19.333  0.00  0.00    +0.000 HD
ENDBRANCH   5  12
BRANCH   4  14
ATOM     14  C   UNL     1       5.420   4.205  16.898  0.00  0.00    +0.000 C 
BRANCH  14  15
ATOM     15  S   UNL     1       6.874   5.189  17.251  0.00  0.00    +0.000 S 
ATOM     16  O   UNL     1       8.051   4.331  17.293  0.00  0.00    +0.000 OA
ATOM     17  O   UNL     1       6.834   6.386  16.468  0.00  0.00    +0.000 OA
BRANCH  15  18
ATOM     18  O   UNL     1       6.550   5.535  18.795  0.00  0.00    +0.000 OA
ATOM     19  H   UNL     1       6.235   4.722  19.242  0.00  0.00    +0.000 HD
ENDBRANCH  15  18
ENDBRANCH  14  15
ENDBRANCH   4  14
ENDBRANCH   1   2
BRANCH   1  20
ATOM     20  C   UNL     1       2.237   7.728  18.811  0.00  0.00    +0.000 C 
BRANCH  20  21
ATOM     21  C   UNL     1       1.786   8.451  20.077  0.00  0.00    +0.000 C 
BRANCH  21  22
ATOM     22  O   UNL     1       1.172   7.493  20.947  0.00  0.00    +0.000 OA
ATOM     23  H   UNL     1       0.213   7.676  20.952  0.00  0.00    +0.000 HD
ENDBRANCH  21  22
BRANCH  21  24
ATOM     24  C   UNL     1       0.811   9.589  19.706  0.00  0.00    +0.000 C 
BRANCH  24  25
ATOM     25  O   UNL     1       0.294  10.204  20.893  0.00  0.00    +0.000 OA
BRANCH  25  26
ATOM     26  C   UNL     1      -0.419  11.345  20.650  0.00  0.00    +0.000 C 
ATOM     27  O   UNL     1      -1.397  11.422  19.926  0.00  0.00    +0.000 OA
BRANCH  26  28
ATOM     28  C   UNL     1       0.116  12.480  21.493  0.00  0.00    +0.000 C 
BRANCH  28  29
ATOM     29  C   UNL     1      -1.001  13.080  22.326  0.00  0.00    +0.000 C 
BRANCH  29  30
ATOM     30  C   UNL     1      -1.737  12.024  23.134  0.00  0.00    +0.000 C 
BRANCH  30  31
ATOM     31  C   UNL     1      -3.241  12.250  23.040  0.00  0.00    +0.000 C 
BRANCH  31  32
ATOM     32  C   UNL     1      -3.759  12.894  24.315  0.00  0.00    +0.000 C 
BRANCH  32  33
ATOM     33  C   UNL     1      -4.476  14.198  23.997  0.00  0.00    +0.000 C 
BRANCH  33  34
ATOM     34  C   UNL     1      -3.587  15.383  24.340  0.00  0.00    +0.000 C 
BRANCH  34  36
ATOM     35  C   UNL     1      -1.256  15.486  25.223  0.00  0.00    +0.000 C 
ATOM     36  C   UNL     1      -2.676  15.046  25.514  0.00  0.00    +0.000 C 
ENDBRANCH  34  36
ENDBRANCH  33  34
ENDBRANCH  32  33
ENDBRANCH  31  32
ENDBRANCH  30  31
ENDBRANCH  29  30
ENDBRANCH  28  29
ENDBRANCH  26  28
ENDBRANCH  25  26
ENDBRANCH  24  25
ENDBRANCH  21  24
ENDBRANCH  20  21
ENDBRANCH   1  20
TORSDOF 21
ENDMDL
MODEL 6
REMARK VINA RESULT:      -5.8      1.384      1.764
REMARK  Name = 
REMARK  22 active torsions:
REMARK  status: ('A' for Active; 'I' for Inactive)
REMARK    1  A    between atoms: C_1  and  C_2
REMARK    2  A    between atoms: C_2  and  C_3
REMARK    3  A    between atoms: C_3  and  C_4
REMARK    4  A    between atoms: C_4  and  C_5
REMARK    5  A    between atoms: C_5  and  C_6
REMARK    6  A    between atoms: C_6  and  C_7
REMARK    7  A    between atoms: C_7  and  C_8
REMARK    8  A    between atoms: C_8  and  C_9
REMARK    9  A    between atoms: C_9  and  C_10
REMARK   10  A    between atoms: C_10  and  O_12
REMARK   11  A    between atoms: O_12  and  C_13
REMARK   12  A    between atoms: C_13  and  C_14
REMARK   13  A    between atoms: C_14  and  O_15
REMARK   14  A    between atoms: C_14  and  C_16
REMARK   15  A    between atoms: C_16  and  O_17
REMARK   16  A    between atoms: O_17  and  C_18
REMARK   17  A    between atoms: C_20  and  C_21
REMARK   18  A    between atoms: C_21  and  S_22
REMARK   19  A    between atoms: S_22  and  O_25
REMARK   20  A    between atoms: C_26  and  O_27
REMARK   21  A    between atoms: C_28  and  O_29
REMARK   22  A    between atoms: C_30  and  O_31
REMARK                            x       y       z     vdW  Elec       q    Type
REMARK                         _______ _______ _______ _____ _____    ______ ____
ROOT
ATOM      1  O   UNL     1       2.299   5.810  19.036  0.00  0.00    +0.000 OA
ENDROOT
BRANCH   1   2
ATOM      2  C   UNL     1       2.714   5.281  17.773  0.00  0.00    +0.000 C 
ATOM      3  O   UNL     1       4.133   5.301  17.629  0.00  0.00    +0.000 OA
ATOM      4  C   UNL     1       4.801   4.624  18.697  0.00  0.00    +0.000 C 
ATOM      5  C   UNL     1       4.471   3.139  18.640  0.00  0.00    +0.000 C 
ATOM      6  C   UNL     1       2.939   2.950  18.711  0.00  0.00    +0.000 C 
ATOM      7  C   UNL     1       2.230   3.825  17.657  0.00  0.00    +0.000 C 
BRANCH   7   8
ATOM      8  O   UNL     1       0.809   3.744  17.806  0.00  0.00    +0.000 OA
ATOM      9  H   UNL     1       0.595   4.126  18.679  0.00  0.00    +0.000 HD
ENDBRANCH   7   8
BRANCH   6  10
ATOM     10  O   UNL     1       2.615   1.568  18.524  0.00  0.00    +0.000 OA
ATOM     11  H   UNL     1       2.673   1.125  19.387  0.00  0.00    +0.000 HD
ENDBRANCH   6  10
BRANCH   5  12
ATOM     12  O   UNL     1       5.133   2.464  19.708  0.00  0.00    +0.000 OA
ATOM     13  H   UNL     1       5.934   2.967  19.954  0.00  0.00    +0.000 HD
ENDBRANCH   5  12
BRANCH   4  14
ATOM     14  C   UNL     1       6.295   4.916  18.641  0.00  0.00    +0.000 C 
BRANCH  14  15
ATOM     15  S   UNL     1       6.843   4.626  16.961  0.00  0.00    +0.000 S 
ATOM     16  O   UNL     1       8.257   4.272  16.958  0.00  0.00    +0.000 OA
ATOM     17  O   UNL     1       5.863   3.843  16.273  0.00  0.00    +0.000 OA
BRANCH  15  18
ATOM     18  O   UNL     1       6.792   6.152  16.434  0.00  0.00    +0.000 OA
ATOM     19  H   UNL     1       7.688   6.414  16.136  0.00  0.00    +0.000 HD
ENDBRANCH  15  18
ENDBRANCH  14  15
ENDBRANCH   4  14
ENDBRANCH   1   2
BRANCH   1  20
ATOM     20  C   UNL     1       2.276   7.236  19.029  0.00  0.00    +0.000 C 
BRANCH  20  21
ATOM     21  C   UNL     1       1.993   7.765  20.432  0.00  0.00    +0.000 C 
BRANCH  21  22
ATOM     22  O   UNL     1       1.768   6.646  21.298  0.00  0.00    +0.000 OA
ATOM     23  H   UNL     1       1.501   6.999  22.168  0.00  0.00    +0.000 HD
ENDBRANCH  21  22
BRANCH  21  24
ATOM     24  C   UNL     1       0.772   8.709  20.395  0.00  0.00    +0.000 C 
BRANCH  24  25
ATOM     25  O   UNL     1       1.200  10.076  20.444  0.00  0.00    +0.000 OA
BRANCH  25  26
ATOM     26  C   UNL     1       0.591  10.873  19.516  0.00  0.00    +0.000 C 
ATOM     27  O   UNL     1       1.109  11.827  18.960  0.00  0.00    +0.000 OA
BRANCH  26  28
ATOM     28  C   UNL     1      -0.786  10.337  19.196  0.00  0.00    +0.000 C 
BRANCH  28  29
ATOM     29  C   UNL     1      -1.418  11.155  18.086  0.00  0.00    +0.000 C 
BRANCH  29  30
ATOM     30  C   UNL     1      -2.125  10.277  17.066  0.00  0.00    +0.000 C 
BRANCH  30  31
ATOM     31  C   UNL     1      -3.527   9.937  17.554  0.00  0.00    +0.000 C 
BRANCH  31  32
ATOM     32  C   UNL     1      -4.221  11.183  18.080  0.00  0.00    +0.000 C 
BRANCH  32  33
ATOM     33  C   UNL     1      -5.481  11.466  17.276  0.00  0.00    +0.000 C 
BRANCH  33  34
ATOM     34  C   UNL     1      -6.687  11.540  18.200  0.00  0.00    +0.000 C 
BRANCH  34  36
ATOM     35  C   UNL     1      -7.566  10.597  20.335  0.00  0.00    +0.000 C 
ATOM     36  C   UNL     1      -6.756  10.305  19.089  0.00  0.00    +0.000 C 
ENDBRANCH  34  36
ENDBRANCH  33  34
ENDBRANCH  32  33
ENDBRANCH  31  32
ENDBRANCH  30  31
ENDBRANCH  29  30
ENDBRANCH  28  29
ENDBRANCH  26  28
ENDBRANCH  25  26
ENDBRANCH  24  25
ENDBRANCH  21  24
ENDBRANCH  20  21
ENDBRANCH   1  20
TORSDOF 21
ENDMDL
MODEL 7
REMARK VINA RESULT:      -5.8      2.959      3.966
REMARK  Name = 
REMARK  22 active torsions:
REMARK  status: ('A' for Active; 'I' for Inactive)
REMARK    1  A    between atoms: C_1  and  C_2
REMARK    2  A    between atoms: C_2  and  C_3
REMARK    3  A    between atoms: C_3  and  C_4
REMARK    4  A    between atoms: C_4  and  C_5
REMARK    5  A    between atoms: C_5  and  C_6
REMARK    6  A    between atoms: C_6  and  C_7
REMARK    7  A    between atoms: C_7  and  C_8
REMARK    8  A    between atoms: C_8  and  C_9
REMARK    9  A    between atoms: C_9  and  C_10
REMARK   10  A    between atoms: C_10  and  O_12
REMARK   11  A    between atoms: O_12  and  C_13
REMARK   12  A    between atoms: C_13  and  C_14
REMARK   13  A    between atoms: C_14  and  O_15
REMARK   14  A    between atoms: C_14  and  C_16
REMARK   15  A    between atoms: C_16  and  O_17
REMARK   16  A    between atoms: O_17  and  C_18
REMARK   17  A    between atoms: C_20  and  C_21
REMARK   18  A    between atoms: C_21  and  S_22
REMARK   19  A    between atoms: S_22  and  O_25
REMARK   20  A    between atoms: C_26  and  O_27
REMARK   21  A    between atoms: C_28  and  O_29
REMARK   22  A    between atoms: C_30  and  O_31
REMARK                            x       y       z     vdW  Elec       q    Type
REMARK                         _______ _______ _______ _____ _____    ______ ____
ROOT
ATOM      1  O   UNL     1       2.736   5.466  19.474  0.00  0.00    +0.000 OA
ENDROOT
BRANCH   1   2
ATOM      2  C   UNL     1       2.008   4.962  18.350  0.00  0.00    +0.000 C 
ATOM      3  O   UNL     1       2.866   4.670  17.248  0.00  0.00    +0.000 OA
ATOM      4  C   UNL     1       3.921   3.772  17.600  0.00  0.00    +0.000 C 
ATOM      5  C   UNL     1       3.333   2.412  17.948  0.00  0.00    +0.000 C 
ATOM      6  C   UNL     1       2.311   2.572  19.096  0.00  0.00    +0.000 C 
ATOM      7  C   UNL     1       1.281   3.671  18.762  0.00  0.00    +0.000 C 
BRANCH   7   8
ATOM      8  O   UNL     1       0.411   3.904  19.874  0.00  0.00    +0.000 OA
ATOM      9  H   UNL     1       0.164   4.848  19.844  0.00  0.00    +0.000 HD
ENDBRANCH   7   8
BRANCH   6  10
ATOM     10  O   UNL     1       1.657   1.321  19.337  0.00  0.00    +0.000 OA
ATOM     11  H   UNL     1       0.847   1.498  19.845  0.00  0.00    +0.000 HD
ENDBRANCH   6  10
BRANCH   5  12
ATOM     12  O   UNL     1       4.385   1.517  18.303  0.00  0.00    +0.000 OA
ATOM     13  H   UNL     1       4.008   0.632  18.472  0.00  0.00    +0.000 HD
ENDBRANCH   5  12
BRANCH   4  14
ATOM     14  C   UNL     1       4.951   3.719  16.479  0.00  0.00    +0.000 C 
BRANCH  14  15
ATOM     15  S   UNL     1       6.031   5.135  16.664  0.00  0.00    +0.000 S 
ATOM     16  O   UNL     1       7.413   4.688  16.789  0.00  0.00    +0.000 OA
ATOM     17  O   UNL     1       5.642   6.149  15.733  0.00  0.00    +0.000 OA
BRANCH  15  18
ATOM     18  O   UNL     1       5.593   5.567  18.157  0.00  0.00    +0.000 OA
ATOM     19  H   UNL     1       6.395   5.629  18.717  0.00  0.00    +0.000 HD
ENDBRANCH  15  18
ENDBRANCH  14  15
ENDBRANCH   4  14
ENDBRANCH   1   2
BRANCH   1  20
ATOM     20  C   UNL     1       2.532   6.866  19.653  0.00  0.00    +0.000 C 
BRANCH  20  21
ATOM     21  C   UNL     1       2.371   7.552  18.300  0.00  0.00    +0.000 C 
BRANCH  21  22
ATOM     22  O   UNL     1       3.656   7.609  17.670  0.00  0.00    +0.000 OA
ATOM     23  H   UNL     1       4.322   7.718  18.374  0.00  0.00    +0.000 HD
ENDBRANCH  21  22
BRANCH  21  24
ATOM     24  C   UNL     1       1.774   8.961  18.500  0.00  0.00    +0.000 C 
BRANCH  24  25
ATOM     25  O   UNL     1       1.225   9.083  19.819  0.00  0.00    +0.000 OA
BRANCH  25  26
ATOM     26  C   UNL     1       0.231  10.018  19.913  0.00  0.00    +0.000 C 
ATOM     27  O   UNL     1      -0.691  10.143  19.126  0.00  0.00    +0.000 OA
BRANCH  26  28
ATOM     28  C   UNL     1       0.382  10.808  21.192  0.00  0.00    +0.000 C 
BRANCH  28  29
ATOM     29  C   UNL     1      -0.128   9.996  22.368  0.00  0.00    +0.000 C 
BRANCH  29  30
ATOM     30  C   UNL     1      -1.179  10.750  23.166  0.00  0.00    +0.000 C 
BRANCH  30  31
ATOM     31  C   UNL     1      -1.890  11.757  22.271  0.00  0.00    +0.000 C 
BRANCH  31  32
ATOM     32  C   UNL     1      -2.345  12.958  23.083  0.00  0.00    +0.000 C 
BRANCH  32  33
ATOM     33  C   UNL     1      -1.146  13.791  23.512  0.00  0.00    +0.000 C 
BRANCH  33  34
ATOM     34  C   UNL     1      -0.535  14.490  22.307  0.00  0.00    +0.000 C 
BRANCH  34  36
ATOM     35  C   UNL     1      -1.620  16.450  23.403  0.00  0.00    +0.000 C 
ATOM     36  C   UNL     1      -0.461  15.993  22.540  0.00  0.00    +0.000 C 
ENDBRANCH  34  36
ENDBRANCH  33  34
ENDBRANCH  32  33
ENDBRANCH  31  32
ENDBRANCH  30  31
ENDBRANCH  29  30
ENDBRANCH  28  29
ENDBRANCH  26  28
ENDBRANCH  25  26
ENDBRANCH  24  25
ENDBRANCH  21  24
ENDBRANCH  20  21
ENDBRANCH   1  20
TORSDOF 21
ENDMDL
MODEL 8
REMARK VINA RESULT:      -5.8      2.631      5.198
REMARK  Name = 
REMARK  22 active torsions:
REMARK  status: ('A' for Active; 'I' for Inactive)
REMARK    1  A    between atoms: C_1  and  C_2
REMARK    2  A    between atoms: C_2  and  C_3
REMARK    3  A    between atoms: C_3  and  C_4
REMARK    4  A    between atoms: C_4  and  C_5
REMARK    5  A    between atoms: C_5  and  C_6
REMARK    6  A    between atoms: C_6  and  C_7
REMARK    7  A    between atoms: C_7  and  C_8
REMARK    8  A    between atoms: C_8  and  C_9
REMARK    9  A    between atoms: C_9  and  C_10
REMARK   10  A    between atoms: C_10  and  O_12
REMARK   11  A    between atoms: O_12  and  C_13
REMARK   12  A    between atoms: C_13  and  C_14
REMARK   13  A    between atoms: C_14  and  O_15
REMARK   14  A    between atoms: C_14  and  C_16
REMARK   15  A    between atoms: C_16  and  O_17
REMARK   16  A    between atoms: O_17  and  C_18
REMARK   17  A    between atoms: C_20  and  C_21
REMARK   18  A    between atoms: C_21  and  S_22
REMARK   19  A    between atoms: S_22  and  O_25
REMARK   20  A    between atoms: C_26  and  O_27
REMARK   21  A    between atoms: C_28  and  O_29
REMARK   22  A    between atoms: C_30  and  O_31
REMARK                            x       y       z     vdW  Elec       q    Type
REMARK                         _______ _______ _______ _____ _____    ______ ____
ROOT
ATOM      1  O   UNL     1       2.849   6.428  19.090  0.00  0.00    +0.000 OA
ENDROOT
BRANCH   1   2
ATOM      2  C   UNL     1       2.217   5.340  18.407  0.00  0.00    +0.000 C 
ATOM      3  O   UNL     1       3.062   4.777  17.405  0.00  0.00    +0.000 OA
ATOM      4  C   UNL     1       4.330   4.369  17.926  0.00  0.00    +0.000 C 
ATOM      5  C   UNL     1       4.130   3.213  18.896  0.00  0.00    +0.000 C 
ATOM      6  C   UNL     1       3.163   3.647  20.020  0.00  0.00    +0.000 C 
ATOM      7  C   UNL     1       1.869   4.243  19.428  0.00  0.00    +0.000 C 
BRANCH   7   8
ATOM      8  O   UNL     1       1.028   4.757  20.466  0.00  0.00    +0.000 OA
ATOM      9  H   UNL     1       0.825   4.009  21.060  0.00  0.00    +0.000 HD
ENDBRANCH   7   8
BRANCH   6  10
ATOM     10  O   UNL     1       2.866   2.525  20.859  0.00  0.00    +0.000 OA
ATOM     11  H   UNL     1       1.914   2.542  21.058  0.00  0.00    +0.000 HD
ENDBRANCH   6  10
BRANCH   5  12
ATOM     12  O   UNL     1       5.394   2.809  19.418  0.00  0.00    +0.000 OA
ATOM     13  H   UNL     1       5.597   1.909  19.099  0.00  0.00    +0.000 HD
ENDBRANCH   5  12
BRANCH   4  14
ATOM     14  C   UNL     1       5.279   4.042  16.780  0.00  0.00    +0.000 C 
BRANCH  14  15
ATOM     15  S   UNL     1       6.729   5.077  16.961  0.00  0.00    +0.000 S 
ATOM     16  O   UNL     1       7.555   4.982  15.763  0.00  0.00    +0.000 OA
ATOM     17  O   UNL     1       6.343   6.337  17.518  0.00  0.00    +0.000 OA
BRANCH  15  18
ATOM     18  O   UNL     1       7.502   4.200  18.075  0.00  0.00    +0.000 OA
ATOM     19  H   UNL     1       7.371   3.250  17.876  0.00  0.00    +0.000 HD
ENDBRANCH  15  18
ENDBRANCH  14  15
ENDBRANCH   4  14
ENDBRANCH   1   2
BRANCH   1  20
ATOM     20  C   UNL     1       2.223   7.674  18.793  0.00  0.00    +0.000 C 
BRANCH  20  21
ATOM     21  C   UNL     1       1.912   8.428  20.082  0.00  0.00    +0.000 C 
BRANCH  21  22
ATOM     22  O   UNL     1       1.482   7.479  21.065  0.00  0.00    +0.000 OA
ATOM     23  H   UNL     1       1.786   6.598  20.773  0.00  0.00    +0.000 HD
ENDBRANCH  21  22
BRANCH  21  24
ATOM     24  C   UNL     1       0.829   9.494  19.811  0.00  0.00    +0.000 C 
BRANCH  24  25
ATOM     25  O   UNL     1       0.568   9.589  18.405  0.00  0.00    +0.000 OA
BRANCH  25  26
ATOM     26  C   UNL     1      -0.630  10.179  18.111  0.00  0.00    +0.000 C 
ATOM     27  O   UNL     1      -1.404   9.804  17.246  0.00  0.00    +0.000 OA
BRANCH  26  28
ATOM     28  C   UNL     1      -0.908  11.301  19.084  0.00  0.00    +0.000 C 
BRANCH  28  29
ATOM     29  C   UNL     1      -0.732  12.642  18.397  0.00  0.00    +0.000 C 
BRANCH  29  30
ATOM     30  C   UNL     1       0.423  13.435  18.988  0.00  0.00    +0.000 C 
BRANCH  30  31
ATOM     31  C   UNL     1       1.731  13.021  18.326  0.00  0.00    +0.000 C 
BRANCH  31  32
ATOM     32  C   UNL     1       2.656  14.219  18.188  0.00  0.00    +0.000 C 
BRANCH  32  33
ATOM     33  C   UNL     1       3.553  14.340  19.411  0.00  0.00    +0.000 C 
BRANCH  33  34
ATOM     34  C   UNL     1       4.684  15.319  19.137  0.00  0.00    +0.000 C 
BRANCH  34  36
ATOM     35  C   UNL     1       5.080  14.654  21.508  0.00  0.00    +0.000 C 
ATOM     36  C   UNL     1       5.682  15.319  20.287  0.00  0.00    +0.000 C 
ENDBRANCH  34  36
ENDBRANCH  33  34
ENDBRANCH  32  33
ENDBRANCH  31  32
ENDBRANCH  30  31
ENDBRANCH  29  30
ENDBRANCH  28  29
ENDBRANCH  26  28
ENDBRANCH  25  26
ENDBRANCH  24  25
ENDBRANCH  21  24
ENDBRANCH  20  21
ENDBRANCH   1  20
TORSDOF 21
ENDMDL
MODEL 9
REMARK VINA RESULT:      -5.8      2.806      4.641
REMARK  Name = 
REMARK  22 active torsions:
REMARK  status: ('A' for Active; 'I' for Inactive)
REMARK    1  A    between atoms: C_1  and  C_2
REMARK    2  A    between atoms: C_2  and  C_3
REMARK    3  A    between atoms: C_3  and  C_4
REMARK    4  A    between atoms: C_4  and  C_5
REMARK    5  A    between atoms: C_5  and  C_6
REMARK    6  A    between atoms: C_6  and  C_7
REMARK    7  A    between atoms: C_7  and  C_8
REMARK    8  A    between atoms: C_8  and  C_9
REMARK    9  A    between atoms: C_9  and  C_10
REMARK   10  A    between atoms: C_10  and  O_12
REMARK   11  A    between atoms: O_12  and  C_13
REMARK   12  A    between atoms: C_13  and  C_14
REMARK   13  A    between atoms: C_14  and  O_15
REMARK   14  A    between atoms: C_14  and  C_16
REMARK   15  A    between atoms: C_16  and  O_17
REMARK   16  A    between atoms: O_17  and  C_18
REMARK   17  A    between atoms: C_20  and  C_21
REMARK   18  A    between atoms: C_21  and  S_22
REMARK   19  A    between atoms: S_22  and  O_25
REMARK   20  A    between atoms: C_26  and  O_27
REMARK   21  A    between atoms: C_28  and  O_29
REMARK   22  A    between atoms: C_30  and  O_31
REMARK                            x       y       z     vdW  Elec       q    Type
REMARK                         _______ _______ _______ _____ _____    ______ ____
ROOT
ATOM      1  O   UNL     1       2.898   6.611  17.966  0.00  0.00    +0.000 OA
ENDROOT
BRANCH   1   2
ATOM      2  C   UNL     1       4.250   6.364  18.364  0.00  0.00    +0.000 C 
ATOM      3  O   UNL     1       4.333   5.367  19.381  0.00  0.00    +0.000 OA
ATOM      4  C   UNL     1       3.695   4.145  19.000  0.00  0.00    +0.000 C 
ATOM      5  C   UNL     1       4.455   3.517  17.840  0.00  0.00    +0.000 C 
ATOM      6  C   UNL     1       4.520   4.519  16.666  0.00  0.00    +0.000 C 
ATOM      7  C   UNL     1       5.053   5.886  17.141  0.00  0.00    +0.000 C 
BRANCH   7   8
ATOM      8  O   UNL     1       4.996   6.848  16.083  0.00  0.00    +0.000 OA
ATOM      9  H   UNL     1       4.083   6.827  15.734  0.00  0.00    +0.000 HD
ENDBRANCH   7   8
BRANCH   6  10
ATOM     10  O   UNL     1       5.347   3.988  15.624  0.00  0.00    +0.000 OA
ATOM     11  H   UNL     1       4.940   3.164  15.307  0.00  0.00    +0.000 HD
ENDBRANCH   6  10
BRANCH   5  12
ATOM     12  O   UNL     1       3.817   2.300  17.457  0.00  0.00    +0.000 OA
ATOM     13  H   UNL     1       3.844   1.677  18.208  0.00  0.00    +0.000 HD
ENDBRANCH   5  12
BRANCH   4  14
ATOM     14  C   UNL     1       3.569   3.228  20.210  0.00  0.00    +0.000 C 
BRANCH  14  15
ATOM     15  S   UNL     1       2.067   3.673  21.077  0.00  0.00    +0.000 S 
ATOM     16  O   UNL     1       0.942   3.662  20.151  0.00  0.00    +0.000 OA
ATOM     17  O   UNL     1       2.025   2.986  22.331  0.00  0.00    +0.000 OA
BRANCH  15  18
ATOM     18  O   UNL     1       2.395   5.235  21.321  0.00  0.00    +0.000 OA
ATOM     19  H   UNL     1       1.784   5.776  20.777  0.00  0.00    +0.000 HD
ENDBRANCH  15  18
ENDBRANCH  14  15
ENDBRANCH   4  14
ENDBRANCH   1   2
BRANCH   1  20
ATOM     20  C   UNL     1       2.315   7.679  18.709  0.00  0.00    +0.000 C 
BRANCH  20  21
ATOM     21  C   UNL     1       1.789   8.754  17.761  0.00  0.00    +0.000 C 
BRANCH  21  22
ATOM     22  O   UNL     1       2.870   9.639  17.442  0.00  0.00    +0.000 OA
ATOM     23  H   UNL     1       3.580   9.478  18.091  0.00  0.00    +0.000 HD
ENDBRANCH  21  22
BRANCH  21  24
ATOM     24  C   UNL     1       0.617   9.505  18.428  0.00  0.00    +0.000 C 
BRANCH  24  25
ATOM     25  O   UNL     1      -0.456   9.678  17.493  0.00  0.00    +0.000 OA
BRANCH  25  26
ATOM     26  C   UNL     1      -1.631  10.063  18.076  0.00  0.00    +0.000 C 
ATOM     27  O   UNL     1      -2.734   9.636  17.782  0.00  0.00    +0.000 OA
BRANCH  26  28
ATOM     28  C   UNL     1      -1.357  11.019  19.214  0.00  0.00    +0.000 C 
BRANCH  28  29
ATOM     29  C   UNL     1      -1.853  12.408  18.859  0.00  0.00    +0.000 C 
BRANCH  29  30
ATOM     30  C   UNL     1      -1.398  13.448  19.870  0.00  0.00    +0.000 C 
BRANCH  30  31
ATOM     31  C   UNL     1      -0.861  12.761  21.119  0.00  0.00    +0.000 C 
BRANCH  31  32
ATOM     32  C   UNL     1      -1.907  12.780  22.223  0.00  0.00    +0.000 C 
BRANCH  32  33
ATOM     33  C   UNL     1      -1.782  11.537  23.091  0.00  0.00    +0.000 C 
BRANCH  33  34
ATOM     34  C   UNL     1      -0.473  10.821  22.796  0.00  0.00    +0.000 C 
BRANCH  34  36
ATOM     35  C   UNL     1      -0.399   8.537  21.796  0.00  0.00    +0.000 C 
ATOM     36  C   UNL     1      -0.605   9.329  23.071  0.00  0.00    +0.000 C 
ENDBRANCH  34  36
ENDBRANCH  33  34
ENDBRANCH  32  33
ENDBRANCH  31  32
ENDBRANCH  30  31
ENDBRANCH  29  30
ENDBRANCH  28  29
ENDBRANCH  26  28
ENDBRANCH  25  26
ENDBRANCH  24  25
ENDBRANCH  21  24
ENDBRANCH  20  21
ENDBRANCH   1  20
TORSDOF 21
ENDMDL
