MODEL 1
REMARK VINA RESULT:      -7.7      0.000      0.000
REMARK  Name = 
REMARK  10 active torsions:
REMARK  status: ('A' for Active; 'I' for Inactive)
REMARK    1  A    between atoms: C_1  and  C_2
REMARK    2  A    between atoms: C_2  and  C_3
REMARK    3  A    between atoms: C_3  and  N_4
REMARK    4  A    between atoms: N_4  and  S_5
REMARK    5  A    between atoms: S_5  and  C_8
REMARK    6  A    between atoms: C_11  and  C_12
REMARK    7  A    between atoms: C_12  and  C_13
REMARK    8  A    between atoms: C_13  and  C_14
REMARK    9  A    between atoms: N_16  and  C_17
REMARK   10  A    between atoms: C_17  and  C_18
REMARK                            x       y       z     vdW  Elec       q    Type
REMARK                         _______ _______ _______ _____ _____    ______ ____
ROOT
ATOM      1  C   UNL     1       1.384   3.938  18.294  0.00  0.00    +0.000 C 
ENDROOT
BRANCH   1   5
ATOM      2  C   UNL     1       5.514   5.041  17.785  0.00  0.00    +0.000 A 
ATOM      3  C   UNL     1       4.516   5.949  17.431  0.00  0.00    +0.000 A 
ATOM      4  C   UNL     1       3.178   5.584  17.589  0.00  0.00    +0.000 A 
ATOM      5  C   UNL     1       2.832   4.316  18.088  0.00  0.00    +0.000 A 
ATOM      6  C   UNL     1       3.851   3.408  18.412  0.00  0.00    +0.000 A 
ATOM      7  C   UNL     1       5.190   3.764  18.250  0.00  0.00    +0.000 A 
BRANCH   2   8
ATOM      8  S   UNL     1       7.228   5.488  17.630  0.00  0.00    +0.000 S 
ATOM      9  O   UNL     1       8.039   4.367  18.050  0.00  0.00    +0.000 OA
ATOM     10  O   UNL     1       7.363   6.804  18.216  0.00  0.00    +0.000 OA
BRANCH   8  11
ATOM     11  N   UNL     1       7.390   5.670  15.948  0.00  0.00    +0.000 NA
ATOM     12  H   UNL     1       6.874   6.485  15.622  0.00  0.00    +0.000 HD
BRANCH  11  13
ATOM     13  C   UNL     1       7.174   4.456  15.142  0.00  0.00    +0.000 C 
BRANCH  13  15
ATOM     14  C   UNL     1       6.026   3.675  13.055  0.00  0.00    +0.000 C 
ATOM     15  C   UNL     1       5.992   4.675  14.199  0.00  0.00    +0.000 C 
ENDBRANCH  13  15
ENDBRANCH  11  13
ENDBRANCH   8  11
ENDBRANCH   2   8
ENDBRANCH   1   5
BRANCH   1  16
ATOM     16  C   UNL     1       1.083   3.580  19.745  0.00  0.00    +0.000 C 
BRANCH  16  17
ATOM     17  C   UNL     1       1.638   4.601  20.712  0.00  0.00    +0.000 C 
ATOM     18  O   UNL     1       2.370   4.321  21.659  0.00  0.00    +0.000 OA
ATOM     19  N   UNL     1       1.255   5.876  20.392  0.00  0.00    +0.000 N 
ATOM     20  H   UNL     1       0.582   6.028  19.647  0.00  0.00    +0.000 HD
BRANCH  19  21
ATOM     21  C   UNL     1       1.738   7.032  21.103  0.00  0.00    +0.000 C 
BRANCH  21  22
ATOM     22  C   UNL     1       1.349   8.302  20.392  0.00  0.00    +0.000 A 
ATOM     23  C   UNL     1       1.735   8.530  19.049  0.00  0.00    +0.000 A 
ATOM     24  C   UNL     1       1.196   9.596  18.320  0.00  0.00    +0.000 A 
ATOM     25  C   UNL     1       0.263  10.385  18.951  0.00  0.00    +0.000 A 
ATOM     26  C   UNL     1      -0.058  10.213  20.279  0.00  0.00    +0.000 A 
ATOM     27  C   UNL     1       0.489   9.207  21.036  0.00  0.00    +0.000 A 
ATOM     28  O   UNL     1      -1.050  11.056  20.681  0.00  0.00    +0.000 OA
ATOM     29  C   UNL     1      -1.532  11.466  19.386  0.00  0.00    +0.000 C 
ATOM     30  O   UNL     1      -0.522  11.333  18.363  0.00  0.00    +0.000 OA
ENDBRANCH  21  22
ENDBRANCH  19  21
ENDBRANCH  16  17
ENDBRANCH   1  16
TORSDOF 9
ENDMDL
MODEL 2
REMARK VINA RESULT:      -7.7      1.839      2.285
REMARK  Name = 
REMARK  10 active torsions:
REMARK  status: ('A' for Active; 'I' for Inactive)
REMARK    1  A    between atoms: C_1  and  C_2
REMARK    2  A    between atoms: C_2  and  C_3
REMARK    3  A    between atoms: C_3  and  N_4
REMARK    4  A    between atoms: N_4  and  S_5
REMARK    5  A    between atoms: S_5  and  C_8
REMARK    6  A    between atoms: C_11  and  C_12
REMARK    7  A    between atoms: C_12  and  C_13
REMARK    8  A    between atoms: C_13  and  C_14
REMARK    9  A    between atoms: N_16  and  C_17
REMARK   10  A    between atoms: C_17  and  C_18
REMARK                            x       y       z     vdW  Elec       q    Type
REMARK                         _______ _______ _______ _____ _____    ______ ____
ROOT
ATOM      1  C   UNL     1       3.957   2.234  20.091  0.00  0.00    +0.000 C 
ENDROOT
BRANCH   1   5
ATOM      2  C   UNL     1       5.358   4.572  16.759  0.00  0.00    +0.000 A 
ATOM      3  C   UNL     1       4.464   3.526  16.531  0.00  0.00    +0.000 A 
ATOM      4  C   UNL     1       4.019   2.764  17.613  0.00  0.00    +0.000 A 
ATOM      5  C   UNL     1       4.469   3.035  18.917  0.00  0.00    +0.000 A 
ATOM      6  C   UNL     1       5.389   4.074  19.121  0.00  0.00    +0.000 A 
ATOM      7  C   UNL     1       5.842   4.834  18.043  0.00  0.00    +0.000 A 
BRANCH   2   8
ATOM      8  S   UNL     1       5.915   5.584  15.408  0.00  0.00    +0.000 S 
ATOM      9  O   UNL     1       7.351   5.728  15.498  0.00  0.00    +0.000 OA
ATOM     10  O   UNL     1       5.025   6.723  15.354  0.00  0.00    +0.000 OA
BRANCH   8  11
ATOM     11  N   UNL     1       5.555   4.603  14.067  0.00  0.00    +0.000 NA
ATOM     12  H   UNL     1       4.930   3.844  14.333  0.00  0.00    +0.000 HD
BRANCH  11  13
ATOM     13  C   UNL     1       6.703   4.181  13.247  0.00  0.00    +0.000 C 
BRANCH  13  15
ATOM     14  C   UNL     1       4.709   3.427  11.929  0.00  0.00    +0.000 C 
ATOM     15  C   UNL     1       6.213   3.296  12.103  0.00  0.00    +0.000 C 
ENDBRANCH  13  15
ENDBRANCH  11  13
ENDBRANCH   8  11
ENDBRANCH   2   8
ENDBRANCH   1   5
BRANCH   1  16
ATOM     16  C   UNL     1       2.439   2.301  20.216  0.00  0.00    +0.000 C 
BRANCH  16  17
ATOM     17  C   UNL     1       1.989   3.445  21.096  0.00  0.00    +0.000 C 
ATOM     18  O   UNL     1       1.869   3.363  22.317  0.00  0.00    +0.000 OA
ATOM     19  N   UNL     1       1.761   4.589  20.379  0.00  0.00    +0.000 N 
ATOM     20  H   UNL     1       1.798   4.563  19.365  0.00  0.00    +0.000 HD
BRANCH  19  21
ATOM     21  C   UNL     1       1.422   5.840  21.004  0.00  0.00    +0.000 C 
BRANCH  21  22
ATOM     22  C   UNL     1       1.827   7.003  20.136  0.00  0.00    +0.000 A 
ATOM     23  C   UNL     1       2.588   6.801  18.960  0.00  0.00    +0.000 A 
ATOM     24  C   UNL     1       2.777   7.839  18.041  0.00  0.00    +0.000 A 
ATOM     25  C   UNL     1       2.172   9.044  18.317  0.00  0.00    +0.000 A 
ATOM     26  C   UNL     1       1.496   9.267  19.495  0.00  0.00    +0.000 A 
ATOM     27  C   UNL     1       1.334   8.284  20.439  0.00  0.00    +0.000 A 
ATOM     28  O   UNL     1       0.920  10.501  19.531  0.00  0.00    +0.000 OA
ATOM     29  C   UNL     1       1.003  10.827  18.130  0.00  0.00    +0.000 C 
ATOM     30  O   UNL     1       2.062  10.104  17.466  0.00  0.00    +0.000 OA
ENDBRANCH  21  22
ENDBRANCH  19  21
ENDBRANCH  16  17
ENDBRANCH   1  16
TORSDOF 9
ENDMDL
MODEL 3
REMARK VINA RESULT:      -7.7      1.901      2.599
REMARK  Name = 
REMARK  10 active torsions:
REMARK  status: ('A' for Active; 'I' for Inactive)
REMARK    1  A    between atoms: C_1  and  C_2
REMARK    2  A    between atoms: C_2  and  C_3
REMARK    3  A    between atoms: C_3  and  N_4
REMARK    4  A    between atoms: N_4  and  S_5
REMARK    5  A    between atoms: S_5  and  C_8
REMARK    6  A    between atoms: C_11  and  C_12
REMARK    7  A    between atoms: C_12  and  C_13
REMARK    8  A    between atoms: C_13  and  C_14
REMARK    9  A    between atoms: N_16  and  C_17
REMARK   10  A    between atoms: C_17  and  C_18
REMARK                            x       y       z     vdW  Elec       q    Type
REMARK                         _______ _______ _______ _____ _____    ______ ____
ROOT
ATOM      1  C   UNL     1       2.032   2.248  18.507  0.00  0.00    +0.000 C 
ENDROOT
BRANCH   1   5
ATOM      2  C   UNL     1       5.676   4.298  17.482  0.00  0.00    +0.000 A 
ATOM      3  C   UNL     1       5.497   3.834  18.785  0.00  0.00    +0.000 A 
ATOM      4  C   UNL     1       4.310   3.177  19.115  0.00  0.00    +0.000 A 
ATOM      5  C   UNL     1       3.299   2.992  18.157  0.00  0.00    +0.000 A 
ATOM      6  C   UNL     1       3.487   3.491  16.860  0.00  0.00    +0.000 A 
ATOM      7  C   UNL     1       4.668   4.153  16.524  0.00  0.00    +0.000 A 
BRANCH   2   8
ATOM      8  S   UNL     1       7.190   5.106  17.018  0.00  0.00    +0.000 S 
ATOM      9  O   UNL     1       7.036   5.654  15.689  0.00  0.00    +0.000 OA
ATOM     10  O   UNL     1       8.261   4.195  17.360  0.00  0.00    +0.000 OA
BRANCH   8  11
ATOM     11  N   UNL     1       7.252   6.392  18.127  0.00  0.00    +0.000 NA
ATOM     12  H   UNL     1       6.435   6.384  18.735  0.00  0.00    +0.000 HD
BRANCH  11  13
ATOM     13  C   UNL     1       7.576   7.715  17.568  0.00  0.00    +0.000 C 
BRANCH  13  15
ATOM     14  C   UNL     1       8.643   9.919  18.103  0.00  0.00    +0.000 C 
ATOM     15  C   UNL     1       8.475   8.473  18.542  0.00  0.00    +0.000 C 
ENDBRANCH  13  15
ENDBRANCH  11  13
ENDBRANCH   8  11
ENDBRANCH   2   8
ENDBRANCH   1   5
BRANCH   1  16
ATOM     16  C   UNL     1       0.903   3.191  18.908  0.00  0.00    +0.000 C 
BRANCH  16  17
ATOM     17  C   UNL     1       1.298   4.102  20.047  0.00  0.00    +0.000 C 
ATOM     18  O   UNL     1       1.306   3.759  21.228  0.00  0.00    +0.000 OA
ATOM     19  N   UNL     1       1.675   5.343  19.608  0.00  0.00    +0.000 N 
ATOM     20  H   UNL     1       1.564   5.585  18.629  0.00  0.00    +0.000 HD
BRANCH  19  21
ATOM     21  C   UNL     1       2.190   6.355  20.494  0.00  0.00    +0.000 C 
BRANCH  21  22
ATOM     22  C   UNL     1       1.855   7.734  19.987  0.00  0.00    +0.000 A 
ATOM     23  C   UNL     1       2.184   8.122  18.666  0.00  0.00    +0.000 A 
ATOM     24  C   UNL     1       1.684   9.311  18.123  0.00  0.00    +0.000 A 
ATOM     25  C   UNL     1       0.844  10.062  18.913  0.00  0.00    +0.000 A 
ATOM     26  C   UNL     1       0.583   9.727  20.223  0.00  0.00    +0.000 A 
ATOM     27  C   UNL     1       1.097   8.593  20.801  0.00  0.00    +0.000 A 
ATOM     28  O   UNL     1      -0.324  10.566  20.797  0.00  0.00    +0.000 OA
ATOM     29  C   UNL     1      -0.844  11.183  19.602  0.00  0.00    +0.000 C 
ATOM     30  O   UNL     1       0.098  11.130  18.509  0.00  0.00    +0.000 OA
ENDBRANCH  21  22
ENDBRANCH  19  21
ENDBRANCH  16  17
ENDBRANCH   1  16
TORSDOF 9
ENDMDL
MODEL 4
REMARK VINA RESULT:      -7.6      1.111      1.389
REMARK  Name = 
REMARK  10 active torsions:
REMARK  status: ('A' for Active; 'I' for Inactive)
REMARK    1  A    between atoms: C_1  and  C_2
REMARK    2  A    between atoms: C_2  and  C_3
REMARK    3  A    between atoms: C_3  and  N_4
REMARK    4  A    between atoms: N_4  and  S_5
REMARK    5  A    between atoms: S_5  and  C_8
REMARK    6  A    between atoms: C_11  and  C_12
REMARK    7  A    between atoms: C_12  and  C_13
REMARK    8  A    between atoms: C_13  and  C_14
REMARK    9  A    between atoms: N_16  and  C_17
REMARK   10  A    between atoms: C_17  and  C_18
REMARK                            x       y       z     vdW  Elec       q    Type
REMARK                         _______ _______ _______ _____ _____    ______ ____
ROOT
ATOM      1  C   UNL     1       2.040   2.033  18.643  0.00  0.00    +0.000 C 
ENDROOT
BRANCH   1   5
ATOM      2  C   UNL     1       5.424   4.412  17.451  0.00  0.00    +0.000 A 
ATOM      3  C   UNL     1       5.377   3.892  18.745  0.00  0.00    +0.000 A 
ATOM      4  C   UNL     1       4.272   3.129  19.130  0.00  0.00    +0.000 A 
ATOM      5  C   UNL     1       3.215   2.890  18.236  0.00  0.00    +0.000 A 
ATOM      6  C   UNL     1       3.270   3.445  16.949  0.00  0.00    +0.000 A 
ATOM      7  C   UNL     1       4.367   4.214  16.560  0.00  0.00    +0.000 A 
BRANCH   2   8
ATOM      8  S   UNL     1       6.833   5.357  16.917  0.00  0.00    +0.000 S 
ATOM      9  O   UNL     1       8.023   4.557  17.100  0.00  0.00    +0.000 OA
ATOM     10  O   UNL     1       6.687   6.674  17.498  0.00  0.00    +0.000 OA
BRANCH   8  11
ATOM     11  N   UNL     1       6.537   5.508  15.250  0.00  0.00    +0.000 NA
ATOM     12  H   UNL     1       5.538   5.581  15.066  0.00  0.00    +0.000 HD
BRANCH  11  13
ATOM     13  C   UNL     1       7.244   4.556  14.378  0.00  0.00    +0.000 C 
BRANCH  13  15
ATOM     14  C   UNL     1       6.097   3.346  12.505  0.00  0.00    +0.000 C 
ATOM     15  C   UNL     1       6.699   4.667  12.956  0.00  0.00    +0.000 C 
ENDBRANCH  13  15
ENDBRANCH  11  13
ENDBRANCH   8  11
ENDBRANCH   2   8
ENDBRANCH   1   5
BRANCH   1  16
ATOM     16  C   UNL     1       0.859   2.866  19.129  0.00  0.00    +0.000 C 
BRANCH  16  17
ATOM     17  C   UNL     1       1.241   3.790  20.262  0.00  0.00    +0.000 C 
ATOM     18  O   UNL     1       1.243   3.458  21.446  0.00  0.00    +0.000 OA
ATOM     19  N   UNL     1       1.612   5.030  19.815  0.00  0.00    +0.000 N 
ATOM     20  H   UNL     1       1.507   5.263  18.833  0.00  0.00    +0.000 HD
BRANCH  19  21
ATOM     21  C   UNL     1       2.114   6.053  20.695  0.00  0.00    +0.000 C 
BRANCH  21  22
ATOM     22  C   UNL     1       1.922   7.421  20.094  0.00  0.00    +0.000 A 
ATOM     23  C   UNL     1       2.352   7.703  18.775  0.00  0.00    +0.000 A 
ATOM     24  C   UNL     1       1.982   8.893  18.139  0.00  0.00    +0.000 A 
ATOM     25  C   UNL     1       1.166   9.754  18.836  0.00  0.00    +0.000 A 
ATOM     26  C   UNL     1       0.808   9.520  20.145  0.00  0.00    +0.000 A 
ATOM     27  C   UNL     1       1.195   8.385  20.814  0.00  0.00    +0.000 A 
ATOM     28  O   UNL     1      -0.055  10.461  20.618  0.00  0.00    +0.000 OA
ATOM     29  C   UNL     1      -0.458  11.044  19.362  0.00  0.00    +0.000 C 
ATOM     30  O   UNL     1       0.533  10.851  18.331  0.00  0.00    +0.000 OA
ENDBRANCH  21  22
ENDBRANCH  19  21
ENDBRANCH  16  17
ENDBRANCH   1  16
TORSDOF 9
ENDMDL
MODEL 5
REMARK VINA RESULT:      -7.5      2.890      8.216
REMARK  Name = 
REMARK  10 active torsions:
REMARK  status: ('A' for Active; 'I' for Inactive)
REMARK    1  A    between atoms: C_1  and  C_2
REMARK    2  A    between atoms: C_2  and  C_3
REMARK    3  A    between atoms: C_3  and  N_4
REMARK    4  A    between atoms: N_4  and  S_5
REMARK    5  A    between atoms: S_5  and  C_8
REMARK    6  A    between atoms: C_11  and  C_12
REMARK    7  A    between atoms: C_12  and  C_13
REMARK    8  A    between atoms: C_13  and  C_14
REMARK    9  A    between atoms: N_16  and  C_17
REMARK   10  A    between atoms: C_17  and  C_18
REMARK                            x       y       z     vdW  Elec       q    Type
REMARK                         _______ _______ _______ _____ _____    ______ ____
ROOT
ATOM      1  C   UNL     1       2.397   5.457  20.342  0.00  0.00    +0.000 C 
ENDROOT
BRANCH   1   5
ATOM      2  C   UNL     1       1.152   9.545  19.825  0.00  0.00    +0.000 A 
ATOM      3  C   UNL     1       1.819   8.898  18.785  0.00  0.00    +0.000 A 
ATOM      4  C   UNL     1       2.229   7.574  18.960  0.00  0.00    +0.000 A 
ATOM      5  C   UNL     1       1.986   6.900  20.169  0.00  0.00    +0.000 A 
ATOM      6  C   UNL     1       1.339   7.578  21.212  0.00  0.00    +0.000 A 
ATOM      7  C   UNL     1       0.932   8.902  21.046  0.00  0.00    +0.000 A 
BRANCH   2   8
ATOM      8  S   UNL     1       0.584  11.218  19.621  0.00  0.00    +0.000 S 
ATOM      9  O   UNL     1      -0.774  11.188  19.128  0.00  0.00    +0.000 OA
ATOM     10  O   UNL     1       1.641  11.929  18.936  0.00  0.00    +0.000 OA
BRANCH   8  11
ATOM     11  N   UNL     1       0.563  11.776  21.226  0.00  0.00    +0.000 NA
ATOM     12  H   UNL     1       0.542  10.994  21.880  0.00  0.00    +0.000 HD
BRANCH  11  13
ATOM     13  C   UNL     1      -0.406  12.842  21.528  0.00  0.00    +0.000 C 
BRANCH  13  15
ATOM     14  C   UNL     1      -1.495  13.888  23.529  0.00  0.00    +0.000 C 
ATOM     15  C   UNL     1      -1.036  12.585  22.895  0.00  0.00    +0.000 C 
ENDBRANCH  13  15
ENDBRANCH  11  13
ENDBRANCH   8  11
ENDBRANCH   2   8
ENDBRANCH   1   5
BRANCH   1  16
ATOM     16  C   UNL     1       1.389   4.493  19.727  0.00  0.00    +0.000 C 
BRANCH  16  17
ATOM     17  C   UNL     1       1.846   3.970  18.384  0.00  0.00    +0.000 C 
ATOM     18  O   UNL     1       1.160   4.009  17.364  0.00  0.00    +0.000 OA
ATOM     19  N   UNL     1       3.122   3.475  18.430  0.00  0.00    +0.000 N 
ATOM     20  H   UNL     1       3.599   3.396  19.322  0.00  0.00    +0.000 HD
BRANCH  19  21
ATOM     21  C   UNL     1       3.816   3.013  17.256  0.00  0.00    +0.000 C 
BRANCH  21  22
ATOM     22  C   UNL     1       5.022   3.870  16.972  0.00  0.00    +0.000 A 
ATOM     23  C   UNL     1       5.382   4.200  15.643  0.00  0.00    +0.000 A 
ATOM     24  C   UNL     1       6.359   5.167  15.384  0.00  0.00    +0.000 A 
ATOM     25  C   UNL     1       6.928   5.796  16.468  0.00  0.00    +0.000 A 
ATOM     26  C   UNL     1       6.636   5.426  17.762  0.00  0.00    +0.000 A 
ATOM     27  C   UNL     1       5.717   4.447  18.049  0.00  0.00    +0.000 A 
ATOM     28  O   UNL     1       7.255   6.222  18.677  0.00  0.00    +0.000 OA
ATOM     29  C   UNL     1       7.628   7.310  17.809  0.00  0.00    +0.000 C 
ATOM     30  O   UNL     1       7.736   6.894  16.431  0.00  0.00    +0.000 OA
ENDBRANCH  21  22
ENDBRANCH  19  21
ENDBRANCH  16  17
ENDBRANCH   1  16
TORSDOF 9
ENDMDL
MODEL 6
REMARK VINA RESULT:      -7.4      1.113      1.460
REMARK  Name = 
REMARK  10 active torsions:
REMARK  status: ('A' for Active; 'I' for Inactive)
REMARK    1  A    between atoms: C_1  and  C_2
REMARK    2  A    between atoms: C_2  and  C_3
REMARK    3  A    between atoms: C_3  and  N_4
REMARK    4  A    between atoms: N_4  and  S_5
REMARK    5  A    between atoms: S_5  and  C_8
REMARK    6  A    between atoms: C_11  and  C_12
REMARK    7  A    between atoms: C_12  and  C_13
REMARK    8  A    between atoms: C_13  and  C_14
REMARK    9  A    between atoms: N_16  and  C_17
REMARK   10  A    between atoms: C_17  and  C_18
REMARK                            x       y       z     vdW  Elec       q    Type
REMARK                         _______ _______ _______ _____ _____    ______ ____
ROOT
ATOM      1  C   UNL     1       1.356   3.561  18.387  0.00  0.00    +0.000 C 
ENDROOT
BRANCH   1   5
ATOM      2  C   UNL     1       5.251   4.469  16.793  0.00  0.00    +0.000 A 
ATOM      3  C   UNL     1       4.905   3.140  17.036  0.00  0.00    +0.000 A 
ATOM      4  C   UNL     1       3.644   2.850  17.562  0.00  0.00    +0.000 A 
ATOM      5  C   UNL     1       2.733   3.880  17.855  0.00  0.00    +0.000 A 
ATOM      6  C   UNL     1       3.111   5.211  17.629  0.00  0.00    +0.000 A 
ATOM      7  C   UNL     1       4.371   5.508  17.109  0.00  0.00    +0.000 A 
BRANCH   2   8
ATOM      8  S   UNL     1       6.834   4.869  16.090  0.00  0.00    +0.000 S 
ATOM      9  O   UNL     1       7.862   4.192  16.848  0.00  0.00    +0.000 OA
ATOM     10  O   UNL     1       6.841   6.300  15.882  0.00  0.00    +0.000 OA
BRANCH   8  11
ATOM     11  N   UNL     1       6.727   4.141  14.558  0.00  0.00    +0.000 NA
ATOM     12  H   UNL     1       6.986   3.156  14.607  0.00  0.00    +0.000 HD
BRANCH  11  13
ATOM     13  C   UNL     1       7.354   4.875  13.447  0.00  0.00    +0.000 C 
BRANCH  13  15
ATOM     14  C   UNL     1       5.866   3.193  12.334  0.00  0.00    +0.000 C 
ATOM     15  C   UNL     1       6.958   4.229  12.121  0.00  0.00    +0.000 C 
ENDBRANCH  13  15
ENDBRANCH  11  13
ENDBRANCH   8  11
ENDBRANCH   2   8
ENDBRANCH   1   5
BRANCH   1  16
ATOM     16  C   UNL     1       1.408   2.900  19.760  0.00  0.00    +0.000 C 
BRANCH  16  17
ATOM     17  C   UNL     1       1.713   3.891  20.860  0.00  0.00    +0.000 C 
ATOM     18  O   UNL     1       2.123   3.572  21.975  0.00  0.00    +0.000 OA
ATOM     19  N   UNL     1       1.508   5.184  20.461  0.00  0.00    +0.000 N 
ATOM     20  H   UNL     1       1.089   5.371  19.556  0.00  0.00    +0.000 HD
BRANCH  19  21
ATOM     21  C   UNL     1       1.825   6.313  21.297  0.00  0.00    +0.000 C 
BRANCH  21  22
ATOM     22  C   UNL     1       1.579   7.608  20.568  0.00  0.00    +0.000 A 
ATOM     23  C   UNL     1       2.077   7.811  19.258  0.00  0.00    +0.000 A 
ATOM     24  C   UNL     1       1.669   8.913  18.499  0.00  0.00    +0.000 A 
ATOM     25  C   UNL     1       0.750   9.765  19.066  0.00  0.00    +0.000 A 
ATOM     26  C   UNL     1       0.321   9.615  20.366  0.00  0.00    +0.000 A 
ATOM     27  C   UNL     1       0.740   8.571  21.154  0.00  0.00    +0.000 A 
ATOM     28  O   UNL     1      -0.636  10.524  20.700  0.00  0.00    +0.000 OA
ATOM     29  C   UNL     1      -0.992  10.969  19.376  0.00  0.00    +0.000 C 
ATOM     30  O   UNL     1       0.078  10.767  18.428  0.00  0.00    +0.000 OA
ENDBRANCH  21  22
ENDBRANCH  19  21
ENDBRANCH  16  17
ENDBRANCH   1  16
TORSDOF 9
ENDMDL
MODEL 7
REMARK VINA RESULT:      -7.4      3.112      8.173
REMARK  Name = 
REMARK  10 active torsions:
REMARK  status: ('A' for Active; 'I' for Inactive)
REMARK    1  A    between atoms: C_1  and  C_2
REMARK    2  A    between atoms: C_2  and  C_3
REMARK    3  A    between atoms: C_3  and  N_4
REMARK    4  A    between atoms: N_4  and  S_5
REMARK    5  A    between atoms: S_5  and  C_8
REMARK    6  A    between atoms: C_11  and  C_12
REMARK    7  A    between atoms: C_12  and  C_13
REMARK    8  A    between atoms: C_13  and  C_14
REMARK    9  A    between atoms: N_16  and  C_17
REMARK   10  A    between atoms: C_17  and  C_18
REMARK                            x       y       z     vdW  Elec       q    Type
REMARK                         _______ _______ _______ _____ _____    ______ ____
ROOT
ATOM      1  C   UNL     1       1.723   7.698  21.015  0.00  0.00    +0.000 C 
ENDROOT
BRANCH   1   5
ATOM      2  C   UNL     1      -0.380  11.146  19.525  0.00  0.00    +0.000 A 
ATOM      3  C   UNL     1       0.441  10.421  18.661  0.00  0.00    +0.000 A 
ATOM      4  C   UNL     1       1.129   9.309  19.151  0.00  0.00    +0.000 A 
ATOM      5  C   UNL     1       1.008   8.924  20.498  0.00  0.00    +0.000 A 
ATOM      6  C   UNL     1       0.198   9.683  21.355  0.00  0.00    +0.000 A 
ATOM      7  C   UNL     1      -0.486  10.798  20.874  0.00  0.00    +0.000 A 
BRANCH   2   8
ATOM      8  S   UNL     1      -1.298  12.545  18.924  0.00  0.00    +0.000 S 
ATOM      9  O   UNL     1      -0.432  13.703  18.927  0.00  0.00    +0.000 OA
ATOM     10  O   UNL     1      -2.570  12.528  19.613  0.00  0.00    +0.000 OA
BRANCH   8  11
ATOM     11  N   UNL     1      -1.595  12.099  17.311  0.00  0.00    +0.000 NA
ATOM     12  H   UNL     1      -1.485  12.898  16.689  0.00  0.00    +0.000 HD
BRANCH  11  13
ATOM     13  C   UNL     1      -2.817  11.312  17.072  0.00  0.00    +0.000 C 
BRANCH  13  15
ATOM     14  C   UNL     1      -2.904  10.071  14.895  0.00  0.00    +0.000 C 
ATOM     15  C   UNL     1      -2.454  10.018  16.346  0.00  0.00    +0.000 C 
ENDBRANCH  13  15
ENDBRANCH  11  13
ENDBRANCH   8  11
ENDBRANCH   2   8
ENDBRANCH   1   5
BRANCH   1  16
ATOM     16  C   UNL     1       1.025   6.407  20.602  0.00  0.00    +0.000 C 
BRANCH  16  17
ATOM     17  C   UNL     1       1.989   5.248  20.491  0.00  0.00    +0.000 C 
ATOM     18  O   UNL     1       2.374   4.582  21.451  0.00  0.00    +0.000 OA
ATOM     19  N   UNL     1       2.360   5.008  19.195  0.00  0.00    +0.000 N 
ATOM     20  H   UNL     1       2.071   5.648  18.462  0.00  0.00    +0.000 HD
BRANCH  19  21
ATOM     21  C   UNL     1       3.191   3.893  18.821  0.00  0.00    +0.000 C 
BRANCH  21  22
ATOM     22  C   UNL     1       4.431   4.364  18.106  0.00  0.00    +0.000 A 
ATOM     23  C   UNL     1       4.517   4.317  16.694  0.00  0.00    +0.000 A 
ATOM     24  C   UNL     1       5.566   4.951  16.018  0.00  0.00    +0.000 A 
ATOM     25  C   UNL     1       6.484   5.638  16.779  0.00  0.00    +0.000 A 
ATOM     26  C   UNL     1       6.446   5.623  18.156  0.00  0.00    +0.000 A 
ATOM     27  C   UNL     1       5.458   4.969  18.850  0.00  0.00    +0.000 A 
ATOM     28  O   UNL     1       7.403   6.422  18.705  0.00  0.00    +0.000 OA
ATOM     29  C   UNL     1       7.751   7.188  17.535  0.00  0.00    +0.000 C 
ATOM     30  O   UNL     1       7.448   6.482  16.312  0.00  0.00    +0.000 OA
ENDBRANCH  21  22
ENDBRANCH  19  21
ENDBRANCH  16  17
ENDBRANCH   1  16
TORSDOF 9
ENDMDL
MODEL 8
REMARK VINA RESULT:      -7.4      2.752      7.879
REMARK  Name = 
REMARK  10 active torsions:
REMARK  status: ('A' for Active; 'I' for Inactive)
REMARK    1  A    between atoms: C_1  and  C_2
REMARK    2  A    between atoms: C_2  and  C_3
REMARK    3  A    between atoms: C_3  and  N_4
REMARK    4  A    between atoms: N_4  and  S_5
REMARK    5  A    between atoms: S_5  and  C_8
REMARK    6  A    between atoms: C_11  and  C_12
REMARK    7  A    between atoms: C_12  and  C_13
REMARK    8  A    between atoms: C_13  and  C_14
REMARK    9  A    between atoms: N_16  and  C_17
REMARK   10  A    between atoms: C_17  and  C_18
REMARK                            x       y       z     vdW  Elec       q    Type
REMARK                         _______ _______ _______ _____ _____    ______ ____
ROOT
ATOM      1  C   UNL     1       2.129   5.366  20.820  0.00  0.00    +0.000 C 
ENDROOT
BRANCH   1   5
ATOM      2  C   UNL     1       1.056   9.423  19.861  0.00  0.00    +0.000 A 
ATOM      3  C   UNL     1       1.821   8.687  18.956  0.00  0.00    +0.000 A 
ATOM      4  C   UNL     1       2.175   7.374  19.276  0.00  0.00    +0.000 A 
ATOM      5  C   UNL     1       1.777   6.798  20.494  0.00  0.00    +0.000 A 
ATOM      6  C   UNL     1       1.031   7.564  21.402  0.00  0.00    +0.000 A 
ATOM      7  C   UNL     1       0.680   8.878  21.091  0.00  0.00    +0.000 A 
BRANCH   2   8
ATOM      8  S   UNL     1       0.557  11.084  19.469  0.00  0.00    +0.000 S 
ATOM      9  O   UNL     1       1.368  11.564  18.372  0.00  0.00    +0.000 OA
ATOM     10  O   UNL     1       0.460  11.790  20.727  0.00  0.00    +0.000 OA
BRANCH   8  11
ATOM     11  N   UNL     1      -1.028  10.846  18.903  0.00  0.00    +0.000 NA
ATOM     12  H   UNL     1      -1.140   9.906  18.528  0.00  0.00    +0.000 HD
BRANCH  11  13
ATOM     13  C   UNL     1      -1.575  11.909  18.044  0.00  0.00    +0.000 C 
BRANCH  13  15
ATOM     14  C   UNL     1      -2.296   9.988  16.604  0.00  0.00    +0.000 C 
ATOM     15  C   UNL     1      -2.695  11.338  17.178  0.00  0.00    +0.000 C 
ENDBRANCH  13  15
ENDBRANCH  11  13
ENDBRANCH   8  11
ENDBRANCH   2   8
ENDBRANCH   1   5
BRANCH   1  16
ATOM     16  C   UNL     1       1.131   4.378  20.226  0.00  0.00    +0.000 C 
BRANCH  16  17
ATOM     17  C   UNL     1       1.724   3.587  19.083  0.00  0.00    +0.000 C 
ATOM     18  O   UNL     1       1.088   3.240  18.088  0.00  0.00    +0.000 OA
ATOM     19  N   UNL     1       3.055   3.328  19.269  0.00  0.00    +0.000 N 
ATOM     20  H   UNL     1       3.496   3.570  20.150  0.00  0.00    +0.000 HD
BRANCH  19  21
ATOM     21  C   UNL     1       3.865   2.677  18.272  0.00  0.00    +0.000 C 
BRANCH  21  22
ATOM     22  C   UNL     1       4.750   3.670  17.566  0.00  0.00    +0.000 A 
ATOM     23  C   UNL     1       5.757   4.376  18.269  0.00  0.00    +0.000 A 
ATOM     24  C   UNL     1       6.718   5.127  17.583  0.00  0.00    +0.000 A 
ATOM     25  C   UNL     1       6.658   5.125  16.209  0.00  0.00    +0.000 A 
ATOM     26  C   UNL     1       5.637   4.504  15.524  0.00  0.00    +0.000 A 
ATOM     27  C   UNL     1       4.652   3.799  16.170  0.00  0.00    +0.000 A 
ATOM     28  O   UNL     1       5.810   4.567  14.175  0.00  0.00    +0.000 OA
ATOM     29  C   UNL     1       7.200   4.948  14.146  0.00  0.00    +0.000 C 
ATOM     30  O   UNL     1       7.606   5.616  15.360  0.00  0.00    +0.000 OA
ENDBRANCH  21  22
ENDBRANCH  19  21
ENDBRANCH  16  17
ENDBRANCH   1  16
TORSDOF 9
ENDMDL
MODEL 9
REMARK VINA RESULT:      -7.4      1.132      1.671
REMARK  Name = 
REMARK  10 active torsions:
REMARK  status: ('A' for Active; 'I' for Inactive)
REMARK    1  A    between atoms: C_1  and  C_2
REMARK    2  A    between atoms: C_2  and  C_3
REMARK    3  A    between atoms: C_3  and  N_4
REMARK    4  A    between atoms: N_4  and  S_5
REMARK    5  A    between atoms: S_5  and  C_8
REMARK    6  A    between atoms: C_11  and  C_12
REMARK    7  A    between atoms: C_12  and  C_13
REMARK    8  A    between atoms: C_13  and  C_14
REMARK    9  A    between atoms: N_16  and  C_17
REMARK   10  A    between atoms: C_17  and  C_18
REMARK                            x       y       z     vdW  Elec       q    Type
REMARK                         _______ _______ _______ _____ _____    ______ ____
ROOT
ATOM      1  C   UNL     1       2.181   2.563  19.248  0.00  0.00    +0.000 C 
ENDROOT
BRANCH   1   5
ATOM      2  C   UNL     1       5.424   4.522  17.204  0.00  0.00    +0.000 A 
ATOM      3  C   UNL     1       4.226   4.296  16.525  0.00  0.00    +0.000 A 
ATOM      4  C   UNL     1       3.180   3.652  17.189  0.00  0.00    +0.000 A 
ATOM      5  C   UNL     1       3.326   3.225  18.521  0.00  0.00    +0.000 A 
ATOM      6  C   UNL     1       4.548   3.438  19.175  0.00  0.00    +0.000 A 
ATOM      7  C   UNL     1       5.600   4.075  18.516  0.00  0.00    +0.000 A 
BRANCH   2   8
ATOM      8  S   UNL     1       6.762   5.372  16.400  0.00  0.00    +0.000 S 
ATOM      9  O   UNL     1       7.966   4.584  16.546  0.00  0.00    +0.000 OA
ATOM     10  O   UNL     1       6.685   6.753  16.824  0.00  0.00    +0.000 OA
BRANCH   8  11
ATOM     11  N   UNL     1       6.278   5.320  14.772  0.00  0.00    +0.000 NA
ATOM     12  H   UNL     1       5.334   5.686  14.664  0.00  0.00    +0.000 HD
BRANCH  11  13
ATOM     13  C   UNL     1       6.518   4.050  14.065  0.00  0.00    +0.000 C 
BRANCH  13  15
ATOM     14  C   UNL     1       5.820   2.929  11.934  0.00  0.00    +0.000 C 
ATOM     15  C   UNL     1       5.357   3.771  13.113  0.00  0.00    +0.000 C 
ENDBRANCH  13  15
ENDBRANCH  11  13
ENDBRANCH   8  11
ENDBRANCH   2   8
ENDBRANCH   1   5
BRANCH   1  16
ATOM     16  C   UNL     1       1.134   3.570  19.712  0.00  0.00    +0.000 C 
BRANCH  16  17
ATOM     17  C   UNL     1       1.753   4.743  20.438  0.00  0.00    +0.000 C 
ATOM     18  O   UNL     1       2.225   4.675  21.572  0.00  0.00    +0.000 OA
ATOM     19  N   UNL     1       1.754   5.880  19.676  0.00  0.00    +0.000 N 
ATOM     20  H   UNL     1       1.273   5.887  18.783  0.00  0.00    +0.000 HD
BRANCH  19  21
ATOM     21  C   UNL     1       2.379   7.103  20.109  0.00  0.00    +0.000 C 
BRANCH  21  22
ATOM     22  C   UNL     1       1.354   8.186  20.317  0.00  0.00    +0.000 A 
ATOM     23  C   UNL     1       0.599   8.253  21.513  0.00  0.00    +0.000 A 
ATOM     24  C   UNL     1      -0.188   9.373  21.803  0.00  0.00    +0.000 A 
ATOM     25  C   UNL     1      -0.172  10.408  20.896  0.00  0.00    +0.000 A 
ATOM     26  C   UNL     1       0.499  10.316  19.697  0.00  0.00    +0.000 A 
ATOM     27  C   UNL     1       1.241   9.211  19.361  0.00  0.00    +0.000 A 
ATOM     28  O   UNL     1       0.439  11.475  18.985  0.00  0.00    +0.000 OA
ATOM     29  C   UNL     1      -0.002  12.359  20.035  0.00  0.00    +0.000 C 
ATOM     30  O   UNL     1      -0.697  11.652  21.084  0.00  0.00    +0.000 OA
ENDBRANCH  21  22
ENDBRANCH  19  21
ENDBRANCH  16  17
ENDBRANCH   1  16
TORSDOF 9
ENDMDL
