MODEL 1
REMARK VINA RESULT:      -6.6      0.000      0.000
REMARK  Name = 
REMARK  6 active torsions:
REMARK  status: ('A' for Active; 'I' for Inactive)
REMARK    1  A    between atoms: C_1  and  O_2
REMARK    2  A    between atoms: O_2  and  C_3
REMARK    3  A    between atoms: C_3  and  C_4
REMARK    4  A    between atoms: C_4  and  N_5
REMARK    5  A    between atoms: C_6  and  C_8
REMARK    6  A    between atoms: N_24  and  C_25
REMARK                            x       y       z     vdW  Elec       q    Type
REMARK                         _______ _______ _______ _____ _____    ______ ____
ROOT
ATOM      1  N   UNL     1       5.591   5.225  16.068  0.00  0.00    +0.000 N 
ATOM      2  C   UNL     1       6.949   5.246  16.483  0.00  0.00    +0.000 C 
ATOM      3  O   UNL     1       7.719   4.353  16.107  0.00  0.00    +0.000 OA
ATOM      4  C   UNL     1       4.657   5.716  16.976  0.00  0.00    +0.000 A 
ATOM      5  N   UNL     1       3.946   6.820  16.852  0.00  0.00    +0.000 NA
ATOM      6  C   UNL     1       3.183   6.957  17.986  0.00  0.00    +0.000 A 
ATOM      7  C   UNL     1       3.247   5.921  18.904  0.00  0.00    +0.000 A 
ATOM      8  S   UNL     1       4.349   4.749  18.374  0.00  0.00    +0.000 S 
ATOM      9  C   UNL     1       2.427   5.840  20.168  0.00  0.00    +0.000 C 
ATOM     10  C   UNL     1       2.095   7.254  20.721  0.00  0.00    +0.000 C 
ATOM     11  C   UNL     1       1.816   8.195  19.590  0.00  0.00    +0.000 A 
ATOM     12  C   UNL     1       2.340   8.093  18.320  0.00  0.00    +0.000 A 
ATOM     13  C   UNL     1       1.865   9.201  17.623  0.00  0.00    +0.000 A 
ATOM     14  N   UNL     1       1.052   9.950  18.392  0.00  0.00    +0.000 NA
ATOM     15  N   UNL     1       1.026   9.306  19.580  0.00  0.00    +0.000 N 
ATOM     16  C   UNL     1       0.185   9.778  20.655  0.00  0.00    +0.000 C 
ENDROOT
BRANCH   2  17
ATOM     17  C   UNL     1       7.437   6.340  17.334  0.00  0.00    +0.000 A 
ATOM     18  C   UNL     1       7.597   7.693  17.088  0.00  0.00    +0.000 A 
ATOM     19  C   UNL     1       8.138   8.402  18.200  0.00  0.00    +0.000 A 
ATOM     20  C   UNL     1       8.413   7.567  19.258  0.00  0.00    +0.000 A 
ATOM     21  S   UNL     1       7.988   5.949  18.921  0.00  0.00    +0.000 S 
ENDBRANCH   2  17
BRANCH   1  22
ATOM     22  C   UNL     1       5.205   4.105  15.187  0.00  0.00    +0.000 C 
BRANCH  22  23
ATOM     23  C   UNL     1       5.403   4.392  13.699  0.00  0.00    +0.000 C 
BRANCH  23  25
ATOM     24  C   UNL     1       5.623   2.845  11.937  0.00  0.00    +0.000 C 
ATOM     25  O   UNL     1       6.217   3.374  13.114  0.00  0.00    +0.000 OA
ENDBRANCH  23  25
ENDBRANCH  22  23
ENDBRANCH   1  22
TORSDOF 4
ENDMDL
MODEL 2
REMARK VINA RESULT:      -5.8      2.832      4.944
REMARK  Name = 
REMARK  6 active torsions:
REMARK  status: ('A' for Active; 'I' for Inactive)
REMARK    1  A    between atoms: C_1  and  O_2
REMARK    2  A    between atoms: O_2  and  C_3
REMARK    3  A    between atoms: C_3  and  C_4
REMARK    4  A    between atoms: C_4  and  N_5
REMARK    5  A    between atoms: C_6  and  C_8
REMARK    6  A    between atoms: N_24  and  C_25
REMARK                            x       y       z     vdW  Elec       q    Type
REMARK                         _______ _______ _______ _____ _____    ______ ____
ROOT
ATOM      1  N   UNL     1       4.471   5.452  18.678  0.00  0.00    +0.000 N 
ATOM      2  C   UNL     1       3.950   4.216  18.213  0.00  0.00    +0.000 C 
ATOM      3  O   UNL     1       4.635   3.504  17.469  0.00  0.00    +0.000 OA
ATOM      4  C   UNL     1       3.552   6.482  18.861  0.00  0.00    +0.000 A 
ATOM      5  N   UNL     1       3.182   7.010  20.012  0.00  0.00    +0.000 NA
ATOM      6  C   UNL     1       2.229   7.964  19.749  0.00  0.00    +0.000 A 
ATOM      7  C   UNL     1       1.961   8.219  18.413  0.00  0.00    +0.000 A 
ATOM      8  S   UNL     1       2.880   7.188  17.434  0.00  0.00    +0.000 S 
ATOM      9  C   UNL     1       1.015   9.282  17.914  0.00  0.00    +0.000 C 
ATOM     10  C   UNL     1      -0.136   9.540  18.927  0.00  0.00    +0.000 C 
ATOM     11  C   UNL     1       0.388   9.463  20.328  0.00  0.00    +0.000 A 
ATOM     12  C   UNL     1       1.466   8.708  20.737  0.00  0.00    +0.000 A 
ATOM     13  C   UNL     1       1.556   8.889  22.114  0.00  0.00    +0.000 A 
ATOM     14  N   UNL     1       0.612   9.742  22.558  0.00  0.00    +0.000 NA
ATOM     15  N   UNL     1      -0.075  10.089  21.447  0.00  0.00    +0.000 N 
ATOM     16  C   UNL     1      -1.137  11.065  21.514  0.00  0.00    +0.000 C 
ENDROOT
BRANCH   2  17
ATOM     17  C   UNL     1       2.614   3.778  18.639  0.00  0.00    +0.000 A 
ATOM     18  C   UNL     1       1.417   3.680  17.951  0.00  0.00    +0.000 A 
ATOM     19  C   UNL     1       0.338   3.231  18.769  0.00  0.00    +0.000 A 
ATOM     20  C   UNL     1       0.729   3.032  20.072  0.00  0.00    +0.000 A 
ATOM     21  S   UNL     1       2.391   3.351  20.296  0.00  0.00    +0.000 S 
ENDBRANCH   2  17
BRANCH   1  22
ATOM     22  C   UNL     1       5.834   5.788  18.224  0.00  0.00    +0.000 C 
BRANCH  22  23
ATOM     23  C   UNL     1       6.910   5.582  19.288  0.00  0.00    +0.000 C 
BRANCH  23  25
ATOM     24  C   UNL     1       7.776   7.323  17.960  0.00  0.00    +0.000 C 
ATOM     25  O   UNL     1       8.060   6.369  18.974  0.00  0.00    +0.000 OA
ENDBRANCH  23  25
ENDBRANCH  22  23
ENDBRANCH   1  22
TORSDOF 4
ENDMDL
MODEL 3
REMARK VINA RESULT:      -5.7      2.462      4.611
REMARK  Name = 
REMARK  6 active torsions:
REMARK  status: ('A' for Active; 'I' for Inactive)
REMARK    1  A    between atoms: C_1  and  O_2
REMARK    2  A    between atoms: O_2  and  C_3
REMARK    3  A    between atoms: C_3  and  C_4
REMARK    4  A    between atoms: C_4  and  N_5
REMARK    5  A    between atoms: C_6  and  C_8
REMARK    6  A    between atoms: N_24  and  C_25
REMARK                            x       y       z     vdW  Elec       q    Type
REMARK                         _______ _______ _______ _____ _____    ______ ____
ROOT
ATOM      1  N   UNL     1       4.693   5.005  19.354  0.00  0.00    +0.000 N 
ATOM      2  C   UNL     1       4.237   3.772  18.817  0.00  0.00    +0.000 C 
ATOM      3  O   UNL     1       5.049   2.986  18.314  0.00  0.00    +0.000 OA
ATOM      4  C   UNL     1       3.825   6.088  19.242  0.00  0.00    +0.000 A 
ATOM      5  N   UNL     1       3.197   6.698  20.228  0.00  0.00    +0.000 NA
ATOM      6  C   UNL     1       2.410   7.681  19.680  0.00  0.00    +0.000 A 
ATOM      7  C   UNL     1       2.522   7.873  18.312  0.00  0.00    +0.000 A 
ATOM      8  S   UNL     1       3.601   6.744  17.659  0.00  0.00    +0.000 S 
ATOM      9  C   UNL     1       1.811   8.953  17.535  0.00  0.00    +0.000 C 
ATOM     10  C   UNL     1       0.451   9.325  18.191  0.00  0.00    +0.000 C 
ATOM     11  C   UNL     1       0.579   9.301  19.683  0.00  0.00    +0.000 A 
ATOM     12  C   UNL     1       1.460   8.517  20.396  0.00  0.00    +0.000 A 
ATOM     13  C   UNL     1       1.193   8.771  21.739  0.00  0.00    +0.000 A 
ATOM     14  N   UNL     1       0.221   9.693  21.878  0.00  0.00    +0.000 NA
ATOM     15  N   UNL     1      -0.123  10.011  20.611  0.00  0.00    +0.000 N 
ATOM     16  C   UNL     1      -1.102  11.041  20.350  0.00  0.00    +0.000 C 
ENDROOT
BRANCH   2  17
ATOM     17  C   UNL     1       2.811   3.426  18.888  0.00  0.00    +0.000 A 
ATOM     18  C   UNL     1       1.831   3.368  17.911  0.00  0.00    +0.000 A 
ATOM     19  C   UNL     1       0.551   3.012  18.428  0.00  0.00    +0.000 A 
ATOM     20  C   UNL     1       0.575   2.841  19.792  0.00  0.00    +0.000 A 
ATOM     21  S   UNL     1       2.138   3.075  20.436  0.00  0.00    +0.000 S 
ENDBRANCH   2  17
BRANCH   1  22
ATOM     22  C   UNL     1       6.146   5.247  19.268  0.00  0.00    +0.000 C 
BRANCH  22  23
ATOM     23  C   UNL     1       6.593   5.867  17.945  0.00  0.00    +0.000 C 
BRANCH  23  25
ATOM     24  C   UNL     1       7.068   4.710  15.949  0.00  0.00    +0.000 C 
ATOM     25  O   UNL     1       7.496   4.985  17.277  0.00  0.00    +0.000 OA
ENDBRANCH  23  25
ENDBRANCH  22  23
ENDBRANCH   1  22
TORSDOF 4
ENDMDL
MODEL 4
REMARK VINA RESULT:      -5.4      7.765     10.071
REMARK  Name = 
REMARK  6 active torsions:
REMARK  status: ('A' for Active; 'I' for Inactive)
REMARK    1  A    between atoms: C_1  and  O_2
REMARK    2  A    between atoms: O_2  and  C_3
REMARK    3  A    between atoms: C_3  and  C_4
REMARK    4  A    between atoms: C_4  and  N_5
REMARK    5  A    between atoms: C_6  and  C_8
REMARK    6  A    between atoms: N_24  and  C_25
REMARK                            x       y       z     vdW  Elec       q    Type
REMARK                         _______ _______ _______ _____ _____    ______ ____
ROOT
ATOM      1  N   UNL     1      -0.825  12.175  21.788  0.00  0.00    +0.000 N 
ATOM      2  C   UNL     1      -0.344  13.504  21.923  0.00  0.00    +0.000 C 
ATOM      3  O   UNL     1      -0.169  13.981  23.051  0.00  0.00    +0.000 OA
ATOM      4  C   UNL     1      -1.648  11.922  20.694  0.00  0.00    +0.000 A 
ATOM      5  N   UNL     1      -1.356  11.174  19.647  0.00  0.00    +0.000 NA
ATOM      6  C   UNL     1      -2.423  11.226  18.784  0.00  0.00    +0.000 A 
ATOM      7  C   UNL     1      -3.540  11.922  19.220  0.00  0.00    +0.000 A 
ATOM      8  S   UNL     1      -3.237  12.599  20.742  0.00  0.00    +0.000 S 
ATOM      9  C   UNL     1      -4.839  12.025  18.461  0.00  0.00    +0.000 C 
ATOM     10  C   UNL     1      -4.608  11.953  16.926  0.00  0.00    +0.000 C 
ATOM     11  C   UNL     1      -3.523  10.968  16.616  0.00  0.00    +0.000 A 
ATOM     12  C   UNL     1      -2.479  10.642  17.454  0.00  0.00    +0.000 A 
ATOM     13  C   UNL     1      -1.689   9.742  16.744  0.00  0.00    +0.000 A 
ATOM     14  N   UNL     1      -2.218   9.478  15.533  0.00  0.00    +0.000 NA
ATOM     15  N   UNL     1      -3.343  10.224  15.488  0.00  0.00    +0.000 N 
ATOM     16  C   UNL     1      -4.233  10.147  14.353  0.00  0.00    +0.000 C 
ENDROOT
BRANCH   2  17
ATOM     17  C   UNL     1      -0.032  14.294  20.724  0.00  0.00    +0.000 A 
ATOM     18  C   UNL     1       0.978  14.177  19.785  0.00  0.00    +0.000 A 
ATOM     19  C   UNL     1       0.927  15.190  18.782  0.00  0.00    +0.000 A 
ATOM     20  C   UNL     1      -0.099  16.078  19.000  0.00  0.00    +0.000 A 
ATOM     21  S   UNL     1      -1.013  15.671  20.383  0.00  0.00    +0.000 S 
ENDBRANCH   2  17
BRANCH   1  22
ATOM     22  C   UNL     1      -1.077  11.450  23.049  0.00  0.00    +0.000 C 
BRANCH  22  23
ATOM     23  C   UNL     1      -0.590  10.002  23.038  0.00  0.00    +0.000 C 
BRANCH  23  25
ATOM     24  C   UNL     1       1.127   8.887  21.874  0.00  0.00    +0.000 C 
ATOM     25  O   UNL     1       0.808   9.962  22.747  0.00  0.00    +0.000 OA
ENDBRANCH  23  25
ENDBRANCH  22  23
ENDBRANCH   1  22
TORSDOF 4
ENDMDL
MODEL 5
REMARK VINA RESULT:      -5.3      5.213      8.663
REMARK  Name = 
REMARK  6 active torsions:
REMARK  status: ('A' for Active; 'I' for Inactive)
REMARK    1  A    between atoms: C_1  and  O_2
REMARK    2  A    between atoms: O_2  and  C_3
REMARK    3  A    between atoms: C_3  and  C_4
REMARK    4  A    between atoms: C_4  and  N_5
REMARK    5  A    between atoms: C_6  and  C_8
REMARK    6  A    between atoms: N_24  and  C_25
REMARK                            x       y       z     vdW  Elec       q    Type
REMARK                         _______ _______ _______ _____ _____    ______ ____
ROOT
ATOM      1  N   UNL     1       0.421  12.474  19.107  0.00  0.00    +0.000 N 
ATOM      2  C   UNL     1      -0.975  12.663  18.928  0.00  0.00    +0.000 C 
ATOM      3  O   UNL     1      -1.496  13.733  19.266  0.00  0.00    +0.000 OA
ATOM      4  C   UNL     1       0.838  11.180  19.409  0.00  0.00    +0.000 A 
ATOM      5  N   UNL     1       1.542  10.380  18.632  0.00  0.00    +0.000 NA
ATOM      6  C   UNL     1       1.697   9.185  19.292  0.00  0.00    +0.000 A 
ATOM      7  C   UNL     1       1.204   9.124  20.586  0.00  0.00    +0.000 A 
ATOM      8  S   UNL     1       0.454  10.588  20.986  0.00  0.00    +0.000 S 
ATOM      9  C   UNL     1       1.348   7.937  21.505  0.00  0.00    +0.000 C 
ATOM     10  C   UNL     1       1.407   6.604  20.708  0.00  0.00    +0.000 C 
ATOM     11  C   UNL     1       2.188   6.795  19.445  0.00  0.00    +0.000 A 
ATOM     12  C   UNL     1       2.307   7.981  18.752  0.00  0.00    +0.000 A 
ATOM     13  C   UNL     1       3.065   7.687  17.622  0.00  0.00    +0.000 A 
ATOM     14  N   UNL     1       3.442   6.393  17.610  0.00  0.00    +0.000 NA
ATOM     15  N   UNL     1       2.909   5.878  18.740  0.00  0.00    +0.000 N 
ATOM     16  C   UNL     1       3.166   4.508  19.117  0.00  0.00    +0.000 C 
ENDROOT
BRANCH   2  17
ATOM     17  C   UNL     1      -1.785  11.599  18.320  0.00  0.00    +0.000 A 
ATOM     18  C   UNL     1      -1.443  10.548  17.486  0.00  0.00    +0.000 A 
ATOM     19  C   UNL     1      -2.564   9.756  17.099  0.00  0.00    +0.000 A 
ATOM     20  C   UNL     1      -3.741  10.243  17.617  0.00  0.00    +0.000 A 
ATOM     21  S   UNL     1      -3.488  11.622  18.590  0.00  0.00    +0.000 S 
ENDBRANCH   2  17
BRANCH   1  22
ATOM     22  C   UNL     1       1.155  13.612  19.693  0.00  0.00    +0.000 C 
BRANCH  22  23
ATOM     23  C   UNL     1       2.628  13.673  19.292  0.00  0.00    +0.000 C 
BRANCH  23  25
ATOM     24  C   UNL     1       3.784  15.165  17.882  0.00  0.00    +0.000 C 
ATOM     25  O   UNL     1       2.748  14.195  17.968  0.00  0.00    +0.000 OA
ENDBRANCH  23  25
ENDBRANCH  22  23
ENDBRANCH   1  22
TORSDOF 4
ENDMDL
MODEL 6
REMARK VINA RESULT:      -5.3     10.048     13.514
REMARK  Name = 
REMARK  6 active torsions:
REMARK  status: ('A' for Active; 'I' for Inactive)
REMARK    1  A    between atoms: C_1  and  O_2
REMARK    2  A    between atoms: O_2  and  C_3
REMARK    3  A    between atoms: C_3  and  C_4
REMARK    4  A    between atoms: C_4  and  N_5
REMARK    5  A    between atoms: C_6  and  C_8
REMARK    6  A    between atoms: N_24  and  C_25
REMARK                            x       y       z     vdW  Elec       q    Type
REMARK                         _______ _______ _______ _____ _____    ______ ____
ROOT
ATOM      1  N   UNL     1      -5.328  13.991  22.532  0.00  0.00    +0.000 N 
ATOM      2  C   UNL     1      -5.966  15.256  22.432  0.00  0.00    +0.000 C 
ATOM      3  O   UNL     1      -6.660  15.668  23.370  0.00  0.00    +0.000 OA
ATOM      4  C   UNL     1      -5.195  13.268  21.349  0.00  0.00    +0.000 A 
ATOM      5  N   UNL     1      -4.070  12.999  20.716  0.00  0.00    +0.000 NA
ATOM      6  C   UNL     1      -4.388  12.305  19.573  0.00  0.00    +0.000 A 
ATOM      7  C   UNL     1      -5.723  11.971  19.403  0.00  0.00    +0.000 A 
ATOM      8  S   UNL     1      -6.641  12.599  20.680  0.00  0.00    +0.000 S 
ATOM      9  C   UNL     1      -6.263  11.142  18.265  0.00  0.00    +0.000 C 
ATOM     10  C   UNL     1      -5.410  11.319  16.977  0.00  0.00    +0.000 C 
ATOM     11  C   UNL     1      -3.959  11.424  17.334  0.00  0.00    +0.000 A 
ATOM     12  C   UNL     1      -3.463  11.912  18.524  0.00  0.00    +0.000 A 
ATOM     13  C   UNL     1      -2.077  11.880  18.399  0.00  0.00    +0.000 A 
ATOM     14  N   UNL     1      -1.705  11.366  17.210  0.00  0.00    +0.000 NA
ATOM     15  N   UNL     1      -2.870  11.080  16.589  0.00  0.00    +0.000 N 
ATOM     16  C   UNL     1      -2.877  10.434  15.298  0.00  0.00    +0.000 C 
ENDROOT
BRANCH   2  17
ATOM     17  C   UNL     1      -5.776  16.077  21.229  0.00  0.00    +0.000 A 
ATOM     18  C   UNL     1      -4.661  16.724  20.725  0.00  0.00    +0.000 A 
ATOM     19  C   UNL     1      -4.931  17.447  19.526  0.00  0.00    +0.000 A 
ATOM     20  C   UNL     1      -6.254  17.365  19.162  0.00  0.00    +0.000 A 
ATOM     21  S   UNL     1      -7.153  16.395  20.240  0.00  0.00    +0.000 S 
ENDBRANCH   2  17
BRANCH   1  22
ATOM     22  C   UNL     1      -5.550  13.256  23.793  0.00  0.00    +0.000 C 
BRANCH  22  23
ATOM     23  C   UNL     1      -4.267  12.941  24.560  0.00  0.00    +0.000 C 
BRANCH  23  25
ATOM     24  C   UNL     1      -2.451  11.903  23.476  0.00  0.00    +0.000 C 
ATOM     25  O   UNL     1      -3.716  11.708  24.096  0.00  0.00    +0.000 OA
ENDBRANCH  23  25
ENDBRANCH  22  23
ENDBRANCH   1  22
TORSDOF 4
ENDMDL
MODEL 7
REMARK VINA RESULT:      -5.3      6.506      9.703
REMARK  Name = 
REMARK  6 active torsions:
REMARK  status: ('A' for Active; 'I' for Inactive)
REMARK    1  A    between atoms: C_1  and  O_2
REMARK    2  A    between atoms: O_2  and  C_3
REMARK    3  A    between atoms: C_3  and  C_4
REMARK    4  A    between atoms: C_4  and  N_5
REMARK    5  A    between atoms: C_6  and  C_8
REMARK    6  A    between atoms: N_24  and  C_25
REMARK                            x       y       z     vdW  Elec       q    Type
REMARK                         _______ _______ _______ _____ _____    ______ ____
ROOT
ATOM      1  N   UNL     1       0.164  11.980  19.673  0.00  0.00    +0.000 N 
ATOM      2  C   UNL     1       1.064  13.078  19.629  0.00  0.00    +0.000 C 
ATOM      3  O   UNL     1       2.280  12.870  19.551  0.00  0.00    +0.000 OA
ATOM      4  C   UNL     1      -0.989  12.153  20.433  0.00  0.00    +0.000 A 
ATOM      5  N   UNL     1      -2.224  12.242  19.979  0.00  0.00    +0.000 NA
ATOM      6  C   UNL     1      -3.053  12.452  21.055  0.00  0.00    +0.000 A 
ATOM      7  C   UNL     1      -2.460  12.423  22.308  0.00  0.00    +0.000 A 
ATOM      8  S   UNL     1      -0.791  12.188  22.150  0.00  0.00    +0.000 S 
ATOM      9  C   UNL     1      -3.205  12.547  23.613  0.00  0.00    +0.000 C 
ATOM     10  C   UNL     1      -4.485  13.416  23.458  0.00  0.00    +0.000 C 
ATOM     11  C   UNL     1      -5.134  13.140  22.136  0.00  0.00    +0.000 A 
ATOM     12  C   UNL     1      -4.480  12.724  20.997  0.00  0.00    +0.000 A 
ATOM     13  C   UNL     1      -5.453  12.653  20.005  0.00  0.00    +0.000 A 
ATOM     14  N   UNL     1      -6.670  12.969  20.490  0.00  0.00    +0.000 NA
ATOM     15  N   UNL     1      -6.449  13.245  21.794  0.00  0.00    +0.000 N 
ATOM     16  C   UNL     1      -7.549  13.557  22.676  0.00  0.00    +0.000 C 
ENDROOT
BRANCH   2  17
ATOM     17  C   UNL     1       0.543  14.451  19.651  0.00  0.00    +0.000 A 
ATOM     18  C   UNL     1      -0.203  15.165  18.729  0.00  0.00    +0.000 A 
ATOM     19  C   UNL     1      -0.471  16.503  19.144  0.00  0.00    +0.000 A 
ATOM     20  C   UNL     1       0.107  16.790  20.358  0.00  0.00    +0.000 A 
ATOM     21  S   UNL     1       0.936  15.446  21.004  0.00  0.00    +0.000 S 
ENDBRANCH   2  17
BRANCH   1  22
ATOM     22  C   UNL     1       0.780  10.640  19.611  0.00  0.00    +0.000 C 
BRANCH  22  23
ATOM     23  C   UNL     1       0.600   9.937  18.266  0.00  0.00    +0.000 C 
BRANCH  23  25
ATOM     24  C   UNL     1       2.409   8.501  17.807  0.00  0.00    +0.000 C 
ATOM     25  O   UNL     1       1.865   9.801  17.618  0.00  0.00    +0.000 OA
ENDBRANCH  23  25
ENDBRANCH  22  23
ENDBRANCH   1  22
TORSDOF 4
ENDMDL
MODEL 8
REMARK VINA RESULT:      -5.3      6.866     10.489
REMARK  Name = 
REMARK  6 active torsions:
REMARK  status: ('A' for Active; 'I' for Inactive)
REMARK    1  A    between atoms: C_1  and  O_2
REMARK    2  A    between atoms: O_2  and  C_3
REMARK    3  A    between atoms: C_3  and  C_4
REMARK    4  A    between atoms: C_4  and  N_5
REMARK    5  A    between atoms: C_6  and  C_8
REMARK    6  A    between atoms: N_24  and  C_25
REMARK                            x       y       z     vdW  Elec       q    Type
REMARK                         _______ _______ _______ _____ _____    ______ ____
ROOT
ATOM      1  N   UNL     1      -2.371  13.532  21.045  0.00  0.00    +0.000 N 
ATOM      2  C   UNL     1      -1.791  14.816  20.864  0.00  0.00    +0.000 C 
ATOM      3  O   UNL     1      -2.520  15.804  20.723  0.00  0.00    +0.000 OA
ATOM      4  C   UNL     1      -1.674  12.454  20.506  0.00  0.00    +0.000 A 
ATOM      5  N   UNL     1      -1.065  11.498  21.179  0.00  0.00    +0.000 NA
ATOM      6  C   UNL     1      -0.465  10.661  20.270  0.00  0.00    +0.000 A 
ATOM      7  C   UNL     1      -0.704  10.929  18.931  0.00  0.00    +0.000 A 
ATOM      8  S   UNL     1      -1.662  12.318  18.784  0.00  0.00    +0.000 S 
ATOM      9  C   UNL     1      -0.210  10.084  17.784  0.00  0.00    +0.000 C 
ATOM     10  C   UNL     1       1.130   9.377  18.134  0.00  0.00    +0.000 C 
ATOM     11  C   UNL     1       1.119   8.937  19.566  0.00  0.00    +0.000 A 
ATOM     12  C   UNL     1       0.410   9.543  20.581  0.00  0.00    +0.000 A 
ATOM     13  C   UNL     1       0.738   8.847  21.741  0.00  0.00    +0.000 A 
ATOM     14  N   UNL     1       1.581   7.829  21.478  0.00  0.00    +0.000 NA
ATOM     15  N   UNL     1       1.782   7.896  20.144  0.00  0.00    +0.000 N 
ATOM     16  C   UNL     1       2.586   6.904  19.469  0.00  0.00    +0.000 C 
ENDROOT
BRANCH   2  17
ATOM     17  C   UNL     1      -0.329  14.964  20.873  0.00  0.00    +0.000 A 
ATOM     18  C   UNL     1       0.607  14.774  21.875  0.00  0.00    +0.000 A 
ATOM     19  C   UNL     1       1.939  15.065  21.457  0.00  0.00    +0.000 A 
ATOM     20  C   UNL     1       1.985  15.505  20.155  0.00  0.00    +0.000 A 
ATOM     21  S   UNL     1       0.437  15.533  19.436  0.00  0.00    +0.000 S 
ENDBRANCH   2  17
BRANCH   1  22
ATOM     22  C   UNL     1      -3.847  13.490  21.055  0.00  0.00    +0.000 C 
BRANCH  22  23
ATOM     23  C   UNL     1      -4.456  13.492  22.457  0.00  0.00    +0.000 C 
BRANCH  23  25
ATOM     24  C   UNL     1      -4.247  12.436  24.552  0.00  0.00    +0.000 C 
ATOM     25  O   UNL     1      -4.088  12.297  23.147  0.00  0.00    +0.000 OA
ENDBRANCH  23  25
ENDBRANCH  22  23
ENDBRANCH   1  22
TORSDOF 4
ENDMDL
MODEL 9
REMARK VINA RESULT:      -5.3      7.890      9.849
REMARK  Name = 
REMARK  6 active torsions:
REMARK  status: ('A' for Active; 'I' for Inactive)
REMARK    1  A    between atoms: C_1  and  O_2
REMARK    2  A    between atoms: O_2  and  C_3
REMARK    3  A    between atoms: C_3  and  C_4
REMARK    4  A    between atoms: C_4  and  N_5
REMARK    5  A    between atoms: C_6  and  C_8
REMARK    6  A    between atoms: N_24  and  C_25
REMARK                            x       y       z     vdW  Elec       q    Type
REMARK                         _______ _______ _______ _____ _____    ______ ____
ROOT
ATOM      1  N   UNL     1       9.761  13.749  19.245  0.00  0.00    +0.000 N 
ATOM      2  C   UNL     1       9.452  14.816  18.360  0.00  0.00    +0.000 C 
ATOM      3  O   UNL     1      10.249  15.120  17.465  0.00  0.00    +0.000 OA
ATOM      4  C   UNL     1       9.302  13.876  20.554  0.00  0.00    +0.000 A 
ATOM      5  N   UNL     1       8.364  13.150  21.131  0.00  0.00    +0.000 NA
ATOM      6  C   UNL     1       8.187  13.631  22.405  0.00  0.00    +0.000 A 
ATOM      7  C   UNL     1       9.048  14.637  22.813  0.00  0.00    +0.000 A 
ATOM      8  S   UNL     1      10.085  15.057  21.542  0.00  0.00    +0.000 S 
ATOM      9  C   UNL     1       9.074  15.239  24.196  0.00  0.00    +0.000 C 
ATOM     10  C   UNL     1       7.668  15.201  24.859  0.00  0.00    +0.000 C 
ATOM     11  C   UNL     1       6.967  13.926  24.504  0.00  0.00    +0.000 A 
ATOM     12  C   UNL     1       7.170  13.198  23.351  0.00  0.00    +0.000 A 
ATOM     13  C   UNL     1       6.275  12.134  23.411  0.00  0.00    +0.000 A 
ATOM     14  N   UNL     1       5.565  12.157  24.556  0.00  0.00    +0.000 NA
ATOM     15  N   UNL     1       6.019  13.248  25.210  0.00  0.00    +0.000 N 
ATOM     16  C   UNL     1       5.538  13.566  26.534  0.00  0.00    +0.000 C 
ENDROOT
BRANCH   2  17
ATOM     17  C   UNL     1       8.176  15.532  18.496  0.00  0.00    +0.000 A 
ATOM     18  C   UNL     1       7.877  16.788  18.995  0.00  0.00    +0.000 A 
ATOM     19  C   UNL     1       6.482  17.081  18.969  0.00  0.00    +0.000 A 
ATOM     20  C   UNL     1       5.744  16.027  18.484  0.00  0.00    +0.000 A 
ATOM     21  S   UNL     1       6.732  14.711  18.033  0.00  0.00    +0.000 S 
ENDBRANCH   2  17
BRANCH   1  22
ATOM     22  C   UNL     1      11.049  13.069  19.007  0.00  0.00    +0.000 C 
BRANCH  22  23
ATOM     23  C   UNL     1      10.913  11.708  18.326  0.00  0.00    +0.000 C 
BRANCH  23  25
ATOM     24  C   UNL     1       9.273  10.217  19.123  0.00  0.00    +0.000 C 
ATOM     25  O   UNL     1       9.538  11.327  18.275  0.00  0.00    +0.000 OA
ENDBRANCH  23  25
ENDBRANCH  22  23
ENDBRANCH   1  22
TORSDOF 4
ENDMDL
