MODEL 1
REMARK VINA RESULT:      -7.1      0.000      0.000
REMARK  Name = 
REMARK  7 active torsions:
REMARK  status: ('A' for Active; 'I' for Inactive)
REMARK    1  A    between atoms: C_1  and  C_2
REMARK    2  A    between atoms: C_2  and  C_3
REMARK    3  A    between atoms: N_6  and  C_7
REMARK    4  A    between atoms: C_10  and  C_11
REMARK    5  A    between atoms: C_13  and  C_14
REMARK    6  A    between atoms: N_21  and  C_22
REMARK    7  A    between atoms: C_25  and  O_26
REMARK                            x       y       z     vdW  Elec       q    Type
REMARK                         _______ _______ _______ _____ _____    ______ ____
ROOT
ATOM      1  C   UNL     1      -0.694   8.297  21.519  0.00  0.00    +0.000 C 
ATOM      2  C   UNL     1       0.723   8.828  21.264  0.00  0.00    +0.000 C 
ATOM      3  C   UNL     1       1.410   9.254  22.566  0.00  0.00    +0.000 C 
ATOM      4  C   UNL     1       1.560   7.670  20.706  0.00  0.00    +0.000 C 
ATOM      5  O   UNL     1       1.808   6.639  21.327  0.00  0.00    +0.000 OA
ATOM      6  N   UNL     1       1.942   7.960  19.421  0.00  0.00    +0.000 N 
ATOM      7  C   UNL     1       1.525   9.235  19.048  0.00  0.00    +0.000 C 
ATOM      8  S   UNL     1       2.006  10.030  17.646  0.00  0.00    +0.000 S 
ATOM      9  N   UNL     1       0.770   9.776  20.136  0.00  0.00    +0.000 N 
ENDROOT
BRANCH   6  10
ATOM     10  C   UNL     1       2.718   7.060  18.649  0.00  0.00    +0.000 A 
ATOM     11  C   UNL     1       3.835   7.511  17.945  0.00  0.00    +0.000 A 
ATOM     12  C   UNL     1       4.568   6.629  17.145  0.00  0.00    +0.000 A 
ATOM     13  C   UNL     1       4.215   5.273  17.054  0.00  0.00    +0.000 A 
ATOM     14  C   UNL     1       3.111   4.795  17.778  0.00  0.00    +0.000 A 
ATOM     15  C   UNL     1       2.356   5.709  18.551  0.00  0.00    +0.000 A 
BRANCH  14  16
ATOM     16  C   UNL     1       2.696   3.342  17.808  0.00  0.00    +0.000 C 
ATOM     17  F   UNL     1       3.628   2.482  18.288  0.00  0.00    +0.000 F 
ATOM     18  F   UNL     1       1.589   3.153  18.582  0.00  0.00    +0.000 F 
ATOM     19  F   UNL     1       2.366   2.878  16.573  0.00  0.00    +0.000 F 
ENDBRANCH  14  16
BRANCH  13  20
ATOM     20  C   UNL     1       5.010   4.439  16.194  0.00  0.00    +0.000 C 
ATOM     21  N   UNL     1       5.681   3.764  15.531  0.00  0.00    +0.000 NA
ENDBRANCH  13  20
ENDBRANCH   6  10
BRANCH   9  22
ATOM     22  C   UNL     1       0.028  11.008  20.122  0.00  0.00    +0.000 A 
ATOM     23  C   UNL     1      -1.204  11.117  19.457  0.00  0.00    +0.000 A 
ATOM     24  C   UNL     1      -1.902  12.332  19.384  0.00  0.00    +0.000 A 
ATOM     25  C   UNL     1      -1.389  13.453  20.016  0.00  0.00    +0.000 A 
ATOM     26  C   UNL     1      -0.202  13.369  20.721  0.00  0.00    +0.000 A 
ATOM     27  C   UNL     1       0.500  12.157  20.767  0.00  0.00    +0.000 A 
BRANCH  25  28
ATOM     28  O   UNL     1      -2.015  14.660  19.962  0.00  0.00    +0.000 OA
ATOM     29  H   UNL     1      -2.903  14.535  19.587  0.00  0.00    +0.000 HD
ENDBRANCH  25  28
ENDBRANCH   9  22
TORSDOF 5
ENDMDL
MODEL 2
REMARK VINA RESULT:      -7.0      0.105      1.143
REMARK  Name = 
REMARK  7 active torsions:
REMARK  status: ('A' for Active; 'I' for Inactive)
REMARK    1  A    between atoms: C_1  and  C_2
REMARK    2  A    between atoms: C_2  and  C_3
REMARK    3  A    between atoms: N_6  and  C_7
REMARK    4  A    between atoms: C_10  and  C_11
REMARK    5  A    between atoms: C_13  and  C_14
REMARK    6  A    between atoms: N_21  and  C_22
REMARK    7  A    between atoms: C_25  and  O_26
REMARK                            x       y       z     vdW  Elec       q    Type
REMARK                         _______ _______ _______ _____ _____    ______ ____
ROOT
ATOM      1  C   UNL     1      -0.702   8.288  21.524  0.00  0.00    +0.000 C 
ATOM      2  C   UNL     1       0.714   8.819  21.267  0.00  0.00    +0.000 C 
ATOM      3  C   UNL     1       1.401   9.251  22.567  0.00  0.00    +0.000 C 
ATOM      4  C   UNL     1       1.553   7.662  20.713  0.00  0.00    +0.000 C 
ATOM      5  O   UNL     1       1.803   6.632  21.337  0.00  0.00    +0.000 OA
ATOM      6  N   UNL     1       1.934   7.949  19.426  0.00  0.00    +0.000 N 
ATOM      7  C   UNL     1       1.515   9.221  19.049  0.00  0.00    +0.000 C 
ATOM      8  S   UNL     1       1.995  10.013  17.646  0.00  0.00    +0.000 S 
ATOM      9  N   UNL     1       0.760   9.765  20.136  0.00  0.00    +0.000 N 
ENDROOT
BRANCH   6  10
ATOM     10  C   UNL     1       2.712   7.047  18.657  0.00  0.00    +0.000 A 
ATOM     11  C   UNL     1       3.863   7.485  18.001  0.00  0.00    +0.000 A 
ATOM     12  C   UNL     1       4.598   6.603  17.203  0.00  0.00    +0.000 A 
ATOM     13  C   UNL     1       4.212   5.261  17.066  0.00  0.00    +0.000 A 
ATOM     14  C   UNL     1       3.073   4.795  17.741  0.00  0.00    +0.000 A 
ATOM     15  C   UNL     1       2.318   5.709  18.513  0.00  0.00    +0.000 A 
BRANCH  14  16
ATOM     16  C   UNL     1       2.619   3.353  17.720  0.00  0.00    +0.000 C 
ATOM     17  F   UNL     1       2.396   2.832  16.488  0.00  0.00    +0.000 F 
ATOM     18  F   UNL     1       3.537   2.532  18.305  0.00  0.00    +0.000 F 
ATOM     19  F   UNL     1       1.464   3.170  18.414  0.00  0.00    +0.000 F 
ENDBRANCH  14  16
BRANCH  13  20
ATOM     20  C   UNL     1       5.013   4.427  16.210  0.00  0.00    +0.000 C 
ATOM     21  N   UNL     1       5.691   3.784  15.523  0.00  0.00    +0.000 NA
ENDBRANCH  13  20
ENDBRANCH   6  10
BRANCH   9  22
ATOM     22  C   UNL     1       0.016  10.995  20.119  0.00  0.00    +0.000 A 
ATOM     23  C   UNL     1       0.459  12.132  20.815  0.00  0.00    +0.000 A 
ATOM     24  C   UNL     1      -0.293  13.316  20.855  0.00  0.00    +0.000 A 
ATOM     25  C   UNL     1      -1.489  13.389  20.160  0.00  0.00    +0.000 A 
ATOM     26  C   UNL     1      -1.931  12.304  19.424  0.00  0.00    +0.000 A 
ATOM     27  C   UNL     1      -1.185  11.119  19.410  0.00  0.00    +0.000 A 
BRANCH  25  28
ATOM     28  O   UNL     1      -2.266  14.506  20.180  0.00  0.00    +0.000 OA
ATOM     29  H   UNL     1      -3.186  14.250  19.997  0.00  0.00    +0.000 HD
ENDBRANCH  25  28
ENDBRANCH   9  22
TORSDOF 5
ENDMDL
MODEL 3
REMARK VINA RESULT:      -6.9      3.710      8.124
REMARK  Name = 
REMARK  7 active torsions:
REMARK  status: ('A' for Active; 'I' for Inactive)
REMARK    1  A    between atoms: C_1  and  C_2
REMARK    2  A    between atoms: C_2  and  C_3
REMARK    3  A    between atoms: N_6  and  C_7
REMARK    4  A    between atoms: C_10  and  C_11
REMARK    5  A    between atoms: C_13  and  C_14
REMARK    6  A    between atoms: N_21  and  C_22
REMARK    7  A    between atoms: C_25  and  O_26
REMARK                            x       y       z     vdW  Elec       q    Type
REMARK                         _______ _______ _______ _____ _____    ______ ____
ROOT
ATOM      1  C   UNL     1       4.016   4.211  20.040  0.00  0.00    +0.000 C 
ATOM      2  C   UNL     1       2.988   4.848  19.095  0.00  0.00    +0.000 C 
ATOM      3  C   UNL     1       2.092   3.792  18.439  0.00  0.00    +0.000 C 
ATOM      4  C   UNL     1       2.056   5.724  19.941  0.00  0.00    +0.000 C 
ATOM      5  O   UNL     1       1.320   5.291  20.825  0.00  0.00    +0.000 OA
ATOM      6  N   UNL     1       2.210   7.038  19.578  0.00  0.00    +0.000 N 
ATOM      7  C   UNL     1       3.094   7.166  18.511  0.00  0.00    +0.000 C 
ATOM      8  S   UNL     1       3.351   8.581  17.641  0.00  0.00    +0.000 S 
ATOM      9  N   UNL     1       3.595   5.859  18.209  0.00  0.00    +0.000 N 
ENDROOT
BRANCH   6  10
ATOM     10  C   UNL     1       1.480   8.078  20.205  0.00  0.00    +0.000 A 
ATOM     11  C   UNL     1       1.513   8.233  21.592  0.00  0.00    +0.000 A 
ATOM     12  C   UNL     1       0.752   9.229  22.210  0.00  0.00    +0.000 A 
ATOM     13  C   UNL     1      -0.037  10.109  21.452  0.00  0.00    +0.000 A 
ATOM     14  C   UNL     1      -0.061   9.988  20.053  0.00  0.00    +0.000 A 
ATOM     15  C   UNL     1       0.684   8.949  19.447  0.00  0.00    +0.000 A 
BRANCH  14  16
ATOM     16  C   UNL     1      -0.816  10.932  19.145  0.00  0.00    +0.000 C 
ATOM     17  F   UNL     1      -2.120  11.125  19.463  0.00  0.00    +0.000 F 
ATOM     18  F   UNL     1      -0.253  12.173  19.135  0.00  0.00    +0.000 F 
ATOM     19  F   UNL     1      -0.809  10.512  17.851  0.00  0.00    +0.000 F 
ENDBRANCH  14  16
BRANCH  13  20
ATOM     20  C   UNL     1      -0.804  11.092  22.168  0.00  0.00    +0.000 C 
ATOM     21  N   UNL     1      -1.410  11.867  22.783  0.00  0.00    +0.000 NA
ENDBRANCH  13  20
ENDBRANCH   6  10
BRANCH   9  22
ATOM     22  C   UNL     1       4.644   5.550  17.277  0.00  0.00    +0.000 A 
ATOM     23  C   UNL     1       5.931   6.098  17.408  0.00  0.00    +0.000 A 
ATOM     24  C   UNL     1       6.941   5.852  16.467  0.00  0.00    +0.000 A 
ATOM     25  C   UNL     1       6.685   5.014  15.394  0.00  0.00    +0.000 A 
ATOM     26  C   UNL     1       5.444   4.418  15.260  0.00  0.00    +0.000 A 
ATOM     27  C   UNL     1       4.434   4.689  16.192  0.00  0.00    +0.000 A 
BRANCH  25  28
ATOM     28  O   UNL     1       7.623   4.755  14.442  0.00  0.00    +0.000 OA
ATOM     29  H   UNL     1       8.505   4.875  14.832  0.00  0.00    +0.000 HD
ENDBRANCH  25  28
ENDBRANCH   9  22
TORSDOF 5
ENDMDL
MODEL 4
REMARK VINA RESULT:      -6.7      2.521      3.464
REMARK  Name = 
REMARK  7 active torsions:
REMARK  status: ('A' for Active; 'I' for Inactive)
REMARK    1  A    between atoms: C_1  and  C_2
REMARK    2  A    between atoms: C_2  and  C_3
REMARK    3  A    between atoms: N_6  and  C_7
REMARK    4  A    between atoms: C_10  and  C_11
REMARK    5  A    between atoms: C_13  and  C_14
REMARK    6  A    between atoms: N_21  and  C_22
REMARK    7  A    between atoms: C_25  and  O_26
REMARK                            x       y       z     vdW  Elec       q    Type
REMARK                         _______ _______ _______ _____ _____    ______ ____
ROOT
ATOM      1  C   UNL     1       0.987  12.138  18.430  0.00  0.00    +0.000 C 
ATOM      2  C   UNL     1       0.128  11.042  19.073  0.00  0.00    +0.000 C 
ATOM      3  C   UNL     1      -1.305  11.055  18.529  0.00  0.00    +0.000 C 
ATOM      4  C   UNL     1       0.720   9.687  18.667  0.00  0.00    +0.000 C 
ATOM      5  O   UNL     1       0.780   9.283  17.507  0.00  0.00    +0.000 OA
ATOM      6  N   UNL     1       1.189   9.041  19.782  0.00  0.00    +0.000 N 
ATOM      7  C   UNL     1       0.917   9.768  20.937  0.00  0.00    +0.000 C 
ATOM      8  S   UNL     1       1.122   9.193  22.504  0.00  0.00    +0.000 S 
ATOM      9  N   UNL     1       0.291  10.992  20.538  0.00  0.00    +0.000 N 
ENDROOT
BRANCH   6  10
ATOM     10  C   UNL     1       1.804   7.766  19.705  0.00  0.00    +0.000 A 
ATOM     11  C   UNL     1       1.483   6.767  20.626  0.00  0.00    +0.000 A 
ATOM     12  C   UNL     1       2.129   5.529  20.577  0.00  0.00    +0.000 A 
ATOM     13  C   UNL     1       3.089   5.254  19.590  0.00  0.00    +0.000 A 
ATOM     14  C   UNL     1       3.404   6.236  18.637  0.00  0.00    +0.000 A 
ATOM     15  C   UNL     1       2.770   7.498  18.725  0.00  0.00    +0.000 A 
BRANCH  14  16
ATOM     16  C   UNL     1       4.364   6.012  17.491  0.00  0.00    +0.000 C 
ATOM     17  F   UNL     1       4.101   4.931  16.715  0.00  0.00    +0.000 F 
ATOM     18  F   UNL     1       4.385   7.078  16.641  0.00  0.00    +0.000 F 
ATOM     19  F   UNL     1       5.645   5.857  17.920  0.00  0.00    +0.000 F 
ENDBRANCH  14  16
BRANCH  13  20
ATOM     20  C   UNL     1       3.719   3.962  19.623  0.00  0.00    +0.000 C 
ATOM     21  N   UNL     1       4.196   2.905  19.624  0.00  0.00    +0.000 NA
ENDBRANCH  13  20
ENDBRANCH   6  10
BRANCH   9  22
ATOM     22  C   UNL     1      -0.023  12.101  21.396  0.00  0.00    +0.000 A 
ATOM     23  C   UNL     1      -1.060  12.030  22.340  0.00  0.00    +0.000 A 
ATOM     24  C   UNL     1      -1.415  13.130  23.136  0.00  0.00    +0.000 A 
ATOM     25  C   UNL     1      -0.702  14.313  23.023  0.00  0.00    +0.000 A 
ATOM     26  C   UNL     1       0.358  14.402  22.138  0.00  0.00    +0.000 A 
ATOM     27  C   UNL     1       0.688  13.305  21.331  0.00  0.00    +0.000 A 
BRANCH  25  28
ATOM     28  O   UNL     1      -1.014  15.415  23.757  0.00  0.00    +0.000 OA
ATOM     29  H   UNL     1      -1.968  15.409  23.940  0.00  0.00    +0.000 HD
ENDBRANCH  25  28
ENDBRANCH   9  22
TORSDOF 5
ENDMDL
MODEL 5
REMARK VINA RESULT:      -6.7      1.907      2.406
REMARK  Name = 
REMARK  7 active torsions:
REMARK  status: ('A' for Active; 'I' for Inactive)
REMARK    1  A    between atoms: C_1  and  C_2
REMARK    2  A    between atoms: C_2  and  C_3
REMARK    3  A    between atoms: N_6  and  C_7
REMARK    4  A    between atoms: C_10  and  C_11
REMARK    5  A    between atoms: C_13  and  C_14
REMARK    6  A    between atoms: N_21  and  C_22
REMARK    7  A    between atoms: C_25  and  O_26
REMARK                            x       y       z     vdW  Elec       q    Type
REMARK                         _______ _______ _______ _____ _____    ______ ____
ROOT
ATOM      1  C   UNL     1      -0.642   8.156  21.470  0.00  0.00    +0.000 C 
ATOM      2  C   UNL     1       0.785   8.663  21.224  0.00  0.00    +0.000 C 
ATOM      3  C   UNL     1       1.468   9.085  22.529  0.00  0.00    +0.000 C 
ATOM      4  C   UNL     1       1.609   7.491  20.678  0.00  0.00    +0.000 C 
ATOM      5  O   UNL     1       1.836   6.459  21.306  0.00  0.00    +0.000 OA
ATOM      6  N   UNL     1       2.006   7.770  19.395  0.00  0.00    +0.000 N 
ATOM      7  C   UNL     1       1.611   9.049  19.013  0.00  0.00    +0.000 C 
ATOM      8  S   UNL     1       2.116   9.830  17.612  0.00  0.00    +0.000 S 
ATOM      9  N   UNL     1       0.855   9.606  20.092  0.00  0.00    +0.000 N 
ENDROOT
BRANCH   6  10
ATOM     10  C   UNL     1       2.775   6.855  18.633  0.00  0.00    +0.000 A 
ATOM     11  C   UNL     1       2.203   5.677  18.150  0.00  0.00    +0.000 A 
ATOM     12  C   UNL     1       2.978   4.754  17.442  0.00  0.00    +0.000 A 
ATOM     13  C   UNL     1       4.335   5.003  17.180  0.00  0.00    +0.000 A 
ATOM     14  C   UNL     1       4.921   6.195  17.633  0.00  0.00    +0.000 A 
ATOM     15  C   UNL     1       4.132   7.100  18.382  0.00  0.00    +0.000 A 
BRANCH  14  16
ATOM     16  C   UNL     1       6.350   6.590  17.336  0.00  0.00    +0.000 C 
ATOM     17  F   UNL     1       6.785   6.300  16.084  0.00  0.00    +0.000 F 
ATOM     18  F   UNL     1       6.540   7.931  17.490  0.00  0.00    +0.000 F 
ATOM     19  F   UNL     1       7.232   5.993  18.182  0.00  0.00    +0.000 F 
ENDBRANCH  14  16
BRANCH  13  20
ATOM     20  C   UNL     1       5.065   3.992  16.462  0.00  0.00    +0.000 C 
ATOM     21  N   UNL     1       5.673   3.208  15.862  0.00  0.00    +0.000 NA
ENDBRANCH  13  20
ENDBRANCH   6  10
BRANCH   9  22
ATOM     22  C   UNL     1       0.133  10.849  20.067  0.00  0.00    +0.000 A 
ATOM     23  C   UNL     1      -1.111  10.963  19.425  0.00  0.00    +0.000 A 
ATOM     24  C   UNL     1      -1.792  12.187  19.340  0.00  0.00    +0.000 A 
ATOM     25  C   UNL     1      -1.249  13.313  19.937  0.00  0.00    +0.000 A 
ATOM     26  C   UNL     1      -0.049  13.225  20.619  0.00  0.00    +0.000 A 
ATOM     27  C   UNL     1       0.635  12.004  20.678  0.00  0.00    +0.000 A 
BRANCH  25  28
ATOM     28  O   UNL     1      -1.858  14.528  19.870  0.00  0.00    +0.000 OA
ATOM     29  H   UNL     1      -2.277  14.715  20.727  0.00  0.00    +0.000 HD
ENDBRANCH  25  28
ENDBRANCH   9  22
TORSDOF 5
ENDMDL
MODEL 6
REMARK VINA RESULT:      -6.7      2.584      3.499
REMARK  Name = 
REMARK  7 active torsions:
REMARK  status: ('A' for Active; 'I' for Inactive)
REMARK    1  A    between atoms: C_1  and  C_2
REMARK    2  A    between atoms: C_2  and  C_3
REMARK    3  A    between atoms: N_6  and  C_7
REMARK    4  A    between atoms: C_10  and  C_11
REMARK    5  A    between atoms: C_13  and  C_14
REMARK    6  A    between atoms: N_21  and  C_22
REMARK    7  A    between atoms: C_25  and  O_26
REMARK                            x       y       z     vdW  Elec       q    Type
REMARK                         _______ _______ _______ _____ _____    ______ ____
ROOT
ATOM      1  C   UNL     1       0.564  12.095  18.408  0.00  0.00    +0.000 C 
ATOM      2  C   UNL     1      -0.150  10.910  19.071  0.00  0.00    +0.000 C 
ATOM      3  C   UNL     1      -1.597  10.778  18.583  0.00  0.00    +0.000 C 
ATOM      4  C   UNL     1       0.563   9.628  18.626  0.00  0.00    +0.000 C 
ATOM      5  O   UNL     1       0.619   9.241  17.460  0.00  0.00    +0.000 OA
ATOM      6  N   UNL     1       1.141   9.025  19.714  0.00  0.00    +0.000 N 
ATOM      7  C   UNL     1       0.840   9.710  20.888  0.00  0.00    +0.000 C 
ATOM      8  S   UNL     1       1.166   9.148  22.438  0.00  0.00    +0.000 S 
ATOM      9  N   UNL     1       0.075  10.865  20.527  0.00  0.00    +0.000 N 
ENDROOT
BRANCH   6  10
ATOM     10  C   UNL     1       1.881   7.822  19.599  0.00  0.00    +0.000 A 
ATOM     11  C   UNL     1       1.705   6.789  20.520  0.00  0.00    +0.000 A 
ATOM     12  C   UNL     1       2.475   5.625  20.431  0.00  0.00    +0.000 A 
ATOM     13  C   UNL     1       3.415   5.459  19.403  0.00  0.00    +0.000 A 
ATOM     14  C   UNL     1       3.586   6.475  18.449  0.00  0.00    +0.000 A 
ATOM     15  C   UNL     1       2.828   7.663  18.577  0.00  0.00    +0.000 A 
BRANCH  14  16
ATOM     16  C   UNL     1       4.516   6.360  17.262  0.00  0.00    +0.000 C 
ATOM     17  F   UNL     1       5.839   6.392  17.556  0.00  0.00    +0.000 F 
ATOM     18  F   UNL     1       4.318   5.195  16.583  0.00  0.00    +0.000 F 
ATOM     19  F   UNL     1       4.314   7.355  16.356  0.00  0.00    +0.000 F 
ENDBRANCH  14  16
BRANCH  13  20
ATOM     20  C   UNL     1       4.178   4.240  19.396  0.00  0.00    +0.000 C 
ATOM     21  N   UNL     1       4.778   3.248  19.351  0.00  0.00    +0.000 NA
ENDBRANCH  13  20
ENDBRANCH   6  10
BRANCH   9  22
ATOM     22  C   UNL     1      -0.318  11.929  21.410  0.00  0.00    +0.000 A 
ATOM     23  C   UNL     1       0.359  13.159  21.428  0.00  0.00    +0.000 A 
ATOM     24  C   UNL     1       0.022  14.178  22.331  0.00  0.00    +0.000 A 
ATOM     25  C   UNL     1      -1.033  13.991  23.209  0.00  0.00    +0.000 A 
ATOM     26  C   UNL     1      -1.753  12.810  23.186  0.00  0.00    +0.000 A 
ATOM     27  C   UNL     1      -1.393  11.789  22.296  0.00  0.00    +0.000 A 
BRANCH  25  28
ATOM     28  O   UNL     1      -1.391  14.939  24.118  0.00  0.00    +0.000 OA
ATOM     29  H   UNL     1      -2.354  14.903  24.243  0.00  0.00    +0.000 HD
ENDBRANCH  25  28
ENDBRANCH   9  22
TORSDOF 5
ENDMDL
MODEL 7
REMARK VINA RESULT:      -6.7      1.901      2.555
REMARK  Name = 
REMARK  7 active torsions:
REMARK  status: ('A' for Active; 'I' for Inactive)
REMARK    1  A    between atoms: C_1  and  C_2
REMARK    2  A    between atoms: C_2  and  C_3
REMARK    3  A    between atoms: N_6  and  C_7
REMARK    4  A    between atoms: C_10  and  C_11
REMARK    5  A    between atoms: C_13  and  C_14
REMARK    6  A    between atoms: N_21  and  C_22
REMARK    7  A    between atoms: C_25  and  O_26
REMARK                            x       y       z     vdW  Elec       q    Type
REMARK                         _______ _______ _______ _____ _____    ______ ____
ROOT
ATOM      1  C   UNL     1      -0.639   8.162  21.461  0.00  0.00    +0.000 C 
ATOM      2  C   UNL     1       0.791   8.659  21.211  0.00  0.00    +0.000 C 
ATOM      3  C   UNL     1       1.480   9.077  22.515  0.00  0.00    +0.000 C 
ATOM      4  C   UNL     1       1.605   7.480  20.664  0.00  0.00    +0.000 C 
ATOM      5  O   UNL     1       1.825   6.446  21.293  0.00  0.00    +0.000 OA
ATOM      6  N   UNL     1       2.000   7.754  19.380  0.00  0.00    +0.000 N 
ATOM      7  C   UNL     1       1.615   9.036  18.997  0.00  0.00    +0.000 C 
ATOM      8  S   UNL     1       2.121   9.812  17.595  0.00  0.00    +0.000 S 
ATOM      9  N   UNL     1       0.866   9.600  20.078  0.00  0.00    +0.000 N 
ENDROOT
BRANCH   6  10
ATOM     10  C   UNL     1       2.760   6.832  18.617  0.00  0.00    +0.000 A 
ATOM     11  C   UNL     1       2.196   5.630  18.189  0.00  0.00    +0.000 A 
ATOM     12  C   UNL     1       2.964   4.702  17.481  0.00  0.00    +0.000 A 
ATOM     13  C   UNL     1       4.305   4.969  17.161  0.00  0.00    +0.000 A 
ATOM     14  C   UNL     1       4.882   6.187  17.557  0.00  0.00    +0.000 A 
ATOM     15  C   UNL     1       4.102   7.097  18.309  0.00  0.00    +0.000 A 
BRANCH  14  16
ATOM     16  C   UNL     1       6.290   6.601  17.197  0.00  0.00    +0.000 C 
ATOM     17  F   UNL     1       7.277   5.894  17.802  0.00  0.00    +0.000 F 
ATOM     18  F   UNL     1       6.520   6.479  15.858  0.00  0.00    +0.000 F 
ATOM     19  F   UNL     1       6.533   7.906  17.496  0.00  0.00    +0.000 F 
ENDBRANCH  14  16
BRANCH  13  20
ATOM     20  C   UNL     1       5.029   3.953  16.447  0.00  0.00    +0.000 C 
ATOM     21  N   UNL     1       5.646   3.161  15.866  0.00  0.00    +0.000 NA
ENDBRANCH  13  20
ENDBRANCH   6  10
BRANCH   9  22
ATOM     22  C   UNL     1       0.153  10.848  20.053  0.00  0.00    +0.000 A 
ATOM     23  C   UNL     1       0.654  11.994  20.692  0.00  0.00    +0.000 A 
ATOM     24  C   UNL     1      -0.067  13.198  20.727  0.00  0.00    +0.000 A 
ATOM     25  C   UNL     1      -1.291  13.280  20.083  0.00  0.00    +0.000 A 
ATOM     26  C   UNL     1      -1.792  12.184  19.403  0.00  0.00    +0.000 A 
ATOM     27  C   UNL     1      -1.076  10.980  19.394  0.00  0.00    +0.000 A 
BRANCH  25  28
ATOM     28  O   UNL     1      -2.039  14.416  20.100  0.00  0.00    +0.000 OA
ATOM     29  H   UNL     1      -2.441  14.512  20.979  0.00  0.00    +0.000 HD
ENDBRANCH  25  28
ENDBRANCH   9  22
TORSDOF 5
ENDMDL
MODEL 8
REMARK VINA RESULT:      -6.6      2.342      3.163
REMARK  Name = 
REMARK  7 active torsions:
REMARK  status: ('A' for Active; 'I' for Inactive)
REMARK    1  A    between atoms: C_1  and  C_2
REMARK    2  A    between atoms: C_2  and  C_3
REMARK    3  A    between atoms: N_6  and  C_7
REMARK    4  A    between atoms: C_10  and  C_11
REMARK    5  A    between atoms: C_13  and  C_14
REMARK    6  A    between atoms: N_21  and  C_22
REMARK    7  A    between atoms: C_25  and  O_26
REMARK                            x       y       z     vdW  Elec       q    Type
REMARK                         _______ _______ _______ _____ _____    ______ ____
ROOT
ATOM      1  C   UNL     1      -0.600  12.552  18.470  0.00  0.00    +0.000 C 
ATOM      2  C   UNL     1      -0.955  11.232  19.167  0.00  0.00    +0.000 C 
ATOM      3  C   UNL     1      -2.436  10.879  18.990  0.00  0.00    +0.000 C 
ATOM      4  C   UNL     1      -0.170  10.112  18.473  0.00  0.00    +0.000 C 
ATOM      5  O   UNL     1      -0.318   9.798  17.294  0.00  0.00    +0.000 OA
ATOM      6  N   UNL     1       0.724   9.564  19.358  0.00  0.00    +0.000 N 
ATOM      7  C   UNL     1       0.592  10.131  20.622  0.00  0.00    +0.000 C 
ATOM      8  S   UNL     1       1.342   9.558  22.014  0.00  0.00    +0.000 S 
ATOM      9  N   UNL     1      -0.403  11.155  20.533  0.00  0.00    +0.000 N 
ENDROOT
BRANCH   6  10
ATOM     10  C   UNL     1       1.597   8.512  18.985  0.00  0.00    +0.000 A 
ATOM     11  C   UNL     1       2.569   8.710  18.004  0.00  0.00    +0.000 A 
ATOM     12  C   UNL     1       3.394   7.654  17.605  0.00  0.00    +0.000 A 
ATOM     13  C   UNL     1       3.282   6.387  18.198  0.00  0.00    +0.000 A 
ATOM     14  C   UNL     1       2.329   6.176  19.208  0.00  0.00    +0.000 A 
ATOM     15  C   UNL     1       1.476   7.244  19.572  0.00  0.00    +0.000 A 
BRANCH  14  16
ATOM     16  C   UNL     1       2.183   4.873  19.959  0.00  0.00    +0.000 C 
ATOM     17  F   UNL     1       3.307   4.426  20.572  0.00  0.00    +0.000 F 
ATOM     18  F   UNL     1       1.241   4.966  20.941  0.00  0.00    +0.000 F 
ATOM     19  F   UNL     1       1.774   3.858  19.151  0.00  0.00    +0.000 F 
ENDBRANCH  14  16
BRANCH  13  20
ATOM     20  C   UNL     1       4.156   5.352  17.714  0.00  0.00    +0.000 C 
ATOM     21  N   UNL     1       4.829   4.504  17.299  0.00  0.00    +0.000 NA
ENDBRANCH  13  20
ENDBRANCH   6  10
BRANCH   9  22
ATOM     22  C   UNL     1      -0.748  12.093  21.567  0.00  0.00    +0.000 A 
ATOM     23  C   UNL     1      -1.819  11.858  22.445  0.00  0.00    +0.000 A 
ATOM     24  C   UNL     1      -2.202  12.798  23.414  0.00  0.00    +0.000 A 
ATOM     25  C   UNL     1      -1.486  13.977  23.543  0.00  0.00    +0.000 A 
ATOM     26  C   UNL     1      -0.396  14.219  22.726  0.00  0.00    +0.000 A 
ATOM     27  C   UNL     1      -0.036  13.285  21.746  0.00  0.00    +0.000 A 
BRANCH  25  28
ATOM     28  O   UNL     1      -1.825  14.929  24.453  0.00  0.00    +0.000 OA
ATOM     29  H   UNL     1      -2.775  15.115  24.372  0.00  0.00    +0.000 HD
ENDBRANCH  25  28
ENDBRANCH   9  22
TORSDOF 5
ENDMDL
MODEL 9
REMARK VINA RESULT:      -6.5      2.444      3.136
REMARK  Name = 
REMARK  7 active torsions:
REMARK  status: ('A' for Active; 'I' for Inactive)
REMARK    1  A    between atoms: C_1  and  C_2
REMARK    2  A    between atoms: C_2  and  C_3
REMARK    3  A    between atoms: N_6  and  C_7
REMARK    4  A    between atoms: C_10  and  C_11
REMARK    5  A    between atoms: C_13  and  C_14
REMARK    6  A    between atoms: N_21  and  C_22
REMARK    7  A    between atoms: C_25  and  O_26
REMARK                            x       y       z     vdW  Elec       q    Type
REMARK                         _______ _______ _______ _____ _____    ______ ____
ROOT
ATOM      1  C   UNL     1       1.993  11.160  17.959  0.00  0.00    +0.000 C 
ATOM      2  C   UNL     1       1.007  10.105  18.476  0.00  0.00    +0.000 C 
ATOM      3  C   UNL     1      -0.291  10.096  17.661  0.00  0.00    +0.000 C 
ATOM      4  C   UNL     1       1.645   8.727  18.264  0.00  0.00    +0.000 C 
ATOM      5  O   UNL     1       1.925   8.260  17.162  0.00  0.00    +0.000 OA
ATOM      6  N   UNL     1       1.876   8.138  19.482  0.00  0.00    +0.000 N 
ATOM      7  C   UNL     1       1.393   8.928  20.522  0.00  0.00    +0.000 C 
ATOM      8  S   UNL     1       1.278   8.437  22.126  0.00  0.00    +0.000 S 
ATOM      9  N   UNL     1       0.878  10.132  19.945  0.00  0.00    +0.000 N 
ENDROOT
BRANCH   6  10
ATOM     10  C   UNL     1       2.473   6.858  19.594  0.00  0.00    +0.000 A 
ATOM     11  C   UNL     1       3.828   6.680  19.310  0.00  0.00    +0.000 A 
ATOM     12  C   UNL     1       4.400   5.406  19.374  0.00  0.00    +0.000 A 
ATOM     13  C   UNL     1       3.637   4.289  19.748  0.00  0.00    +0.000 A 
ATOM     14  C   UNL     1       2.279   4.453  20.065  0.00  0.00    +0.000 A 
ATOM     15  C   UNL     1       1.705   5.742  19.958  0.00  0.00    +0.000 A 
BRANCH  14  16
ATOM     16  C   UNL     1       1.392   3.330  20.552  0.00  0.00    +0.000 C 
ATOM     17  F   UNL     1       1.580   2.134  19.940  0.00  0.00    +0.000 F 
ATOM     18  F   UNL     1       1.571   3.093  21.883  0.00  0.00    +0.000 F 
ATOM     19  F   UNL     1       0.071   3.618  20.403  0.00  0.00    +0.000 F 
ENDBRANCH  14  16
BRANCH  13  20
ATOM     20  C   UNL     1       4.299   3.013  19.769  0.00  0.00    +0.000 C 
ATOM     21  N   UNL     1       4.798   1.966  19.802  0.00  0.00    +0.000 NA
ENDBRANCH  13  20
ENDBRANCH   6  10
BRANCH   9  22
ATOM     22  C   UNL     1       0.419  11.287  20.666  0.00  0.00    +0.000 A 
ATOM     23  C   UNL     1       1.198  12.453  20.759  0.00  0.00    +0.000 A 
ATOM     24  C   UNL     1       0.785  13.561  21.515  0.00  0.00    +0.000 A 
ATOM     25  C   UNL     1      -0.441  13.529  22.160  0.00  0.00    +0.000 A 
ATOM     26  C   UNL     1      -1.254  12.416  22.049  0.00  0.00    +0.000 A 
ATOM     27  C   UNL     1      -0.823  11.306  21.312  0.00  0.00    +0.000 A 
BRANCH  25  28
ATOM     28  O   UNL     1      -0.882  14.569  22.920  0.00  0.00    +0.000 OA
ATOM     29  H   UNL     1      -1.852  14.602  22.871  0.00  0.00    +0.000 HD
ENDBRANCH  25  28
ENDBRANCH   9  22
TORSDOF 5
ENDMDL
