MODEL 1
REMARK VINA RESULT:      -5.9      0.000      0.000
REMARK  Name = 
REMARK  13 active torsions:
REMARK  status: ('A' for Active; 'I' for Inactive)
REMARK    1  A    between atoms: C_1  and  C_2
REMARK    2  A    between atoms: C_2  and  O_3
REMARK    3  A    between atoms: O_3  and  C_4
REMARK    4  A    between atoms: C_4  and  C_6
REMARK    5  A    between atoms: C_7  and  C_8
REMARK    6  A    between atoms: C_8  and  O_9
REMARK    7  A    between atoms: C_8  and  C_16
REMARK    8  A    between atoms: O_9  and  C_10
REMARK    9  A    between atoms: C_11  and  C_12
REMARK   10  A    between atoms: C_12  and  O_14
REMARK   11  A    between atoms: O_14  and  C_15
REMARK   12  A    between atoms: C_16  and  C_17
REMARK   13  A    between atoms: C_16  and  C_18
REMARK                            x       y       z     vdW  Elec       q    Type
REMARK                         _______ _______ _______ _____ _____    ______ ____
ROOT
ATOM      1  C   UNL     1       2.873   4.863  18.085  0.00  0.00    +0.000 C 
ENDROOT
BRANCH   1   2
ATOM      2  C   UNL     1       1.661   3.960  18.436  0.00  0.00    +0.000 C 
ATOM      3  C   UNL     1       1.926   2.482  18.122  0.00  0.00    +0.000 C 
ATOM      4  C   UNL     1       1.270   4.096  19.912  0.00  0.00    +0.000 C 
ENDBRANCH   1   2
BRANCH   1   6
ATOM      5  C   UNL     1       2.212   7.453  18.247  0.00  0.00    +0.000 C 
ATOM      6  C   UNL     1       2.497   6.283  18.213  0.00  0.00    +0.000 C 
BRANCH   5   7
ATOM      7  C   UNL     1       1.891   8.857  18.283  0.00  0.00    +0.000 C 
ATOM      8  O   UNL     1       2.216   9.599  17.372  0.00  0.00    +0.000 OA
BRANCH   7   9
ATOM      9  O   UNL     1       1.274   9.206  19.440  0.00  0.00    +0.000 OA
BRANCH   9  11
ATOM     10  C   UNL     1      -0.820  10.263  18.991  0.00  0.00    +0.000 C 
ATOM     11  C   UNL     1       0.620  10.481  19.418  0.00  0.00    +0.000 C 
ENDBRANCH   9  11
ENDBRANCH   7   9
ENDBRANCH   5   7
ENDBRANCH   1   6
BRANCH   1  12
ATOM     12  O   UNL     1       3.938   4.550  19.008  0.00  0.00    +0.000 OA
BRANCH  12  13
ATOM     13  C   UNL     1       5.181   4.962  18.603  0.00  0.00    +0.000 C 
ATOM     14  C   UNL     1       5.658   4.679  17.386  0.00  0.00    +0.000 C 
BRANCH  14  15
ATOM     15  C   UNL     1       7.021   5.094  17.006  0.00  0.00    +0.000 C 
ATOM     16  O   UNL     1       8.011   4.386  17.068  0.00  0.00    +0.000 OA
BRANCH  15  17
ATOM     17  O   UNL     1       6.974   6.381  16.575  0.00  0.00    +0.000 OA
ATOM     18  C   UNL     1       7.579   7.314  17.472  0.00  0.00    +0.000 C 
ENDBRANCH  15  17
ENDBRANCH  14  15
ENDBRANCH  12  13
ENDBRANCH   1  12
TORSDOF 9
ENDMDL
MODEL 2
REMARK VINA RESULT:      -5.8      3.864      6.173
REMARK  Name = 
REMARK  13 active torsions:
REMARK  status: ('A' for Active; 'I' for Inactive)
REMARK    1  A    between atoms: C_1  and  C_2
REMARK    2  A    between atoms: C_2  and  O_3
REMARK    3  A    between atoms: O_3  and  C_4
REMARK    4  A    between atoms: C_4  and  C_6
REMARK    5  A    between atoms: C_7  and  C_8
REMARK    6  A    between atoms: C_8  and  O_9
REMARK    7  A    between atoms: C_8  and  C_16
REMARK    8  A    between atoms: O_9  and  C_10
REMARK    9  A    between atoms: C_11  and  C_12
REMARK   10  A    between atoms: C_12  and  O_14
REMARK   11  A    between atoms: O_14  and  C_15
REMARK   12  A    between atoms: C_16  and  C_17
REMARK   13  A    between atoms: C_16  and  C_18
REMARK                            x       y       z     vdW  Elec       q    Type
REMARK                         _______ _______ _______ _____ _____    ______ ____
ROOT
ATOM      1  C   UNL     1       6.485   4.294  15.809  0.00  0.00    +0.000 C 
ENDROOT
BRANCH   1   2
ATOM      2  C   UNL     1       7.233   5.332  16.686  0.00  0.00    +0.000 C 
ATOM      3  C   UNL     1       6.386   6.581  16.960  0.00  0.00    +0.000 C 
ATOM      4  C   UNL     1       7.673   4.723  18.022  0.00  0.00    +0.000 C 
ENDBRANCH   1   2
BRANCH   1   6
ATOM      5  C   UNL     1       4.138   3.734  16.970  0.00  0.00    +0.000 C 
ATOM      6  C   UNL     1       5.192   3.949  16.428  0.00  0.00    +0.000 C 
BRANCH   5   7
ATOM      7  C   UNL     1       2.887   3.477  17.636  0.00  0.00    +0.000 C 
ATOM      8  O   UNL     1       1.838   3.448  17.014  0.00  0.00    +0.000 OA
BRANCH   7   9
ATOM      9  O   UNL     1       3.044   3.351  18.978  0.00  0.00    +0.000 OA
BRANCH   9  11
ATOM     10  C   UNL     1       1.155   3.382  20.440  0.00  0.00    +0.000 C 
ATOM     11  C   UNL     1       2.085   2.503  19.624  0.00  0.00    +0.000 C 
ENDBRANCH   9  11
ENDBRANCH   7   9
ENDBRANCH   5   7
ENDBRANCH   1   6
BRANCH   1  12
ATOM     12  O   UNL     1       6.267   4.888  14.512  0.00  0.00    +0.000 OA
BRANCH  12  13
ATOM     13  C   UNL     1       5.491   4.139  13.666  0.00  0.00    +0.000 C 
ATOM     14  C   UNL     1       6.009   3.501  12.610  0.00  0.00    +0.000 C 
BRANCH  14  15
ATOM     15  C   UNL     1       5.134   2.748  11.693  0.00  0.00    +0.000 C 
ATOM     16  O   UNL     1       4.060   3.141  11.270  0.00  0.00    +0.000 OA
BRANCH  15  17
ATOM     17  O   UNL     1       5.731   1.563  11.405  0.00  0.00    +0.000 OA
ATOM     18  C   UNL     1       7.108   1.682  11.046  0.00  0.00    +0.000 C 
ENDBRANCH  15  17
ENDBRANCH  14  15
ENDBRANCH  12  13
ENDBRANCH   1  12
TORSDOF 9
ENDMDL
MODEL 3
REMARK VINA RESULT:      -5.7      2.127      4.734
REMARK  Name = 
REMARK  13 active torsions:
REMARK  status: ('A' for Active; 'I' for Inactive)
REMARK    1  A    between atoms: C_1  and  C_2
REMARK    2  A    between atoms: C_2  and  O_3
REMARK    3  A    between atoms: O_3  and  C_4
REMARK    4  A    between atoms: C_4  and  C_6
REMARK    5  A    between atoms: C_7  and  C_8
REMARK    6  A    between atoms: C_8  and  O_9
REMARK    7  A    between atoms: C_8  and  C_16
REMARK    8  A    between atoms: O_9  and  C_10
REMARK    9  A    between atoms: C_11  and  C_12
REMARK   10  A    between atoms: C_12  and  O_14
REMARK   11  A    between atoms: O_14  and  C_15
REMARK   12  A    between atoms: C_16  and  C_17
REMARK   13  A    between atoms: C_16  and  C_18
REMARK                            x       y       z     vdW  Elec       q    Type
REMARK                         _______ _______ _______ _____ _____    ______ ____
ROOT
ATOM      1  C   UNL     1       3.348   6.783  18.257  0.00  0.00    +0.000 C 
ENDROOT
BRANCH   1   2
ATOM      2  C   UNL     1       2.100   7.671  18.503  0.00  0.00    +0.000 C 
ATOM      3  C   UNL     1       1.828   7.891  19.997  0.00  0.00    +0.000 C 
ATOM      4  C   UNL     1       2.236   9.033  17.814  0.00  0.00    +0.000 C 
ENDBRANCH   1   2
BRANCH   1   6
ATOM      5  C   UNL     1       2.703   4.185  18.270  0.00  0.00    +0.000 C 
ATOM      6  C   UNL     1       2.969   5.359  18.298  0.00  0.00    +0.000 C 
BRANCH   5   7
ATOM      7  C   UNL     1       2.375   2.783  18.218  0.00  0.00    +0.000 C 
ATOM      8  O   UNL     1       2.212   2.215  17.151  0.00  0.00    +0.000 OA
BRANCH   7   9
ATOM      9  O   UNL     1       2.222   2.252  19.457  0.00  0.00    +0.000 OA
BRANCH   9  11
ATOM     10  C   UNL     1       1.603   2.807  21.697  0.00  0.00    +0.000 C 
ATOM     11  C   UNL     1       1.174   2.835  20.242  0.00  0.00    +0.000 C 
ENDBRANCH   9  11
ENDBRANCH   7   9
ENDBRANCH   5   7
ENDBRANCH   1   6
BRANCH   1  12
ATOM     12  O   UNL     1       3.876   7.116  16.956  0.00  0.00    +0.000 OA
BRANCH  12  13
ATOM     13  C   UNL     1       5.146   6.653  16.721  0.00  0.00    +0.000 C 
ATOM     14  C   UNL     1       5.391   5.678  15.840  0.00  0.00    +0.000 C 
BRANCH  14  15
ATOM     15  C   UNL     1       6.763   5.171  15.654  0.00  0.00    +0.000 C 
ATOM     16  O   UNL     1       7.563   5.598  14.838  0.00  0.00    +0.000 OA
BRANCH  15  17
ATOM     17  O   UNL     1       6.974   4.167  16.543  0.00  0.00    +0.000 OA
ATOM     18  C   UNL     1       7.697   4.568  17.708  0.00  0.00    +0.000 C 
ENDBRANCH  15  17
ENDBRANCH  14  15
ENDBRANCH  12  13
ENDBRANCH   1  12
TORSDOF 9
ENDMDL
MODEL 4
REMARK VINA RESULT:      -5.7      2.109      5.865
REMARK  Name = 
REMARK  13 active torsions:
REMARK  status: ('A' for Active; 'I' for Inactive)
REMARK    1  A    between atoms: C_1  and  C_2
REMARK    2  A    between atoms: C_2  and  O_3
REMARK    3  A    between atoms: O_3  and  C_4
REMARK    4  A    between atoms: C_4  and  C_6
REMARK    5  A    between atoms: C_7  and  C_8
REMARK    6  A    between atoms: C_8  and  O_9
REMARK    7  A    between atoms: C_8  and  C_16
REMARK    8  A    between atoms: O_9  and  C_10
REMARK    9  A    between atoms: C_11  and  C_12
REMARK   10  A    between atoms: C_12  and  O_14
REMARK   11  A    between atoms: O_14  and  C_15
REMARK   12  A    between atoms: C_16  and  C_17
REMARK   13  A    between atoms: C_16  and  C_18
REMARK                            x       y       z     vdW  Elec       q    Type
REMARK                         _______ _______ _______ _____ _____    ______ ____
ROOT
ATOM      1  C   UNL     1       4.638   4.547  16.598  0.00  0.00    +0.000 C 
ENDROOT
BRANCH   1   2
ATOM      2  C   UNL     1       5.877   4.045  15.809  0.00  0.00    +0.000 C 
ATOM      3  C   UNL     1       5.739   4.280  14.299  0.00  0.00    +0.000 C 
ATOM      4  C   UNL     1       7.165   4.712  16.304  0.00  0.00    +0.000 C 
ENDBRANCH   1   2
BRANCH   1   6
ATOM      5  C   UNL     1       4.270   3.145  18.849  0.00  0.00    +0.000 C 
ATOM      6  C   UNL     1       4.471   3.754  17.830  0.00  0.00    +0.000 C 
BRANCH   5   7
ATOM      7  C   UNL     1       4.032   2.434  20.079  0.00  0.00    +0.000 C 
ATOM      8  O   UNL     1       4.940   1.868  20.664  0.00  0.00    +0.000 OA
BRANCH   7   9
ATOM      9  O   UNL     1       2.718   2.437  20.420  0.00  0.00    +0.000 OA
BRANCH   9  11
ATOM     10  C   UNL     1       1.017   4.112  20.351  0.00  0.00    +0.000 C 
ATOM     11  C   UNL     1       2.263   3.630  21.070  0.00  0.00    +0.000 C 
ENDBRANCH   9  11
ENDBRANCH   7   9
ENDBRANCH   5   7
ENDBRANCH   1   6
BRANCH   1  12
ATOM     12  O   UNL     1       4.860   5.934  16.930  0.00  0.00    +0.000 OA
BRANCH  12  13
ATOM     13  C   UNL     1       3.917   6.476  17.765  0.00  0.00    +0.000 C 
ATOM     14  C   UNL     1       3.237   7.582  17.441  0.00  0.00    +0.000 C 
BRANCH  14  15
ATOM     15  C   UNL     1       2.270   8.165  18.388  0.00  0.00    +0.000 C 
ATOM     16  O   UNL     1       1.551   9.122  18.155  0.00  0.00    +0.000 OA
BRANCH  15  17
ATOM     17  O   UNL     1       2.316   7.452  19.543  0.00  0.00    +0.000 OA
ATOM     18  C   UNL     1       1.545   8.018  20.604  0.00  0.00    +0.000 C 
ENDBRANCH  15  17
ENDBRANCH  14  15
ENDBRANCH  12  13
ENDBRANCH   1  12
TORSDOF 9
ENDMDL
MODEL 5
REMARK VINA RESULT:      -5.7      3.816      7.761
REMARK  Name = 
REMARK  13 active torsions:
REMARK  status: ('A' for Active; 'I' for Inactive)
REMARK    1  A    between atoms: C_1  and  C_2
REMARK    2  A    between atoms: C_2  and  O_3
REMARK    3  A    between atoms: O_3  and  C_4
REMARK    4  A    between atoms: C_4  and  C_6
REMARK    5  A    between atoms: C_7  and  C_8
REMARK    6  A    between atoms: C_8  and  O_9
REMARK    7  A    between atoms: C_8  and  C_16
REMARK    8  A    between atoms: O_9  and  C_10
REMARK    9  A    between atoms: C_11  and  C_12
REMARK   10  A    between atoms: C_12  and  O_14
REMARK   11  A    between atoms: O_14  and  C_15
REMARK   12  A    between atoms: C_16  and  C_17
REMARK   13  A    between atoms: C_16  and  C_18
REMARK                            x       y       z     vdW  Elec       q    Type
REMARK                         _______ _______ _______ _____ _____    ______ ____
ROOT
ATOM      1  C   UNL     1       5.135   4.606  15.989  0.00  0.00    +0.000 C 
ENDROOT
BRANCH   1   2
ATOM      2  C   UNL     1       6.065   5.740  16.494  0.00  0.00    +0.000 C 
ATOM      3  C   UNL     1       5.297   6.828  17.256  0.00  0.00    +0.000 C 
ATOM      4  C   UNL     1       7.180   5.193  17.392  0.00  0.00    +0.000 C 
ENDBRANCH   1   2
BRANCH   1   6
ATOM      5  C   UNL     1       5.985   3.814  13.577  0.00  0.00    +0.000 C 
ATOM      6  C   UNL     1       5.590   4.131  14.669  0.00  0.00    +0.000 C 
BRANCH   5   7
ATOM      7  C   UNL     1       6.444   3.448  12.262  0.00  0.00    +0.000 C 
ATOM      8  O   UNL     1       7.269   4.127  11.673  0.00  0.00    +0.000 OA
BRANCH   7   9
ATOM      9  O   UNL     1       5.807   2.346  11.790  0.00  0.00    +0.000 OA
BRANCH   9  11
ATOM     10  C   UNL     1       6.140   0.036  11.283  0.00  0.00    +0.000 C 
ATOM     11  C   UNL     1       6.628   1.450  11.029  0.00  0.00    +0.000 C 
ENDBRANCH   9  11
ENDBRANCH   7   9
ENDBRANCH   5   7
ENDBRANCH   1   6
BRANCH   1  12
ATOM     12  O   UNL     1       5.195   3.528  16.948  0.00  0.00    +0.000 OA
BRANCH  12  13
ATOM     13  C   UNL     1       4.075   3.399  17.729  0.00  0.00    +0.000 C 
ATOM     14  C   UNL     1       2.862   3.753  17.289  0.00  0.00    +0.000 C 
BRANCH  14  15
ATOM     15  C   UNL     1       1.689   3.648  18.177  0.00  0.00    +0.000 C 
ATOM     16  O   UNL     1       0.891   2.727  18.176  0.00  0.00    +0.000 OA
BRANCH  15  17
ATOM     17  O   UNL     1       1.664   4.738  18.985  0.00  0.00    +0.000 OA
ATOM     18  C   UNL     1       1.394   4.437  20.355  0.00  0.00    +0.000 C 
ENDBRANCH  15  17
ENDBRANCH  14  15
ENDBRANCH  12  13
ENDBRANCH   1  12
TORSDOF 9
ENDMDL
MODEL 6
REMARK VINA RESULT:      -5.7      2.180      4.854
REMARK  Name = 
REMARK  13 active torsions:
REMARK  status: ('A' for Active; 'I' for Inactive)
REMARK    1  A    between atoms: C_1  and  C_2
REMARK    2  A    between atoms: C_2  and  O_3
REMARK    3  A    between atoms: O_3  and  C_4
REMARK    4  A    between atoms: C_4  and  C_6
REMARK    5  A    between atoms: C_7  and  C_8
REMARK    6  A    between atoms: C_8  and  O_9
REMARK    7  A    between atoms: C_8  and  C_16
REMARK    8  A    between atoms: O_9  and  C_10
REMARK    9  A    between atoms: C_11  and  C_12
REMARK   10  A    between atoms: C_12  and  O_14
REMARK   11  A    between atoms: O_14  and  C_15
REMARK   12  A    between atoms: C_16  and  C_17
REMARK   13  A    between atoms: C_16  and  C_18
REMARK                            x       y       z     vdW  Elec       q    Type
REMARK                         _______ _______ _______ _____ _____    ______ ____
ROOT
ATOM      1  C   UNL     1       3.254   6.871  18.321  0.00  0.00    +0.000 C 
ENDROOT
BRANCH   1   2
ATOM      2  C   UNL     1       2.025   7.797  18.516  0.00  0.00    +0.000 C 
ATOM      3  C   UNL     1       1.697   8.027  19.997  0.00  0.00    +0.000 C 
ATOM      4  C   UNL     1       2.231   9.154  17.833  0.00  0.00    +0.000 C 
ENDBRANCH   1   2
BRANCH   1   6
ATOM      5  C   UNL     1       2.464   4.315  18.212  0.00  0.00    +0.000 C 
ATOM      6  C   UNL     1       2.816   5.467  18.219  0.00  0.00    +0.000 C 
BRANCH   5   7
ATOM      7  C   UNL     1       2.061   2.932  18.210  0.00  0.00    +0.000 C 
ATOM      8  O   UNL     1       2.221   2.232  17.224  0.00  0.00    +0.000 OA
BRANCH   7   9
ATOM      9  O   UNL     1       1.458   2.578  19.373  0.00  0.00    +0.000 OA
BRANCH   9  11
ATOM     10  C   UNL     1       1.682   3.245  21.656  0.00  0.00    +0.000 C 
ATOM     11  C   UNL     1       2.330   2.493  20.507  0.00  0.00    +0.000 C 
ENDBRANCH   9  11
ENDBRANCH   7   9
ENDBRANCH   5   7
ENDBRANCH   1   6
BRANCH   1  12
ATOM     12  O   UNL     1       3.917   7.269  17.103  0.00  0.00    +0.000 OA
BRANCH  12  13
ATOM     13  C   UNL     1       5.091   6.606  16.851  0.00  0.00    +0.000 C 
ATOM     14  C   UNL     1       5.301   5.952  15.702  0.00  0.00    +0.000 C 
BRANCH  14  15
ATOM     15  C   UNL     1       6.555   5.207  15.489  0.00  0.00    +0.000 C 
ATOM     16  O   UNL     1       7.675   5.658  15.658  0.00  0.00    +0.000 OA
BRANCH  15  17
ATOM     17  O   UNL     1       6.243   3.948  15.087  0.00  0.00    +0.000 OA
ATOM     18  C   UNL     1       5.953   3.842  13.692  0.00  0.00    +0.000 C 
ENDBRANCH  15  17
ENDBRANCH  14  15
ENDBRANCH  12  13
ENDBRANCH   1  12
TORSDOF 9
ENDMDL
MODEL 7
REMARK VINA RESULT:      -5.7      3.547      5.779
REMARK  Name = 
REMARK  13 active torsions:
REMARK  status: ('A' for Active; 'I' for Inactive)
REMARK    1  A    between atoms: C_1  and  C_2
REMARK    2  A    between atoms: C_2  and  O_3
REMARK    3  A    between atoms: O_3  and  C_4
REMARK    4  A    between atoms: C_4  and  C_6
REMARK    5  A    between atoms: C_7  and  C_8
REMARK    6  A    between atoms: C_8  and  O_9
REMARK    7  A    between atoms: C_8  and  C_16
REMARK    8  A    between atoms: O_9  and  C_10
REMARK    9  A    between atoms: C_11  and  C_12
REMARK   10  A    between atoms: C_12  and  O_14
REMARK   11  A    between atoms: O_14  and  C_15
REMARK   12  A    between atoms: C_16  and  C_17
REMARK   13  A    between atoms: C_16  and  C_18
REMARK                            x       y       z     vdW  Elec       q    Type
REMARK                         _______ _______ _______ _____ _____    ______ ____
ROOT
ATOM      1  C   UNL     1       6.085   4.455  16.232  0.00  0.00    +0.000 C 
ENDROOT
BRANCH   1   2
ATOM      2  C   UNL     1       7.003   5.502  16.917  0.00  0.00    +0.000 C 
ATOM      3  C   UNL     1       6.295   6.845  17.133  0.00  0.00    +0.000 C 
ATOM      4  C   UNL     1       7.528   4.991  18.264  0.00  0.00    +0.000 C 
ENDBRANCH   1   2
BRANCH   1   6
ATOM      5  C   UNL     1       3.689   4.321  17.418  0.00  0.00    +0.000 C 
ATOM      6  C   UNL     1       4.780   4.405  16.916  0.00  0.00    +0.000 C 
BRANCH   5   7
ATOM      7  C   UNL     1       2.375   4.231  18.002  0.00  0.00    +0.000 C 
ATOM      8  O   UNL     1       1.398   3.983  17.315  0.00  0.00    +0.000 OA
BRANCH   7   9
ATOM      9  O   UNL     1       2.390   4.513  19.329  0.00  0.00    +0.000 OA
BRANCH   9  11
ATOM     10  C   UNL     1       1.256   3.121  20.906  0.00  0.00    +0.000 C 
ATOM     11  C   UNL     1       2.568   3.379  20.189  0.00  0.00    +0.000 C 
ENDBRANCH   9  11
ENDBRANCH   7   9
ENDBRANCH   5   7
ENDBRANCH   1   6
BRANCH   1  12
ATOM     12  O   UNL     1       5.907   4.858  14.858  0.00  0.00    +0.000 OA
BRANCH  12  13
ATOM     13  C   UNL     1       6.267   3.910  13.935  0.00  0.00    +0.000 C 
ATOM     14  C   UNL     1       5.663   3.816  12.745  0.00  0.00    +0.000 C 
BRANCH  14  15
ATOM     15  C   UNL     1       6.043   2.750  11.800  0.00  0.00    +0.000 C 
ATOM     16  O   UNL     1       7.187   2.428  11.531  0.00  0.00    +0.000 OA
BRANCH  15  17
ATOM     17  O   UNL     1       4.909   2.197  11.299  0.00  0.00    +0.000 OA
ATOM     18  C   UNL     1       3.859   3.137  11.068  0.00  0.00    +0.000 C 
ENDBRANCH  15  17
ENDBRANCH  14  15
ENDBRANCH  12  13
ENDBRANCH   1  12
TORSDOF 9
ENDMDL
MODEL 8
REMARK VINA RESULT:      -5.6      3.626      5.589
REMARK  Name = 
REMARK  13 active torsions:
REMARK  status: ('A' for Active; 'I' for Inactive)
REMARK    1  A    between atoms: C_1  and  C_2
REMARK    2  A    between atoms: C_2  and  O_3
REMARK    3  A    between atoms: O_3  and  C_4
REMARK    4  A    between atoms: C_4  and  C_6
REMARK    5  A    between atoms: C_7  and  C_8
REMARK    6  A    between atoms: C_8  and  O_9
REMARK    7  A    between atoms: C_8  and  C_16
REMARK    8  A    between atoms: O_9  and  C_10
REMARK    9  A    between atoms: C_11  and  C_12
REMARK   10  A    between atoms: C_12  and  O_14
REMARK   11  A    between atoms: O_14  and  C_15
REMARK   12  A    between atoms: C_16  and  C_17
REMARK   13  A    between atoms: C_16  and  C_18
REMARK                            x       y       z     vdW  Elec       q    Type
REMARK                         _______ _______ _______ _____ _____    ______ ____
ROOT
ATOM      1  C   UNL     1       5.722   4.670  16.459  0.00  0.00    +0.000 C 
ENDROOT
BRANCH   1   2
ATOM      2  C   UNL     1       6.579   5.298  17.591  0.00  0.00    +0.000 C 
ATOM      3  C   UNL     1       7.859   4.497  17.864  0.00  0.00    +0.000 C 
ATOM      4  C   UNL     1       6.954   6.749  17.270  0.00  0.00    +0.000 C 
ENDBRANCH   1   2
BRANCH   1   6
ATOM      5  C   UNL     1       3.334   3.875  17.373  0.00  0.00    +0.000 C 
ATOM      6  C   UNL     1       4.425   4.223  16.999  0.00  0.00    +0.000 C 
BRANCH   5   7
ATOM      7  C   UNL     1       2.023   3.479  17.818  0.00  0.00    +0.000 C 
ATOM      8  O   UNL     1       1.019   3.938  17.300  0.00  0.00    +0.000 OA
BRANCH   7   9
ATOM      9  O   UNL     1       2.081   2.627  18.873  0.00  0.00    +0.000 OA
BRANCH   9  11
ATOM     10  C   UNL     1       1.777   4.042  20.774  0.00  0.00    +0.000 C 
ATOM     11  C   UNL     1       1.174   2.924  19.943  0.00  0.00    +0.000 C 
ENDBRANCH   9  11
ENDBRANCH   7   9
ENDBRANCH   5   7
ENDBRANCH   1   6
BRANCH   1  12
ATOM     12  O   UNL     1       5.515   5.681  15.451  0.00  0.00    +0.000 OA
BRANCH  12  13
ATOM     13  C   UNL     1       5.791   5.274  14.171  0.00  0.00    +0.000 C 
ATOM     14  C   UNL     1       6.030   3.991  13.873  0.00  0.00    +0.000 C 
BRANCH  14  15
ATOM     15  C   UNL     1       6.375   3.600  12.495  0.00  0.00    +0.000 C 
ATOM     16  O   UNL     1       7.288   4.074  11.840  0.00  0.00    +0.000 OA
BRANCH  15  17
ATOM     17  O   UNL     1       5.515   2.629  12.096  0.00  0.00    +0.000 OA
ATOM     18  C   UNL     1       4.388   3.119  11.367  0.00  0.00    +0.000 C 
ENDBRANCH  15  17
ENDBRANCH  14  15
ENDBRANCH  12  13
ENDBRANCH   1  12
TORSDOF 9
ENDMDL
MODEL 9
REMARK VINA RESULT:      -5.6      3.747      7.304
REMARK  Name = 
REMARK  13 active torsions:
REMARK  status: ('A' for Active; 'I' for Inactive)
REMARK    1  A    between atoms: C_1  and  C_2
REMARK    2  A    between atoms: C_2  and  O_3
REMARK    3  A    between atoms: O_3  and  C_4
REMARK    4  A    between atoms: C_4  and  C_6
REMARK    5  A    between atoms: C_7  and  C_8
REMARK    6  A    between atoms: C_8  and  O_9
REMARK    7  A    between atoms: C_8  and  C_16
REMARK    8  A    between atoms: O_9  and  C_10
REMARK    9  A    between atoms: C_11  and  C_12
REMARK   10  A    between atoms: C_12  and  O_14
REMARK   11  A    between atoms: O_14  and  C_15
REMARK   12  A    between atoms: C_16  and  C_17
REMARK   13  A    between atoms: C_16  and  C_18
REMARK                            x       y       z     vdW  Elec       q    Type
REMARK                         _______ _______ _______ _____ _____    ______ ____
ROOT
ATOM      1  C   UNL     1       5.940   5.469  17.345  0.00  0.00    +0.000 C 
ENDROOT
BRANCH   1   2
ATOM      2  C   UNL     1       7.320   5.906  17.902  0.00  0.00    +0.000 C 
ATOM      3  C   UNL     1       7.622   7.383  17.616  0.00  0.00    +0.000 C 
ATOM      4  C   UNL     1       7.419   5.660  19.412  0.00  0.00    +0.000 C 
ENDBRANCH   1   2
BRANCH   1   6
ATOM      5  C   UNL     1       6.257   4.615  14.827  0.00  0.00    +0.000 C 
ATOM      6  C   UNL     1       6.090   4.966  15.966  0.00  0.00    +0.000 C 
BRANCH   5   7
ATOM      7  C   UNL     1       6.448   4.212  13.457  0.00  0.00    +0.000 C 
ATOM      8  O   UNL     1       7.301   4.737  12.761  0.00  0.00    +0.000 OA
BRANCH   7   9
ATOM      9  O   UNL     1       5.547   3.272  13.075  0.00  0.00    +0.000 OA
BRANCH   9  11
ATOM     10  C   UNL     1       5.877   1.641  11.360  0.00  0.00    +0.000 C 
ATOM     11  C   UNL     1       5.449   3.066  11.659  0.00  0.00    +0.000 C 
ENDBRANCH   9  11
ENDBRANCH   7   9
ENDBRANCH   5   7
ENDBRANCH   1   6
BRANCH   1  12
ATOM     12  O   UNL     1       5.432   4.422  18.198  0.00  0.00    +0.000 OA
BRANCH  12  13
ATOM     13  C   UNL     1       4.064   4.326  18.227  0.00  0.00    +0.000 C 
ATOM     14  C   UNL     1       3.440   3.148  18.343  0.00  0.00    +0.000 C 
BRANCH  14  15
ATOM     15  C   UNL     1       1.968   3.080  18.317  0.00  0.00    +0.000 C 
ATOM     16  O   UNL     1       1.247   3.776  17.621  0.00  0.00    +0.000 OA
BRANCH  15  17
ATOM     17  O   UNL     1       1.567   2.118  19.186  0.00  0.00    +0.000 OA
ATOM     18  C   UNL     1       1.413   2.579  20.530  0.00  0.00    +0.000 C 
ENDBRANCH  15  17
ENDBRANCH  14  15
ENDBRANCH  12  13
ENDBRANCH   1  12
TORSDOF 9
ENDMDL
