MODEL 1
REMARK VINA RESULT:      -7.3      0.000      0.000
REMARK  Name = 
REMARK  10 active torsions:
REMARK  status: ('A' for Active; 'I' for Inactive)
REMARK    1  A    between atoms: C_1  and  O_2
REMARK    2  A    between atoms: O_2  and  C_3
REMARK    3  A    between atoms: C_3  and  C_4
REMARK    4  A    between atoms: C_4  and  C_5
REMARK    5  A    between atoms: C_4  and  N_6
REMARK    6  A    between atoms: C_7  and  C_9
REMARK    7  A    between atoms: C_9  and  N_10
REMARK    8  A    between atoms: C_11  and  S_12
REMARK    9  A    between atoms: S_12  and  C_13
REMARK   10  A    between atoms: C_13  and  C_14
REMARK                            x       y       z     vdW  Elec       q    Type
REMARK                         _______ _______ _______ _____ _____    ______ ____
ROOT
ATOM      1  N   UNL     1       0.729  10.233  19.607  0.00  0.00    +0.000 N 
ATOM      2  C   UNL     1       1.300   8.982  19.684  0.00  0.00    +0.000 A 
ATOM      3  N   UNL     1       1.144   8.455  20.876  0.00  0.00    +0.000 NA
ATOM      4  C   UNL     1       0.401   9.358  21.589  0.00  0.00    +0.000 A 
ATOM      5  C   UNL     1      -0.078   9.277  22.904  0.00  0.00    +0.000 A 
ATOM      6  C   UNL     1      -0.897  10.303  23.392  0.00  0.00    +0.000 A 
ATOM      7  C   UNL     1      -1.220  11.397  22.590  0.00  0.00    +0.000 A 
ATOM      8  C   UNL     1      -0.716  11.517  21.290  0.00  0.00    +0.000 A 
ATOM      9  C   UNL     1       0.096  10.473  20.815  0.00  0.00    +0.000 A 
ENDROOT
BRANCH   1  10
ATOM     10  C   UNL     1       0.733  11.168  18.493  0.00  0.00    +0.000 C 
BRANCH  10  12
ATOM     11  N   UNL     1      -1.306  10.449  17.298  0.00  0.00    +0.000 N 
ATOM     12  C   UNL     1      -0.651  11.479  17.935  0.00  0.00    +0.000 C 
ATOM     13  O   UNL     1      -1.126  12.612  18.027  0.00  0.00    +0.000 OA
ATOM     14  H   UNL     1      -0.798   9.598  17.084  0.00  0.00    +0.000 HD
BRANCH  11  15
ATOM     15  C   UNL     1      -2.624  10.616  16.694  0.00  0.00    +0.000 C 
ATOM     16  C   UNL     1      -3.718  10.071  17.618  0.00  0.00    +0.000 C 
BRANCH  15  17
ATOM     17  C   UNL     1      -2.670   9.943  15.313  0.00  0.00    +0.000 C 
BRANCH  17  19
ATOM     18  C   UNL     1      -3.891   9.917  13.299  0.00  0.00    +0.000 C 
ATOM     19  O   UNL     1      -3.918  10.222  14.685  0.00  0.00    +0.000 OA
ENDBRANCH  17  19
ENDBRANCH  15  17
ENDBRANCH  11  15
ENDBRANCH  10  12
ENDBRANCH   1  10
BRANCH   2  20
ATOM     20  S   UNL     1       2.084   8.155  18.365  0.00  0.00    +0.000 S 
BRANCH  20  21
ATOM     21  C   UNL     1       2.898   6.796  19.280  0.00  0.00    +0.000 C 
BRANCH  21  22
ATOM     22  C   UNL     1       2.158   5.472  19.230  0.00  0.00    +0.000 A 
ATOM     23  C   UNL     1       1.955   4.801  18.011  0.00  0.00    +0.000 A 
ATOM     24  C   UNL     1       1.347   3.541  17.981  0.00  0.00    +0.000 A 
ATOM     25  C   UNL     1       0.934   2.932  19.166  0.00  0.00    +0.000 A 
ATOM     26  C   UNL     1       1.125   3.587  20.378  0.00  0.00    +0.000 A 
ATOM     27  C   UNL     1       1.728   4.849  20.412  0.00  0.00    +0.000 A 
ENDBRANCH  21  22
ENDBRANCH  20  21
ENDBRANCH   2  20
TORSDOF 8
ENDMDL
MODEL 2
REMARK VINA RESULT:      -7.3      4.222      7.069
REMARK  Name = 
REMARK  10 active torsions:
REMARK  status: ('A' for Active; 'I' for Inactive)
REMARK    1  A    between atoms: C_1  and  O_2
REMARK    2  A    between atoms: O_2  and  C_3
REMARK    3  A    between atoms: C_3  and  C_4
REMARK    4  A    between atoms: C_4  and  C_5
REMARK    5  A    between atoms: C_4  and  N_6
REMARK    6  A    between atoms: C_7  and  C_9
REMARK    7  A    between atoms: C_9  and  N_10
REMARK    8  A    between atoms: C_11  and  S_12
REMARK    9  A    between atoms: S_12  and  C_13
REMARK   10  A    between atoms: C_13  and  C_14
REMARK                            x       y       z     vdW  Elec       q    Type
REMARK                         _______ _______ _______ _____ _____    ______ ____
ROOT
ATOM      1  N   UNL     1       3.282   5.560  18.448  0.00  0.00    +0.000 N 
ATOM      2  C   UNL     1       3.996   5.201  17.326  0.00  0.00    +0.000 A 
ATOM      3  N   UNL     1       3.749   3.959  16.976  0.00  0.00    +0.000 NA
ATOM      4  C   UNL     1       2.805   3.504  17.858  0.00  0.00    +0.000 A 
ATOM      5  C   UNL     1       2.167   2.256  17.915  0.00  0.00    +0.000 A 
ATOM      6  C   UNL     1       1.163   2.051  18.870  0.00  0.00    +0.000 A 
ATOM      7  C   UNL     1       0.812   3.063  19.762  0.00  0.00    +0.000 A 
ATOM      8  C   UNL     1       1.468   4.301  19.749  0.00  0.00    +0.000 A 
ATOM      9  C   UNL     1       2.465   4.490  18.778  0.00  0.00    +0.000 A 
ENDROOT
BRANCH   1  10
ATOM     10  C   UNL     1       3.315   6.813  19.185  0.00  0.00    +0.000 C 
BRANCH  10  12
ATOM     11  N   UNL     1       1.767   8.664  19.712  0.00  0.00    +0.000 N 
ATOM     12  C   UNL     1       2.266   7.825  18.741  0.00  0.00    +0.000 C 
ATOM     13  O   UNL     1       1.871   7.849  17.575  0.00  0.00    +0.000 OA
ATOM     14  H   UNL     1       1.984   8.478  20.685  0.00  0.00    +0.000 HD
BRANCH  11  15
ATOM     15  C   UNL     1       0.739   9.662  19.430  0.00  0.00    +0.000 C 
ATOM     16  C   UNL     1       1.324  10.835  18.639  0.00  0.00    +0.000 C 
BRANCH  15  17
ATOM     17  C   UNL     1       0.083  10.138  20.736  0.00  0.00    +0.000 C 
BRANCH  17  19
ATOM     18  C   UNL     1      -0.499   9.393  22.893  0.00  0.00    +0.000 C 
ATOM     19  O   UNL     1      -0.230   9.013  21.553  0.00  0.00    +0.000 OA
ENDBRANCH  17  19
ENDBRANCH  15  17
ENDBRANCH  11  15
ENDBRANCH  10  12
ENDBRANCH   1  10
BRANCH   2  20
ATOM     20  S   UNL     1       5.051   6.258  16.428  0.00  0.00    +0.000 S 
BRANCH  20  21
ATOM     21  C   UNL     1       6.462   5.130  16.140  0.00  0.00    +0.000 C 
BRANCH  21  22
ATOM     22  C   UNL     1       6.669   4.740  14.688  0.00  0.00    +0.000 A 
ATOM     23  C   UNL     1       5.862   3.763  14.077  0.00  0.00    +0.000 A 
ATOM     24  C   UNL     1       6.003   3.468  12.717  0.00  0.00    +0.000 A 
ATOM     25  C   UNL     1       6.947   4.144  11.945  0.00  0.00    +0.000 A 
ATOM     26  C   UNL     1       7.754   5.110  12.537  0.00  0.00    +0.000 A 
ATOM     27  C   UNL     1       7.621   5.404  13.899  0.00  0.00    +0.000 A 
ENDBRANCH  21  22
ENDBRANCH  20  21
ENDBRANCH   2  20
TORSDOF 8
ENDMDL
MODEL 3
REMARK VINA RESULT:      -7.1      6.327      9.026
REMARK  Name = 
REMARK  10 active torsions:
REMARK  status: ('A' for Active; 'I' for Inactive)
REMARK    1  A    between atoms: C_1  and  O_2
REMARK    2  A    between atoms: O_2  and  C_3
REMARK    3  A    between atoms: C_3  and  C_4
REMARK    4  A    between atoms: C_4  and  C_5
REMARK    5  A    between atoms: C_4  and  N_6
REMARK    6  A    between atoms: C_7  and  C_9
REMARK    7  A    between atoms: C_9  and  N_10
REMARK    8  A    between atoms: C_11  and  S_12
REMARK    9  A    between atoms: S_12  and  C_13
REMARK   10  A    between atoms: C_13  and  C_14
REMARK                            x       y       z     vdW  Elec       q    Type
REMARK                         _______ _______ _______ _____ _____    ______ ____
ROOT
ATOM      1  N   UNL     1       5.529   4.860  16.922  0.00  0.00    +0.000 N 
ATOM      2  C   UNL     1       5.086   3.989  17.892  0.00  0.00    +0.000 A 
ATOM      3  N   UNL     1       5.741   4.149  19.019  0.00  0.00    +0.000 NA
ATOM      4  C   UNL     1       6.602   5.193  18.804  0.00  0.00    +0.000 A 
ATOM      5  C   UNL     1       7.508   5.798  19.687  0.00  0.00    +0.000 A 
ATOM      6  C   UNL     1       8.230   6.917  19.256  0.00  0.00    +0.000 A 
ATOM      7  C   UNL     1       8.066   7.416  17.965  0.00  0.00    +0.000 A 
ATOM      8  C   UNL     1       7.198   6.800  17.055  0.00  0.00    +0.000 A 
ATOM      9  C   UNL     1       6.476   5.684  17.509  0.00  0.00    +0.000 A 
ENDROOT
BRANCH   1  10
ATOM     10  C   UNL     1       5.112   4.964  15.533  0.00  0.00    +0.000 C 
BRANCH  10  12
ATOM     11  N   UNL     1       5.608   3.806  13.408  0.00  0.00    +0.000 N 
ATOM     12  C   UNL     1       6.121   4.407  14.536  0.00  0.00    +0.000 C 
ATOM     13  O   UNL     1       7.330   4.468  14.764  0.00  0.00    +0.000 OA
ATOM     14  H   UNL     1       4.613   3.614  13.360  0.00  0.00    +0.000 HD
BRANCH  11  15
ATOM     15  C   UNL     1       6.460   3.207  12.385  0.00  0.00    +0.000 C 
ATOM     16  C   UNL     1       7.062   4.286  11.480  0.00  0.00    +0.000 C 
BRANCH  15  17
ATOM     17  C   UNL     1       5.672   2.170  11.571  0.00  0.00    +0.000 C 
BRANCH  17  19
ATOM     18  C   UNL     1       6.070  -0.121  11.192  0.00  0.00    +0.000 C 
ATOM     19  O   UNL     1       6.568   1.198  11.036  0.00  0.00    +0.000 OA
ENDBRANCH  17  19
ENDBRANCH  15  17
ENDBRANCH  11  15
ENDBRANCH  10  12
ENDBRANCH   1  10
BRANCH   2  20
ATOM     20  S   UNL     1       3.781   2.849  17.697  0.00  0.00    +0.000 S 
BRANCH  20  21
ATOM     21  C   UNL     1       2.385   4.003  17.444  0.00  0.00    +0.000 C 
BRANCH  21  22
ATOM     22  C   UNL     1       2.301   5.123  18.466  0.00  0.00    +0.000 A 
ATOM     23  C   UNL     1       2.489   6.464  18.088  0.00  0.00    +0.000 A 
ATOM     24  C   UNL     1       2.327   7.498  19.017  0.00  0.00    +0.000 A 
ATOM     25  C   UNL     1       1.975   7.209  20.335  0.00  0.00    +0.000 A 
ATOM     26  C   UNL     1       1.791   5.886  20.723  0.00  0.00    +0.000 A 
ATOM     27  C   UNL     1       1.957   4.849  19.799  0.00  0.00    +0.000 A 
ENDBRANCH  21  22
ENDBRANCH  20  21
ENDBRANCH   2  20
TORSDOF 8
ENDMDL
MODEL 4
REMARK VINA RESULT:      -7.1      4.176      6.815
REMARK  Name = 
REMARK  10 active torsions:
REMARK  status: ('A' for Active; 'I' for Inactive)
REMARK    1  A    between atoms: C_1  and  O_2
REMARK    2  A    between atoms: O_2  and  C_3
REMARK    3  A    between atoms: C_3  and  C_4
REMARK    4  A    between atoms: C_4  and  C_5
REMARK    5  A    between atoms: C_4  and  N_6
REMARK    6  A    between atoms: C_7  and  C_9
REMARK    7  A    between atoms: C_9  and  N_10
REMARK    8  A    between atoms: C_11  and  S_12
REMARK    9  A    between atoms: S_12  and  C_13
REMARK   10  A    between atoms: C_13  and  C_14
REMARK                            x       y       z     vdW  Elec       q    Type
REMARK                         _______ _______ _______ _____ _____    ______ ____
ROOT
ATOM      1  N   UNL     1       3.310   5.566  18.478  0.00  0.00    +0.000 N 
ATOM      2  C   UNL     1       4.110   5.180  17.426  0.00  0.00    +0.000 A 
ATOM      3  N   UNL     1       3.887   3.931  17.085  0.00  0.00    +0.000 NA
ATOM      4  C   UNL     1       2.873   3.498  17.897  0.00  0.00    +0.000 A 
ATOM      5  C   UNL     1       2.227   2.254  17.930  0.00  0.00    +0.000 A 
ATOM      6  C   UNL     1       1.148   2.073  18.805  0.00  0.00    +0.000 A 
ATOM      7  C   UNL     1       0.731   3.106  19.643  0.00  0.00    +0.000 A 
ATOM      8  C   UNL     1       1.391   4.341  19.656  0.00  0.00    +0.000 A 
ATOM      9  C   UNL     1       2.464   4.506  18.764  0.00  0.00    +0.000 A 
ENDROOT
BRANCH   1  10
ATOM     10  C   UNL     1       3.289   6.835  19.187  0.00  0.00    +0.000 C 
BRANCH  10  12
ATOM     11  N   UNL     1       1.741   8.746  19.416  0.00  0.00    +0.000 N 
ATOM     12  C   UNL     1       2.387   7.888  18.554  0.00  0.00    +0.000 C 
ATOM     13  O   UNL     1       2.227   7.927  17.334  0.00  0.00    +0.000 OA
ATOM     14  H   UNL     1       1.756   8.552  20.411  0.00  0.00    +0.000 HD
BRANCH  11  15
ATOM     15  C   UNL     1       0.826   9.783  18.946  0.00  0.00    +0.000 C 
ATOM     16  C   UNL     1       1.587  11.073  18.626  0.00  0.00    +0.000 C 
BRANCH  15  17
ATOM     17  C   UNL     1      -0.282  10.029  19.982  0.00  0.00    +0.000 C 
BRANCH  17  19
ATOM     18  C   UNL     1      -1.747  11.872  20.048  0.00  0.00    +0.000 C 
ATOM     19  O   UNL     1      -1.383  10.686  19.359  0.00  0.00    +0.000 OA
ENDBRANCH  17  19
ENDBRANCH  15  17
ENDBRANCH  11  15
ENDBRANCH  10  12
ENDBRANCH   1  10
BRANCH   2  20
ATOM     20  S   UNL     1       5.239   6.213  16.592  0.00  0.00    +0.000 S 
BRANCH  20  21
ATOM     21  C   UNL     1       6.521   4.988  16.143  0.00  0.00    +0.000 C 
BRANCH  21  22
ATOM     22  C   UNL     1       6.642   4.722  14.654  0.00  0.00    +0.000 A 
ATOM     23  C   UNL     1       7.587   5.406  13.869  0.00  0.00    +0.000 A 
ATOM     24  C   UNL     1       7.751   5.096  12.515  0.00  0.00    +0.000 A 
ATOM     25  C   UNL     1       6.976   4.099  11.923  0.00  0.00    +0.000 A 
ATOM     26  C   UNL     1       6.034   3.417  12.687  0.00  0.00    +0.000 A 
ATOM     27  C   UNL     1       5.863   3.728  14.040  0.00  0.00    +0.000 A 
ENDBRANCH  21  22
ENDBRANCH  20  21
ENDBRANCH   2  20
TORSDOF 8
ENDMDL
MODEL 5
REMARK VINA RESULT:      -7.0      6.886      9.858
REMARK  Name = 
REMARK  10 active torsions:
REMARK  status: ('A' for Active; 'I' for Inactive)
REMARK    1  A    between atoms: C_1  and  O_2
REMARK    2  A    between atoms: O_2  and  C_3
REMARK    3  A    between atoms: C_3  and  C_4
REMARK    4  A    between atoms: C_4  and  C_5
REMARK    5  A    between atoms: C_4  and  N_6
REMARK    6  A    between atoms: C_7  and  C_9
REMARK    7  A    between atoms: C_9  and  N_10
REMARK    8  A    between atoms: C_11  and  S_12
REMARK    9  A    between atoms: S_12  and  C_13
REMARK   10  A    between atoms: C_13  and  C_14
REMARK                            x       y       z     vdW  Elec       q    Type
REMARK                         _______ _______ _______ _____ _____    ______ ____
ROOT
ATOM      1  N   UNL     1       5.888   5.104  16.872  0.00  0.00    +0.000 N 
ATOM      2  C   UNL     1       6.127   6.299  17.513  0.00  0.00    +0.000 A 
ATOM      3  N   UNL     1       5.044   6.756  18.098  0.00  0.00    +0.000 NA
ATOM      4  C   UNL     1       4.077   5.809  17.884  0.00  0.00    +0.000 A 
ATOM      5  C   UNL     1       2.745   5.781  18.322  0.00  0.00    +0.000 A 
ATOM      6  C   UNL     1       1.964   4.652  18.043  0.00  0.00    +0.000 A 
ATOM      7  C   UNL     1       2.494   3.579  17.329  0.00  0.00    +0.000 A 
ATOM      8  C   UNL     1       3.808   3.607  16.846  0.00  0.00    +0.000 A 
ATOM      9  C   UNL     1       4.578   4.744  17.144  0.00  0.00    +0.000 A 
ENDROOT
BRANCH   1  10
ATOM     10  C   UNL     1       6.797   4.308  16.063  0.00  0.00    +0.000 C 
BRANCH  10  12
ATOM     11  N   UNL     1       6.342   3.406  13.809  0.00  0.00    +0.000 N 
ATOM     12  C   UNL     1       6.644   4.519  14.561  0.00  0.00    +0.000 C 
ATOM     13  O   UNL     1       6.824   5.630  14.061  0.00  0.00    +0.000 OA
ATOM     14  H   UNL     1       6.393   2.489  14.240  0.00  0.00    +0.000 HD
BRANCH  11  15
ATOM     15  C   UNL     1       6.195   3.460  12.357  0.00  0.00    +0.000 C 
ATOM     16  C   UNL     1       4.722   3.610  11.967  0.00  0.00    +0.000 C 
BRANCH  15  17
ATOM     17  C   UNL     1       6.824   2.218  11.708  0.00  0.00    +0.000 C 
BRANCH  17  19
ATOM     18  C   UNL     1       6.190  -0.012  11.289  0.00  0.00    +0.000 C 
ATOM     19  O   UNL     1       5.795   1.349  11.239  0.00  0.00    +0.000 OA
ENDBRANCH  17  19
ENDBRANCH  15  17
ENDBRANCH  11  15
ENDBRANCH  10  12
ENDBRANCH   1  10
BRANCH   2  20
ATOM     20  S   UNL     1       7.674   7.096  17.606  0.00  0.00    +0.000 S 
BRANCH  20  21
ATOM     21  C   UNL     1       7.138   8.843  17.542  0.00  0.00    +0.000 C 
BRANCH  21  22
ATOM     22  C   UNL     1       8.168   9.837  18.045  0.00  0.00    +0.000 A 
ATOM     23  C   UNL     1       8.261  11.127  17.493  0.00  0.00    +0.000 A 
ATOM     24  C   UNL     1       9.156  12.066  18.018  0.00  0.00    +0.000 A 
ATOM     25  C   UNL     1       9.971  11.733  19.100  0.00  0.00    +0.000 A 
ATOM     26  C   UNL     1       9.892  10.459  19.652  0.00  0.00    +0.000 A 
ATOM     27  C   UNL     1       9.002   9.515  19.127  0.00  0.00    +0.000 A 
ENDBRANCH  21  22
ENDBRANCH  20  21
ENDBRANCH   2  20
TORSDOF 8
ENDMDL
MODEL 6
REMARK VINA RESULT:      -7.0      4.251      8.365
REMARK  Name = 
REMARK  10 active torsions:
REMARK  status: ('A' for Active; 'I' for Inactive)
REMARK    1  A    between atoms: C_1  and  O_2
REMARK    2  A    between atoms: O_2  and  C_3
REMARK    3  A    between atoms: C_3  and  C_4
REMARK    4  A    between atoms: C_4  and  C_5
REMARK    5  A    between atoms: C_4  and  N_6
REMARK    6  A    between atoms: C_7  and  C_9
REMARK    7  A    between atoms: C_9  and  N_10
REMARK    8  A    between atoms: C_11  and  S_12
REMARK    9  A    between atoms: S_12  and  C_13
REMARK   10  A    between atoms: C_13  and  C_14
REMARK                            x       y       z     vdW  Elec       q    Type
REMARK                         _______ _______ _______ _____ _____    ______ ____
ROOT
ATOM      1  N   UNL     1       3.161   5.336  18.470  0.00  0.00    +0.000 N 
ATOM      2  C   UNL     1       2.456   6.372  19.039  0.00  0.00    +0.000 A 
ATOM      3  N   UNL     1       1.931   6.022  20.191  0.00  0.00    +0.000 NA
ATOM      4  C   UNL     1       2.349   4.737  20.415  0.00  0.00    +0.000 A 
ATOM      5  C   UNL     1       2.105   3.899  21.513  0.00  0.00    +0.000 A 
ATOM      6  C   UNL     1       2.715   2.640  21.553  0.00  0.00    +0.000 A 
ATOM      7  C   UNL     1       3.540   2.215  20.513  0.00  0.00    +0.000 A 
ATOM      8  C   UNL     1       3.761   3.020  19.388  0.00  0.00    +0.000 A 
ATOM      9  C   UNL     1       3.147   4.283  19.371  0.00  0.00    +0.000 A 
ENDROOT
BRANCH   1  10
ATOM     10  C   UNL     1       3.835   5.293  17.182  0.00  0.00    +0.000 C 
BRANCH  10  12
ATOM     11  N   UNL     1       5.939   6.496  17.661  0.00  0.00    +0.000 N 
ATOM     12  C   UNL     1       5.357   5.309  17.275  0.00  0.00    +0.000 C 
ATOM     13  O   UNL     1       6.016   4.313  16.976  0.00  0.00    +0.000 OA
ATOM     14  H   UNL     1       5.369   7.333  17.710  0.00  0.00    +0.000 HD
BRANCH  11  15
ATOM     15  C   UNL     1       7.386   6.659  17.764  0.00  0.00    +0.000 C 
ATOM     16  C   UNL     1       7.895   6.153  19.117  0.00  0.00    +0.000 C 
BRANCH  15  17
ATOM     17  C   UNL     1       7.777   8.127  17.532  0.00  0.00    +0.000 C 
BRANCH  17  19
ATOM     18  C   UNL     1       8.861   9.973  18.516  0.00  0.00    +0.000 C 
ATOM     19  O   UNL     1       8.587   8.584  18.613  0.00  0.00    +0.000 OA
ENDBRANCH  17  19
ENDBRANCH  15  17
ENDBRANCH  11  15
ENDBRANCH  10  12
ENDBRANCH   1  10
BRANCH   2  20
ATOM     20  S   UNL     1       2.311   7.975  18.368  0.00  0.00    +0.000 S 
BRANCH  20  21
ATOM     21  C   UNL     1       1.660   8.872  19.823  0.00  0.00    +0.000 C 
BRANCH  21  22
ATOM     22  C   UNL     1       0.442   9.731  19.539  0.00  0.00    +0.000 A 
ATOM     23  C   UNL     1      -0.146  10.512  20.549  0.00  0.00    +0.000 A 
ATOM     24  C   UNL     1      -1.217  11.367  20.261  0.00  0.00    +0.000 A 
ATOM     25  C   UNL     1      -1.715  11.455  18.962  0.00  0.00    +0.000 A 
ATOM     26  C   UNL     1      -1.145  10.685  17.953  0.00  0.00    +0.000 A 
ATOM     27  C   UNL     1      -0.078   9.825  18.238  0.00  0.00    +0.000 A 
ENDBRANCH  21  22
ENDBRANCH  20  21
ENDBRANCH   2  20
TORSDOF 8
ENDMDL
MODEL 7
REMARK VINA RESULT:      -7.0      3.990      6.688
REMARK  Name = 
REMARK  10 active torsions:
REMARK  status: ('A' for Active; 'I' for Inactive)
REMARK    1  A    between atoms: C_1  and  O_2
REMARK    2  A    between atoms: O_2  and  C_3
REMARK    3  A    between atoms: C_3  and  C_4
REMARK    4  A    between atoms: C_4  and  C_5
REMARK    5  A    between atoms: C_4  and  N_6
REMARK    6  A    between atoms: C_7  and  C_9
REMARK    7  A    between atoms: C_9  and  N_10
REMARK    8  A    between atoms: C_11  and  S_12
REMARK    9  A    between atoms: S_12  and  C_13
REMARK   10  A    between atoms: C_13  and  C_14
REMARK                            x       y       z     vdW  Elec       q    Type
REMARK                         _______ _______ _______ _____ _____    ______ ____
ROOT
ATOM      1  N   UNL     1       3.892   5.354  18.335  0.00  0.00    +0.000 N 
ATOM      2  C   UNL     1       5.089   4.950  18.881  0.00  0.00    +0.000 A 
ATOM      3  N   UNL     1       4.968   3.805  19.513  0.00  0.00    +0.000 NA
ATOM      4  C   UNL     1       3.668   3.415  19.331  0.00  0.00    +0.000 A 
ATOM      5  C   UNL     1       3.017   2.252  19.767  0.00  0.00    +0.000 A 
ATOM      6  C   UNL     1       1.688   2.034  19.382  0.00  0.00    +0.000 A 
ATOM      7  C   UNL     1       1.015   2.963  18.592  0.00  0.00    +0.000 A 
ATOM      8  C   UNL     1       1.633   4.151  18.183  0.00  0.00    +0.000 A 
ATOM      9  C   UNL     1       2.969   4.348  18.571  0.00  0.00    +0.000 A 
ENDROOT
BRANCH   1  10
ATOM     10  C   UNL     1       3.587   6.581  17.616  0.00  0.00    +0.000 C 
BRANCH  10  12
ATOM     11  N   UNL     1       2.371   8.727  17.751  0.00  0.00    +0.000 N 
ATOM     12  C   UNL     1       2.734   7.569  18.403  0.00  0.00    +0.000 C 
ATOM     13  O   UNL     1       2.429   7.343  19.574  0.00  0.00    +0.000 OA
ATOM     14  H   UNL     1       2.803   8.950  16.862  0.00  0.00    +0.000 HD
BRANCH  11  15
ATOM     15  C   UNL     1       1.578   9.770  18.396  0.00  0.00    +0.000 C 
ATOM     16  C   UNL     1       0.111   9.679  17.969  0.00  0.00    +0.000 C 
BRANCH  15  17
ATOM     17  C   UNL     1       2.167  11.156  18.087  0.00  0.00    +0.000 C 
BRANCH  17  19
ATOM     18  C   UNL     1       1.108  13.194  18.611  0.00  0.00    +0.000 C 
ATOM     19  O   UNL     1       1.808  12.070  19.121  0.00  0.00    +0.000 OA
ENDBRANCH  17  19
ENDBRANCH  15  17
ENDBRANCH  11  15
ENDBRANCH  10  12
ENDBRANCH   1  10
BRANCH   2  20
ATOM     20  S   UNL     1       6.603   5.799  18.719  0.00  0.00    +0.000 S 
BRANCH  20  21
ATOM     21  C   UNL     1       7.513   4.626  17.651  0.00  0.00    +0.000 C 
BRANCH  21  22
ATOM     22  C   UNL     1       6.975   4.515  16.236  0.00  0.00    +0.000 A 
ATOM     23  C   UNL     1       7.607   5.172  15.166  0.00  0.00    +0.000 A 
ATOM     24  C   UNL     1       7.156   4.998  13.853  0.00  0.00    +0.000 A 
ATOM     25  C   UNL     1       6.069   4.165  13.588  0.00  0.00    +0.000 A 
ATOM     26  C   UNL     1       5.432   3.512  14.638  0.00  0.00    +0.000 A 
ATOM     27  C   UNL     1       5.876   3.688  15.954  0.00  0.00    +0.000 A 
ENDBRANCH  21  22
ENDBRANCH  20  21
ENDBRANCH   2  20
TORSDOF 8
ENDMDL
MODEL 8
REMARK VINA RESULT:      -6.9      4.334      8.363
REMARK  Name = 
REMARK  10 active torsions:
REMARK  status: ('A' for Active; 'I' for Inactive)
REMARK    1  A    between atoms: C_1  and  O_2
REMARK    2  A    between atoms: O_2  and  C_3
REMARK    3  A    between atoms: C_3  and  C_4
REMARK    4  A    between atoms: C_4  and  C_5
REMARK    5  A    between atoms: C_4  and  N_6
REMARK    6  A    between atoms: C_7  and  C_9
REMARK    7  A    between atoms: C_9  and  N_10
REMARK    8  A    between atoms: C_11  and  S_12
REMARK    9  A    between atoms: S_12  and  C_13
REMARK   10  A    between atoms: C_13  and  C_14
REMARK                            x       y       z     vdW  Elec       q    Type
REMARK                         _______ _______ _______ _____ _____    ______ ____
ROOT
ATOM      1  N   UNL     1       3.428   5.276  18.170  0.00  0.00    +0.000 N 
ATOM      2  C   UNL     1       2.876   6.467  18.586  0.00  0.00    +0.000 A 
ATOM      3  N   UNL     1       2.251   6.333  19.734  0.00  0.00    +0.000 NA
ATOM      4  C   UNL     1       2.444   5.031  20.113  0.00  0.00    +0.000 A 
ATOM      5  C   UNL     1       2.020   4.368  21.274  0.00  0.00    +0.000 A 
ATOM      6  C   UNL     1       2.415   3.040  21.480  0.00  0.00    +0.000 A 
ATOM      7  C   UNL     1       3.205   2.380  20.540  0.00  0.00    +0.000 A 
ATOM      8  C   UNL     1       3.603   3.010  19.355  0.00  0.00    +0.000 A 
ATOM      9  C   UNL     1       3.204   4.345  19.171  0.00  0.00    +0.000 A 
ENDROOT
BRANCH   1  10
ATOM     10  C   UNL     1       4.142   4.986  16.937  0.00  0.00    +0.000 C 
BRANCH  10  12
ATOM     11  N   UNL     1       6.113   6.283  17.670  0.00  0.00    +0.000 N 
ATOM     12  C   UNL     1       5.655   5.147  17.040  0.00  0.00    +0.000 C 
ATOM     13  O   UNL     1       6.411   4.311  16.544  0.00  0.00    +0.000 OA
ATOM     14  H   UNL     1       5.458   7.025  17.889  0.00  0.00    +0.000 HD
BRANCH  11  15
ATOM     15  C   UNL     1       7.536   6.576  17.813  0.00  0.00    +0.000 C 
ATOM     16  C   UNL     1       8.053   6.104  19.175  0.00  0.00    +0.000 C 
BRANCH  15  17
ATOM     17  C   UNL     1       7.798   8.076  17.603  0.00  0.00    +0.000 C 
BRANCH  17  19
ATOM     18  C   UNL     1       8.884   9.958  18.512  0.00  0.00    +0.000 C 
ATOM     19  O   UNL     1       8.618   8.572  18.658  0.00  0.00    +0.000 OA
ENDBRANCH  17  19
ENDBRANCH  15  17
ENDBRANCH  11  15
ENDBRANCH  10  12
ENDBRANCH   1  10
BRANCH   2  20
ATOM     20  S   UNL     1       3.023   7.988  17.748  0.00  0.00    +0.000 S 
BRANCH  20  21
ATOM     21  C   UNL     1       1.321   8.629  17.949  0.00  0.00    +0.000 C 
BRANCH  21  22
ATOM     22  C   UNL     1       1.188   9.754  18.958  0.00  0.00    +0.000 A 
ATOM     23  C   UNL     1       1.459  11.086  18.598  0.00  0.00    +0.000 A 
ATOM     24  C   UNL     1       1.253  12.129  19.508  0.00  0.00    +0.000 A 
ATOM     25  C   UNL     1       0.772  11.859  20.789  0.00  0.00    +0.000 A 
ATOM     26  C   UNL     1       0.503  10.545  21.159  0.00  0.00    +0.000 A 
ATOM     27  C   UNL     1       0.713   9.499  20.254  0.00  0.00    +0.000 A 
ENDBRANCH  21  22
ENDBRANCH  20  21
ENDBRANCH   2  20
TORSDOF 8
ENDMDL
MODEL 9
REMARK VINA RESULT:      -6.9      1.519      1.961
REMARK  Name = 
REMARK  10 active torsions:
REMARK  status: ('A' for Active; 'I' for Inactive)
REMARK    1  A    between atoms: C_1  and  O_2
REMARK    2  A    between atoms: O_2  and  C_3
REMARK    3  A    between atoms: C_3  and  C_4
REMARK    4  A    between atoms: C_4  and  C_5
REMARK    5  A    between atoms: C_4  and  N_6
REMARK    6  A    between atoms: C_7  and  C_9
REMARK    7  A    between atoms: C_9  and  N_10
REMARK    8  A    between atoms: C_11  and  S_12
REMARK    9  A    between atoms: S_12  and  C_13
REMARK   10  A    between atoms: C_13  and  C_14
REMARK                            x       y       z     vdW  Elec       q    Type
REMARK                         _______ _______ _______ _____ _____    ______ ____
ROOT
ATOM      1  N   UNL     1       0.447  10.022  19.467  0.00  0.00    +0.000 N 
ATOM      2  C   UNL     1       1.294   8.938  19.525  0.00  0.00    +0.000 A 
ATOM      3  N   UNL     1       1.459   8.521  20.760  0.00  0.00    +0.000 NA
ATOM      4  C   UNL     1       0.655   9.318  21.532  0.00  0.00    +0.000 A 
ATOM      5  C   UNL     1       0.428   9.280  22.915  0.00  0.00    +0.000 A 
ATOM      6  C   UNL     1      -0.514  10.155  23.472  0.00  0.00    +0.000 A 
ATOM      7  C   UNL     1      -1.204  11.061  22.669  0.00  0.00    +0.000 A 
ATOM      8  C   UNL     1      -0.960  11.143  21.293  0.00  0.00    +0.000 A 
ATOM      9  C   UNL     1      -0.019  10.251  20.752  0.00  0.00    +0.000 A 
ENDROOT
BRANCH   1  10
ATOM     10  C   UNL     1       0.055  10.810  18.310  0.00  0.00    +0.000 C 
BRANCH  10  12
ATOM     11  N   UNL     1      -2.353  11.299  18.059  0.00  0.00    +0.000 N 
ATOM     12  C   UNL     1      -1.315  10.450  17.745  0.00  0.00    +0.000 C 
ATOM     13  O   UNL     1      -1.471   9.428  17.078  0.00  0.00    +0.000 OA
ATOM     14  H   UNL     1      -2.211  12.015  18.762  0.00  0.00    +0.000 HD
BRANCH  11  15
ATOM     15  C   UNL     1      -3.721  11.059  17.608  0.00  0.00    +0.000 C 
ATOM     16  C   UNL     1      -3.841  11.279  16.097  0.00  0.00    +0.000 C 
BRANCH  15  17
ATOM     17  C   UNL     1      -4.704  11.950  18.384  0.00  0.00    +0.000 C 
BRANCH  17  19
ATOM     18  C   UNL     1      -6.809  10.894  18.420  0.00  0.00    +0.000 C 
ATOM     19  O   UNL     1      -5.604  11.133  19.129  0.00  0.00    +0.000 OA
ENDBRANCH  17  19
ENDBRANCH  15  17
ENDBRANCH  11  15
ENDBRANCH  10  12
ENDBRANCH   1  10
BRANCH   2  20
ATOM     20  S   UNL     1       2.021   8.157  18.147  0.00  0.00    +0.000 S 
BRANCH  20  21
ATOM     21  C   UNL     1       2.949   6.825  18.987  0.00  0.00    +0.000 C 
BRANCH  21  22
ATOM     22  C   UNL     1       2.191   5.517  19.121  0.00  0.00    +0.000 A 
ATOM     23  C   UNL     1       1.996   4.675  18.012  0.00  0.00    +0.000 A 
ATOM     24  C   UNL     1       1.370   3.432  18.159  0.00  0.00    +0.000 A 
ATOM     25  C   UNL     1       0.930   3.011  19.413  0.00  0.00    +0.000 A 
ATOM     26  C   UNL     1       1.112   3.836  20.518  0.00  0.00    +0.000 A 
ATOM     27  C   UNL     1       1.733   5.082  20.375  0.00  0.00    +0.000 A 
ENDBRANCH  21  22
ENDBRANCH  20  21
ENDBRANCH   2  20
TORSDOF 8
ENDMDL
