MODEL 1
REMARK VINA RESULT:      -7.9      0.000      0.000
REMARK  Name = 
REMARK  6 active torsions:
REMARK  status: ('A' for Active; 'I' for Inactive)
REMARK    1  A    between atoms: C_1  and  O_2
REMARK    2  A    between atoms: O_2  and  C_3
REMARK    3  A    between atoms: N_5  and  C_6
REMARK    4  A    between atoms: N_10  and  C_11
REMARK    5  A    between atoms: C_11  and  C_12
REMARK    6  A    between atoms: C_20  and  N_21
REMARK                            x       y       z     vdW  Elec       q    Type
REMARK                         _______ _______ _______ _____ _____    ______ ____
ROOT
ATOM      1  C   UNL     1       6.225   5.044  17.597  0.00  0.00    +0.000 A 
ATOM      2  C   UNL     1       7.071   5.000  18.727  0.00  0.00    +0.000 A 
ATOM      3  C   UNL     1       7.888   6.069  19.054  0.00  0.00    +0.000 A 
ATOM      4  C   UNL     1       7.860   7.219  18.277  0.00  0.00    +0.000 A 
ATOM      5  N   UNL     1       8.687   8.320  18.624  0.00  0.00    +0.000 N 
ATOM      6  N   UNL     1       7.049   7.269  17.187  0.00  0.00    +0.000 NA
ATOM      7  C   UNL     1       6.252   6.227  16.808  0.00  0.00    +0.000 A 
ATOM      8  H   UNL     1       9.454   8.181  19.301  0.00  0.00    +0.000 HD
ENDROOT
BRANCH   1  11
ATOM      9  C   UNL     1       4.178   3.643  17.733  0.00  0.00    +0.000 C 
ATOM     10  O   UNL     1       3.591   4.454  18.435  0.00  0.00    +0.000 OA
ATOM     11  N   UNL     1       5.421   3.910  17.231  0.00  0.00    +0.000 N 
ATOM     12  H   UNL     1       5.801   3.228  16.563  0.00  0.00    +0.000 HD
BRANCH   9  14
ATOM     13  C   UNL     1       2.984   1.673  18.399  0.00  0.00    +0.000 C 
ATOM     14  O   UNL     1       3.577   2.463  17.435  0.00  0.00    +0.000 OA
ENDBRANCH   9  14
ENDBRANCH   1  11
BRANCH   7  15
ATOM     15  N   UNL     1       5.471   6.384  15.632  0.00  0.00    +0.000 N 
ATOM     16  H   UNL     1       4.475   6.635  15.713  0.00  0.00    +0.000 HD
ATOM     17  H   UNL     1       5.851   6.251  14.687  0.00  0.00    +0.000 HD
ENDBRANCH   7  15
BRANCH   5  18
ATOM     18  C   UNL     1       8.427   9.662  18.152  0.00  0.00    +0.000 C 
BRANCH  18  19
ATOM     19  C   UNL     1       9.436  10.635  18.688  0.00  0.00    +0.000 A 
ATOM     20  C   UNL     1      10.262  11.347  17.802  0.00  0.00    +0.000 A 
ATOM     21  C   UNL     1      11.170  12.290  18.293  0.00  0.00    +0.000 A 
ATOM     22  C   UNL     1      11.261  12.524  19.668  0.00  0.00    +0.000 A 
ATOM     23  F   UNL     1      12.137  13.446  20.140  0.00  0.00    +0.000 F 
ATOM     24  C   UNL     1      10.448  11.813  20.555  0.00  0.00    +0.000 A 
ATOM     25  C   UNL     1       9.536  10.873  20.069  0.00  0.00    +0.000 A 
ENDBRANCH  18  19
ENDBRANCH   5  18
TORSDOF 5
ENDMDL
MODEL 2
REMARK VINA RESULT:      -7.8      0.284      1.095
REMARK  Name = 
REMARK  6 active torsions:
REMARK  status: ('A' for Active; 'I' for Inactive)
REMARK    1  A    between atoms: C_1  and  O_2
REMARK    2  A    between atoms: O_2  and  C_3
REMARK    3  A    between atoms: N_5  and  C_6
REMARK    4  A    between atoms: N_10  and  C_11
REMARK    5  A    between atoms: C_11  and  C_12
REMARK    6  A    between atoms: C_20  and  N_21
REMARK                            x       y       z     vdW  Elec       q    Type
REMARK                         _______ _______ _______ _____ _____    ______ ____
ROOT
ATOM      1  C   UNL     1       6.198   5.097  17.603  0.00  0.00    +0.000 A 
ATOM      2  C   UNL     1       7.062   5.053  18.719  0.00  0.00    +0.000 A 
ATOM      3  C   UNL     1       7.889   6.120  19.029  0.00  0.00    +0.000 A 
ATOM      4  C   UNL     1       7.853   7.267  18.248  0.00  0.00    +0.000 A 
ATOM      5  N   UNL     1       8.691   8.365  18.577  0.00  0.00    +0.000 N 
ATOM      6  N   UNL     1       7.024   7.316  17.172  0.00  0.00    +0.000 NA
ATOM      7  C   UNL     1       6.218   6.277  16.809  0.00  0.00    +0.000 A 
ATOM      8  H   UNL     1       9.468   8.226  19.242  0.00  0.00    +0.000 HD
ENDROOT
BRANCH   1  11
ATOM      9  C   UNL     1       4.313   3.523  17.981  0.00  0.00    +0.000 C 
ATOM     10  O   UNL     1       3.878   4.170  18.923  0.00  0.00    +0.000 OA
ATOM     11  N   UNL     1       5.383   3.965  17.255  0.00  0.00    +0.000 N 
ATOM     12  H   UNL     1       5.621   3.423  16.414  0.00  0.00    +0.000 HD
BRANCH   9  14
ATOM     13  C   UNL     1       2.357   2.148  17.793  0.00  0.00    +0.000 C 
ATOM     14  O   UNL     1       3.714   2.353  17.644  0.00  0.00    +0.000 OA
ENDBRANCH   9  14
ENDBRANCH   1  11
BRANCH   7  15
ATOM     15  N   UNL     1       5.418   6.432  15.646  0.00  0.00    +0.000 N 
ATOM     16  H   UNL     1       4.833   7.275  15.539  0.00  0.00    +0.000 HD
ATOM     17  H   UNL     1       5.384   5.734  14.893  0.00  0.00    +0.000 HD
ENDBRANCH   7  15
BRANCH   5  18
ATOM     18  C   UNL     1       8.429   9.707  18.104  0.00  0.00    +0.000 C 
BRANCH  18  19
ATOM     19  C   UNL     1       9.431  10.684  18.647  0.00  0.00    +0.000 A 
ATOM     20  C   UNL     1       9.513  10.906  20.032  0.00  0.00    +0.000 A 
ATOM     21  C   UNL     1      10.476  11.779  20.547  0.00  0.00    +0.000 A 
ATOM     22  C   UNL     1      11.359  12.435  19.684  0.00  0.00    +0.000 A 
ATOM     23  F   UNL     1      12.299  13.274  20.187  0.00  0.00    +0.000 F 
ATOM     24  C   UNL     1      11.277  12.224  18.305  0.00  0.00    +0.000 A 
ATOM     25  C   UNL     1      10.318  11.349  17.786  0.00  0.00    +0.000 A 
ENDBRANCH  18  19
ENDBRANCH   5  18
TORSDOF 5
ENDMDL
MODEL 3
REMARK VINA RESULT:      -7.2      4.304      8.476
REMARK  Name = 
REMARK  6 active torsions:
REMARK  status: ('A' for Active; 'I' for Inactive)
REMARK    1  A    between atoms: C_1  and  O_2
REMARK    2  A    between atoms: O_2  and  C_3
REMARK    3  A    between atoms: N_5  and  C_6
REMARK    4  A    between atoms: N_10  and  C_11
REMARK    5  A    between atoms: C_11  and  C_12
REMARK    6  A    between atoms: C_20  and  N_21
REMARK                            x       y       z     vdW  Elec       q    Type
REMARK                         _______ _______ _______ _____ _____    ______ ____
ROOT
ATOM      1  C   UNL     1       7.831   6.929  18.374  0.00  0.00    +0.000 A 
ATOM      2  C   UNL     1       7.177   7.096  17.135  0.00  0.00    +0.000 A 
ATOM      3  C   UNL     1       6.412   6.081  16.584  0.00  0.00    +0.000 A 
ATOM      4  C   UNL     1       6.260   4.884  17.270  0.00  0.00    +0.000 A 
ATOM      5  N   UNL     1       5.464   3.850  16.711  0.00  0.00    +0.000 N 
ATOM      6  N   UNL     1       6.889   4.715  18.464  0.00  0.00    +0.000 NA
ATOM      7  C   UNL     1       7.679   5.675  19.029  0.00  0.00    +0.000 A 
ATOM      8  H   UNL     1       5.193   3.905  15.716  0.00  0.00    +0.000 HD
ENDROOT
BRANCH   1  11
ATOM      9  C   UNL     1       8.621   9.278  18.538  0.00  0.00    +0.000 C 
ATOM     10  O   UNL     1       7.738   9.695  17.802  0.00  0.00    +0.000 OA
ATOM     11  N   UNL     1       8.668   7.965  18.914  0.00  0.00    +0.000 N 
ATOM     12  H   UNL     1       9.374   7.716  19.619  0.00  0.00    +0.000 HD
BRANCH   9  14
ATOM     13  C   UNL     1       9.452  10.772  20.221  0.00  0.00    +0.000 C 
ATOM     14  O   UNL     1       9.564  10.139  18.999  0.00  0.00    +0.000 OA
ENDBRANCH   9  14
ENDBRANCH   1  11
BRANCH   7  15
ATOM     15  N   UNL     1       8.309   5.372  20.265  0.00  0.00    +0.000 N 
ATOM     16  H   UNL     1       9.114   5.935  20.577  0.00  0.00    +0.000 HD
ATOM     17  H   UNL     1       8.004   4.603  20.874  0.00  0.00    +0.000 HD
ENDBRANCH   7  15
BRANCH   5  18
ATOM     18  C   UNL     1       4.918   2.776  17.510  0.00  0.00    +0.000 C 
BRANCH  18  19
ATOM     19  C   UNL     1       3.711   3.228  18.281  0.00  0.00    +0.000 A 
ATOM     20  C   UNL     1       2.589   3.725  17.597  0.00  0.00    +0.000 A 
ATOM     21  C   UNL     1       1.445   4.103  18.307  0.00  0.00    +0.000 A 
ATOM     22  C   UNL     1       1.417   3.990  19.700  0.00  0.00    +0.000 A 
ATOM     23  F   UNL     1       0.303   4.348  20.386  0.00  0.00    +0.000 F 
ATOM     24  C   UNL     1       2.533   3.504  20.386  0.00  0.00    +0.000 A 
ATOM     25  C   UNL     1       3.678   3.122  19.681  0.00  0.00    +0.000 A 
ENDBRANCH  18  19
ENDBRANCH   5  18
TORSDOF 5
ENDMDL
MODEL 4
REMARK VINA RESULT:      -7.1      4.290      8.516
REMARK  Name = 
REMARK  6 active torsions:
REMARK  status: ('A' for Active; 'I' for Inactive)
REMARK    1  A    between atoms: C_1  and  O_2
REMARK    2  A    between atoms: O_2  and  C_3
REMARK    3  A    between atoms: N_5  and  C_6
REMARK    4  A    between atoms: N_10  and  C_11
REMARK    5  A    between atoms: C_11  and  C_12
REMARK    6  A    between atoms: C_20  and  N_21
REMARK                            x       y       z     vdW  Elec       q    Type
REMARK                         _______ _______ _______ _____ _____    ______ ____
ROOT
ATOM      1  C   UNL     1       7.817   6.916  18.382  0.00  0.00    +0.000 A 
ATOM      2  C   UNL     1       7.134   7.108  17.161  0.00  0.00    +0.000 A 
ATOM      3  C   UNL     1       6.363   6.102  16.604  0.00  0.00    +0.000 A 
ATOM      4  C   UNL     1       6.232   4.888  17.266  0.00  0.00    +0.000 A 
ATOM      5  N   UNL     1       5.429   3.863  16.700  0.00  0.00    +0.000 N 
ATOM      6  N   UNL     1       6.889   4.695  18.441  0.00  0.00    +0.000 NA
ATOM      7  C   UNL     1       7.686   5.646  19.010  0.00  0.00    +0.000 A 
ATOM      8  H   UNL     1       5.136   3.939  15.713  0.00  0.00    +0.000 HD
ENDROOT
BRANCH   1  11
ATOM      9  C   UNL     1       8.630   9.257  18.549  0.00  0.00    +0.000 C 
ATOM     10  O   UNL     1       7.756   9.682  17.806  0.00  0.00    +0.000 OA
ATOM     11  N   UNL     1       8.660   7.944  18.927  0.00  0.00    +0.000 N 
ATOM     12  H   UNL     1       9.358   7.688  19.637  0.00  0.00    +0.000 HD
BRANCH   9  14
ATOM     13  C   UNL     1       9.436  10.788  20.210  0.00  0.00    +0.000 C 
ATOM     14  O   UNL     1       9.578  10.108  19.016  0.00  0.00    +0.000 OA
ENDBRANCH   9  14
ENDBRANCH   1  11
BRANCH   7  15
ATOM     15  N   UNL     1       8.346   5.318  20.224  0.00  0.00    +0.000 N 
ATOM     16  H   UNL     1       8.271   5.954  21.031  0.00  0.00    +0.000 HD
ATOM     17  H   UNL     1       8.911   4.468  20.341  0.00  0.00    +0.000 HD
ENDBRANCH   7  15
BRANCH   5  18
ATOM     18  C   UNL     1       4.907   2.768  17.486  0.00  0.00    +0.000 C 
BRANCH  18  19
ATOM     19  C   UNL     1       3.681   3.179  18.250  0.00  0.00    +0.000 A 
ATOM     20  C   UNL     1       3.697   3.171  19.655  0.00  0.00    +0.000 A 
ATOM     21  C   UNL     1       2.575   3.599  20.372  0.00  0.00    +0.000 A 
ATOM     22  C   UNL     1       1.433   4.031  19.691  0.00  0.00    +0.000 A 
ATOM     23  F   UNL     1       0.350   4.454  20.389  0.00  0.00    +0.000 F 
ATOM     24  C   UNL     1       1.409   4.033  18.294  0.00  0.00    +0.000 A 
ATOM     25  C   UNL     1       2.529   3.610  17.573  0.00  0.00    +0.000 A 
ENDBRANCH  18  19
ENDBRANCH   5  18
TORSDOF 5
ENDMDL
MODEL 5
REMARK VINA RESULT:      -7.1      4.326      8.786
REMARK  Name = 
REMARK  6 active torsions:
REMARK  status: ('A' for Active; 'I' for Inactive)
REMARK    1  A    between atoms: C_1  and  O_2
REMARK    2  A    between atoms: O_2  and  C_3
REMARK    3  A    between atoms: N_5  and  C_6
REMARK    4  A    between atoms: N_10  and  C_11
REMARK    5  A    between atoms: C_11  and  C_12
REMARK    6  A    between atoms: C_20  and  N_21
REMARK                            x       y       z     vdW  Elec       q    Type
REMARK                         _______ _______ _______ _____ _____    ______ ____
ROOT
ATOM      1  C   UNL     1       6.398   6.605  16.942  0.00  0.00    +0.000 A 
ATOM      2  C   UNL     1       7.090   5.421  16.606  0.00  0.00    +0.000 A 
ATOM      3  C   UNL     1       6.474   4.183  16.683  0.00  0.00    +0.000 A 
ATOM      4  C   UNL     1       5.143   4.099  17.071  0.00  0.00    +0.000 A 
ATOM      5  N   UNL     1       4.510   2.830  17.134  0.00  0.00    +0.000 N 
ATOM      6  N   UNL     1       4.471   5.235  17.396  0.00  0.00    +0.000 NA
ATOM      7  C   UNL     1       5.047   6.472  17.368  0.00  0.00    +0.000 A 
ATOM      8  H   UNL     1       5.089   1.976  17.112  0.00  0.00    +0.000 HD
ENDROOT
BRANCH   1  11
ATOM      9  C   UNL     1       7.963   8.310  17.843  0.00  0.00    +0.000 C 
ATOM     10  O   UNL     1       8.393   7.555  18.703  0.00  0.00    +0.000 OA
ATOM     11  N   UNL     1       7.058   7.881  16.913  0.00  0.00    +0.000 N 
ATOM     12  H   UNL     1       6.829   8.541  16.160  0.00  0.00    +0.000 HD
BRANCH   9  14
ATOM     13  C   UNL     1       9.105  10.165  18.846  0.00  0.00    +0.000 C 
ATOM     14  O   UNL     1       8.405   9.592  17.804  0.00  0.00    +0.000 OA
ENDBRANCH   9  14
ENDBRANCH   1  11
BRANCH   7  15
ATOM     15  N   UNL     1       4.253   7.583  17.760  0.00  0.00    +0.000 N 
ATOM     16  H   UNL     1       4.494   8.103  18.617  0.00  0.00    +0.000 HD
ATOM     17  H   UNL     1       3.431   7.898  17.230  0.00  0.00    +0.000 HD
ENDBRANCH   7  15
BRANCH   5  18
ATOM     18  C   UNL     1       3.072   2.682  17.112  0.00  0.00    +0.000 C 
BRANCH  18  19
ATOM     19  C   UNL     1       2.502   2.666  18.501  0.00  0.00    +0.000 A 
ATOM     20  C   UNL     1       3.346   2.442  19.601  0.00  0.00    +0.000 A 
ATOM     21  C   UNL     1       2.830   2.473  20.900  0.00  0.00    +0.000 A 
ATOM     22  C   UNL     1       1.470   2.723  21.107  0.00  0.00    +0.000 A 
ATOM     23  F   UNL     1       0.973   2.762  22.368  0.00  0.00    +0.000 F 
ATOM     24  C   UNL     1       0.624   2.939  20.015  0.00  0.00    +0.000 A 
ATOM     25  C   UNL     1       1.136   2.913  18.715  0.00  0.00    +0.000 A 
ENDBRANCH  18  19
ENDBRANCH   5  18
TORSDOF 5
ENDMDL
MODEL 6
REMARK VINA RESULT:      -7.1      4.342      8.775
REMARK  Name = 
REMARK  6 active torsions:
REMARK  status: ('A' for Active; 'I' for Inactive)
REMARK    1  A    between atoms: C_1  and  O_2
REMARK    2  A    between atoms: O_2  and  C_3
REMARK    3  A    between atoms: N_5  and  C_6
REMARK    4  A    between atoms: N_10  and  C_11
REMARK    5  A    between atoms: C_11  and  C_12
REMARK    6  A    between atoms: C_20  and  N_21
REMARK                            x       y       z     vdW  Elec       q    Type
REMARK                         _______ _______ _______ _____ _____    ______ ____
ROOT
ATOM      1  C   UNL     1       6.399   6.683  17.036  0.00  0.00    +0.000 A 
ATOM      2  C   UNL     1       7.153   5.520  16.769  0.00  0.00    +0.000 A 
ATOM      3  C   UNL     1       6.590   4.260  16.873  0.00  0.00    +0.000 A 
ATOM      4  C   UNL     1       5.252   4.130  17.222  0.00  0.00    +0.000 A 
ATOM      5  N   UNL     1       4.674   2.837  17.314  0.00  0.00    +0.000 N 
ATOM      6  N   UNL     1       4.520   5.246  17.483  0.00  0.00    +0.000 NA
ATOM      7  C   UNL     1       5.042   6.506  17.425  0.00  0.00    +0.000 A 
ATOM      8  H   UNL     1       5.290   2.009  17.344  0.00  0.00    +0.000 HD
ENDROOT
BRANCH   1  11
ATOM      9  C   UNL     1       7.931   8.453  17.868  0.00  0.00    +0.000 C 
ATOM     10  O   UNL     1       8.431   7.717  18.706  0.00  0.00    +0.000 OA
ATOM     11  N   UNL     1       7.003   7.986  16.980  0.00  0.00    +0.000 N 
ATOM     12  H   UNL     1       6.712   8.636  16.238  0.00  0.00    +0.000 HD
BRANCH   9  14
ATOM     13  C   UNL     1       9.164  10.315  18.743  0.00  0.00    +0.000 C 
ATOM     14  O   UNL     1       8.316   9.753  17.810  0.00  0.00    +0.000 OA
ENDBRANCH   9  14
ENDBRANCH   1  11
BRANCH   7  15
ATOM     15  N   UNL     1       4.187   7.593  17.749  0.00  0.00    +0.000 N 
ATOM     16  H   UNL     1       3.218   7.407  18.045  0.00  0.00    +0.000 HD
ATOM     17  H   UNL     1       4.488   8.574  17.697  0.00  0.00    +0.000 HD
ENDBRANCH   7  15
BRANCH   5  18
ATOM     18  C   UNL     1       3.245   2.623  17.253  0.00  0.00    +0.000 C 
BRANCH  18  19
ATOM     19  C   UNL     1       2.622   2.695  18.617  0.00  0.00    +0.000 A 
ATOM     20  C   UNL     1       1.243   2.934  18.745  0.00  0.00    +0.000 A 
ATOM     21  C   UNL     1       0.649   2.954  20.011  0.00  0.00    +0.000 A 
ATOM     22  C   UNL     1       1.427   2.739  21.152  0.00  0.00    +0.000 A 
ATOM     23  F   UNL     1       0.847   2.750  22.378  0.00  0.00    +0.000 F 
ATOM     24  C   UNL     1       2.800   2.509  21.031  0.00  0.00    +0.000 A 
ATOM     25  C   UNL     1       3.398   2.484  19.768  0.00  0.00    +0.000 A 
ENDBRANCH  18  19
ENDBRANCH   5  18
TORSDOF 5
ENDMDL
MODEL 7
REMARK VINA RESULT:      -6.9      1.784      2.454
REMARK  Name = 
REMARK  6 active torsions:
REMARK  status: ('A' for Active; 'I' for Inactive)
REMARK    1  A    between atoms: C_1  and  O_2
REMARK    2  A    between atoms: O_2  and  C_3
REMARK    3  A    between atoms: N_5  and  C_6
REMARK    4  A    between atoms: N_10  and  C_11
REMARK    5  A    between atoms: C_11  and  C_12
REMARK    6  A    between atoms: C_20  and  N_21
REMARK                            x       y       z     vdW  Elec       q    Type
REMARK                         _______ _______ _______ _____ _____    ______ ____
ROOT
ATOM      1  C   UNL     1       6.884   5.506  18.270  0.00  0.00    +0.000 A 
ATOM      2  C   UNL     1       6.428   6.357  17.240  0.00  0.00    +0.000 A 
ATOM      3  C   UNL     1       6.887   7.659  17.127  0.00  0.00    +0.000 A 
ATOM      4  C   UNL     1       7.833   8.135  18.026  0.00  0.00    +0.000 A 
ATOM      5  N   UNL     1       8.313   9.465  17.900  0.00  0.00    +0.000 N 
ATOM      6  N   UNL     1       8.275   7.321  19.022  0.00  0.00    +0.000 NA
ATOM      7  C   UNL     1       7.826   6.044  19.191  0.00  0.00    +0.000 A 
ATOM      8  H   UNL     1       7.804  10.130  17.297  0.00  0.00    +0.000 HD
ENDROOT
BRANCH   1  11
ATOM      9  C   UNL     1       5.218   3.855  19.090  0.00  0.00    +0.000 C 
ATOM     10  O   UNL     1       4.463   4.724  19.501  0.00  0.00    +0.000 OA
ATOM     11  N   UNL     1       6.363   4.175  18.414  0.00  0.00    +0.000 N 
ATOM     12  H   UNL     1       6.887   3.390  18.006  0.00  0.00    +0.000 HD
BRANCH   9  14
ATOM     13  C   UNL     1       3.665   2.031  18.989  0.00  0.00    +0.000 C 
ATOM     14  O   UNL     1       4.906   2.551  19.296  0.00  0.00    +0.000 OA
ENDBRANCH   9  14
ENDBRANCH   1  11
BRANCH   7  15
ATOM     15  N   UNL     1       8.338   5.300  20.287  0.00  0.00    +0.000 N 
ATOM     16  H   UNL     1       8.102   5.584  21.249  0.00  0.00    +0.000 HD
ATOM     17  H   UNL     1       8.949   4.481  20.170  0.00  0.00    +0.000 HD
ENDBRANCH   7  15
BRANCH   5  18
ATOM     18  C   UNL     1       9.558   9.897  18.495  0.00  0.00    +0.000 C 
BRANCH  18  19
ATOM     19  C   UNL     1       9.890  11.308  18.105  0.00  0.00    +0.000 A 
ATOM     20  C   UNL     1       8.880  12.284  18.083  0.00  0.00    +0.000 A 
ATOM     21  C   UNL     1       9.191  13.610  17.767  0.00  0.00    +0.000 A 
ATOM     22  C   UNL     1      10.509  13.967  17.468  0.00  0.00    +0.000 A 
ATOM     23  F   UNL     1      10.811  15.255  17.171  0.00  0.00    +0.000 F 
ATOM     24  C   UNL     1      11.517  12.998  17.480  0.00  0.00    +0.000 A 
ATOM     25  C   UNL     1      11.211  11.672  17.799  0.00  0.00    +0.000 A 
ENDBRANCH  18  19
ENDBRANCH   5  18
TORSDOF 5
ENDMDL
MODEL 8
REMARK VINA RESULT:      -6.9      5.785      7.335
REMARK  Name = 
REMARK  6 active torsions:
REMARK  status: ('A' for Active; 'I' for Inactive)
REMARK    1  A    between atoms: C_1  and  O_2
REMARK    2  A    between atoms: O_2  and  C_3
REMARK    3  A    between atoms: N_5  and  C_6
REMARK    4  A    between atoms: N_10  and  C_11
REMARK    5  A    between atoms: C_11  and  C_12
REMARK    6  A    between atoms: C_20  and  N_21
REMARK                            x       y       z     vdW  Elec       q    Type
REMARK                         _______ _______ _______ _____ _____    ______ ____
ROOT
ATOM      1  C   UNL     1       3.663   4.886  18.949  0.00  0.00    +0.000 A 
ATOM      2  C   UNL     1       3.391   6.072  18.233  0.00  0.00    +0.000 A 
ATOM      3  C   UNL     1       4.280   6.562  17.291  0.00  0.00    +0.000 A 
ATOM      4  C   UNL     1       5.451   5.865  17.022  0.00  0.00    +0.000 A 
ATOM      5  N   UNL     1       6.354   6.362  16.046  0.00  0.00    +0.000 N 
ATOM      6  N   UNL     1       5.720   4.723  17.708  0.00  0.00    +0.000 NA
ATOM      7  C   UNL     1       4.889   4.221  18.668  0.00  0.00    +0.000 A 
ATOM      8  H   UNL     1       6.251   7.333  15.711  0.00  0.00    +0.000 HD
ENDROOT
BRANCH   1  11
ATOM      9  C   UNL     1       1.905   3.359  19.814  0.00  0.00    +0.000 C 
ATOM     10  O   UNL     1       1.955   2.638  18.828  0.00  0.00    +0.000 OA
ATOM     11  N   UNL     1       2.763   4.412  19.964  0.00  0.00    +0.000 N 
ATOM     12  H   UNL     1       2.731   4.903  20.867  0.00  0.00    +0.000 HD
BRANCH   9  14
ATOM     13  C   UNL     1       1.336   2.538  21.994  0.00  0.00    +0.000 C 
ATOM     14  O   UNL     1       0.990   3.099  20.782  0.00  0.00    +0.000 OA
ENDBRANCH   9  14
ENDBRANCH   1  11
BRANCH   7  15
ATOM     15  N   UNL     1       5.292   3.037  19.341  0.00  0.00    +0.000 N 
ATOM     16  H   UNL     1       4.604   2.287  19.506  0.00  0.00    +0.000 HD
ATOM     17  H   UNL     1       6.249   2.887  19.684  0.00  0.00    +0.000 HD
ENDBRANCH   7  15
BRANCH   5  18
ATOM     18  C   UNL     1       7.346   5.522  15.413  0.00  0.00    +0.000 C 
BRANCH  18  19
ATOM     19  C   UNL     1       6.768   4.778  14.244  0.00  0.00    +0.000 A 
ATOM     20  C   UNL     1       7.511   4.651  13.058  0.00  0.00    +0.000 A 
ATOM     21  C   UNL     1       6.998   3.919  11.983  0.00  0.00    +0.000 A 
ATOM     22  C   UNL     1       5.742   3.313  12.085  0.00  0.00    +0.000 A 
ATOM     23  F   UNL     1       5.251   2.596  11.045  0.00  0.00    +0.000 F 
ATOM     24  C   UNL     1       4.995   3.443  13.259  0.00  0.00    +0.000 A 
ATOM     25  C   UNL     1       5.506   4.171  14.338  0.00  0.00    +0.000 A 
ENDBRANCH  18  19
ENDBRANCH   5  18
TORSDOF 5
ENDMDL
MODEL 9
REMARK VINA RESULT:      -6.9      1.825      2.429
REMARK  Name = 
REMARK  6 active torsions:
REMARK  status: ('A' for Active; 'I' for Inactive)
REMARK    1  A    between atoms: C_1  and  O_2
REMARK    2  A    between atoms: O_2  and  C_3
REMARK    3  A    between atoms: N_5  and  C_6
REMARK    4  A    between atoms: N_10  and  C_11
REMARK    5  A    between atoms: C_11  and  C_12
REMARK    6  A    between atoms: C_20  and  N_21
REMARK                            x       y       z     vdW  Elec       q    Type
REMARK                         _______ _______ _______ _____ _____    ______ ____
ROOT
ATOM      1  C   UNL     1       6.918   5.557  18.221  0.00  0.00    +0.000 A 
ATOM      2  C   UNL     1       6.486   6.425  17.195  0.00  0.00    +0.000 A 
ATOM      3  C   UNL     1       6.955   7.725  17.110  0.00  0.00    +0.000 A 
ATOM      4  C   UNL     1       7.888   8.182  18.031  0.00  0.00    +0.000 A 
ATOM      5  N   UNL     1       8.379   9.510  17.932  0.00  0.00    +0.000 N 
ATOM      6  N   UNL     1       8.308   7.352  19.023  0.00  0.00    +0.000 NA
ATOM      7  C   UNL     1       7.847   6.075  19.166  0.00  0.00    +0.000 A 
ATOM      8  H   UNL     1       7.884  10.187  17.330  0.00  0.00    +0.000 HD
ENDROOT
BRANCH   1  11
ATOM      9  C   UNL     1       5.223   3.907  18.980  0.00  0.00    +0.000 C 
ATOM     10  O   UNL     1       4.462   4.776  19.381  0.00  0.00    +0.000 OA
ATOM     11  N   UNL     1       6.386   4.227  18.337  0.00  0.00    +0.000 N 
ATOM     12  H   UNL     1       6.916   3.444  17.935  0.00  0.00    +0.000 HD
BRANCH   9  14
ATOM     13  C   UNL     1       4.418   2.122  20.366  0.00  0.00    +0.000 C 
ATOM     14  O   UNL     1       4.898   2.602  19.163  0.00  0.00    +0.000 OA
ENDBRANCH   9  14
ENDBRANCH   1  11
BRANCH   7  15
ATOM     15  N   UNL     1       8.336   5.312  20.260  0.00  0.00    +0.000 N 
ATOM     16  H   UNL     1       9.167   4.717  20.134  0.00  0.00    +0.000 HD
ATOM     17  H   UNL     1       7.892   5.317  21.187  0.00  0.00    +0.000 HD
ENDBRANCH   7  15
BRANCH   5  18
ATOM     18  C   UNL     1       9.616   9.926  18.555  0.00  0.00    +0.000 C 
BRANCH  18  19
ATOM     19  C   UNL     1       9.967  11.338  18.185  0.00  0.00    +0.000 A 
ATOM     20  C   UNL     1      11.301  11.677  17.904  0.00  0.00    +0.000 A 
ATOM     21  C   UNL     1      11.627  12.980  17.513  0.00  0.00    +0.000 A 
ATOM     22  C   UNL     1      10.625  13.949  17.405  0.00  0.00    +0.000 A 
ATOM     23  F   UNL     1      10.942  15.209  17.016  0.00  0.00    +0.000 F 
ATOM     24  C   UNL     1       9.298  13.619  17.692  0.00  0.00    +0.000 A 
ATOM     25  C   UNL     1       8.967  12.318  18.079  0.00  0.00    +0.000 A 
ENDBRANCH  18  19
ENDBRANCH   5  18
TORSDOF 5
ENDMDL
