MODEL 1
REMARK VINA RESULT:      -7.2      0.000      0.000
REMARK  Name = 
REMARK  9 active torsions:
REMARK  status: ('A' for Active; 'I' for Inactive)
REMARK    1  A    between atoms: C_1  and  N_2
REMARK    2  A    between atoms: N_2  and  C_3
REMARK    3  A    between atoms: N_2  and  C_4
REMARK    4  A    between atoms: C_7  and  C_8
REMARK    5  A    between atoms: N_10  and  C_11
REMARK    6  A    between atoms: C_14  and  O_15
REMARK    7  A    between atoms: O_15  and  C_16
REMARK    8  A    between atoms: C_16  and  C_17
REMARK    9  A    between atoms: C_17  and  C_18
REMARK                            x       y       z     vdW  Elec       q    Type
REMARK                         _______ _______ _______ _____ _____    ______ ____
ROOT
ATOM      1  C   UNL     1       1.864   7.403  20.049  0.00  0.00    +0.000 A 
ATOM      2  C   UNL     1       2.595   7.324  18.893  0.00  0.00    +0.000 A 
ATOM      3  N   UNL     1       3.004   6.014  18.817  0.00  0.00    +0.000 N 
ATOM      4  N   UNL     1       2.516   5.326  19.878  0.00  0.00    +0.000 NA
ATOM      5  N   UNL     1       1.817   6.166  20.634  0.00  0.00    +0.000 NA
ENDROOT
BRANCH   1   9
ATOM      6  C   UNL     1      -0.182  10.866  21.595  0.00  0.00    +0.000 A 
ATOM      7  C   UNL     1       0.329   9.857  22.425  0.00  0.00    +0.000 A 
ATOM      8  C   UNL     1       0.998   8.735  21.921  0.00  0.00    +0.000 A 
ATOM      9  C   UNL     1       1.193   8.584  20.549  0.00  0.00    +0.000 A 
ATOM     10  C   UNL     1       0.717   9.584  19.699  0.00  0.00    +0.000 A 
ATOM     11  C   UNL     1       0.046  10.703  20.216  0.00  0.00    +0.000 A 
BRANCH   6  13
ATOM     12  C   UNL     1      -1.937  11.802  23.060  0.00  0.00    +0.000 C 
ATOM     13  N   UNL     1      -0.854  11.979  22.101  0.00  0.00    +0.000 N 
ATOM     14  C   UNL     1      -0.803  13.246  21.378  0.00  0.00    +0.000 C 
ENDBRANCH   6  13
ENDBRANCH   1   9
BRANCH   3  15
ATOM     15  C   UNL     1       3.811   5.417  17.820  0.00  0.00    +0.000 A 
ATOM     16  C   UNL     1       4.708   6.209  17.102  0.00  0.00    +0.000 A 
ATOM     17  C   UNL     1       5.520   5.640  16.127  0.00  0.00    +0.000 A 
ATOM     18  C   UNL     1       5.455   4.275  15.845  0.00  0.00    +0.000 A 
ATOM     19  C   UNL     1       4.552   3.480  16.556  0.00  0.00    +0.000 A 
ATOM     20  C   UNL     1       3.731   4.045  17.545  0.00  0.00    +0.000 A 
BRANCH  18  21
ATOM     21  O   UNL     1       6.231   3.642  14.901  0.00  0.00    +0.000 OA
BRANCH  21  22
ATOM     22  C   UNL     1       6.534   4.454  13.762  0.00  0.00    +0.000 C 
BRANCH  22  23
ATOM     23  C   UNL     1       6.524   3.639  12.480  0.00  0.00    +0.000 C 
BRANCH  23  24
ATOM     24  C   UNL     1       5.091   3.263  12.144  0.00  0.00    +0.000 C 
ATOM     25  F   UNL     1       5.090   2.102  11.434  0.00  0.00    +0.000 F 
ENDBRANCH  23  24
ENDBRANCH  22  23
ENDBRANCH  21  22
ENDBRANCH  18  21
ENDBRANCH   3  15
TORSDOF 7
ENDMDL
MODEL 2
REMARK VINA RESULT:      -7.0      0.945      1.673
REMARK  Name = 
REMARK  9 active torsions:
REMARK  status: ('A' for Active; 'I' for Inactive)
REMARK    1  A    between atoms: C_1  and  N_2
REMARK    2  A    between atoms: N_2  and  C_3
REMARK    3  A    between atoms: N_2  and  C_4
REMARK    4  A    between atoms: C_7  and  C_8
REMARK    5  A    between atoms: N_10  and  C_11
REMARK    6  A    between atoms: C_14  and  O_15
REMARK    7  A    between atoms: O_15  and  C_16
REMARK    8  A    between atoms: C_16  and  C_17
REMARK    9  A    between atoms: C_17  and  C_18
REMARK                            x       y       z     vdW  Elec       q    Type
REMARK                         _______ _______ _______ _____ _____    ______ ____
ROOT
ATOM      1  C   UNL     1       1.422   7.721  20.568  0.00  0.00    +0.000 A 
ATOM      2  C   UNL     1       2.132   7.674  19.397  0.00  0.00    +0.000 A 
ATOM      3  N   UNL     1       2.541   6.366  19.279  0.00  0.00    +0.000 N 
ATOM      4  N   UNL     1       2.074   5.650  20.331  0.00  0.00    +0.000 NA
ATOM      5  N   UNL     1       1.387   6.469  21.120  0.00  0.00    +0.000 NA
ENDROOT
BRANCH   1   9
ATOM      6  C   UNL     1      -0.476  11.245  22.162  0.00  0.00    +0.000 A 
ATOM      7  C   UNL     1       0.209  11.245  20.938  0.00  0.00    +0.000 A 
ATOM      8  C   UNL     1       0.821  10.096  20.419  0.00  0.00    +0.000 A 
ATOM      9  C   UNL     1       0.759   8.887  21.111  0.00  0.00    +0.000 A 
ATOM     10  C   UNL     1       0.063   8.852  22.320  0.00  0.00    +0.000 A 
ATOM     11  C   UNL     1      -0.544  10.009  22.830  0.00  0.00    +0.000 A 
BRANCH   6  13
ATOM     12  C   UNL     1      -2.451  12.338  23.166  0.00  0.00    +0.000 C 
ATOM     13  N   UNL     1      -1.078  12.392  22.679  0.00  0.00    +0.000 N 
ATOM     14  C   UNL     1      -0.541  13.706  22.342  0.00  0.00    +0.000 C 
ENDBRANCH   6  13
ENDBRANCH   1   9
BRANCH   3  15
ATOM     15  C   UNL     1       3.330   5.797  18.251  0.00  0.00    +0.000 A 
ATOM     16  C   UNL     1       3.250   4.425  18.008  0.00  0.00    +0.000 A 
ATOM     17  C   UNL     1       4.006   3.849  16.993  0.00  0.00    +0.000 A 
ATOM     18  C   UNL     1       4.857   4.622  16.203  0.00  0.00    +0.000 A 
ATOM     19  C   UNL     1       4.946   5.995  16.448  0.00  0.00    +0.000 A 
ATOM     20  C   UNL     1       4.183   6.587  17.469  0.00  0.00    +0.000 A 
BRANCH  18  21
ATOM     21  O   UNL     1       5.628   4.123  15.179  0.00  0.00    +0.000 OA
BRANCH  21  22
ATOM     22  C   UNL     1       6.827   4.868  14.940  0.00  0.00    +0.000 C 
BRANCH  22  23
ATOM     23  C   UNL     1       7.232   4.817  13.477  0.00  0.00    +0.000 C 
BRANCH  23  24
ATOM     24  C   UNL     1       6.442   3.721  12.783  0.00  0.00    +0.000 C 
ATOM     25  F   UNL     1       7.123   3.311  11.680  0.00  0.00    +0.000 F 
ENDBRANCH  23  24
ENDBRANCH  22  23
ENDBRANCH  21  22
ENDBRANCH  18  21
ENDBRANCH   3  15
TORSDOF 7
ENDMDL
MODEL 3
REMARK VINA RESULT:      -7.0      0.724      1.639
REMARK  Name = 
REMARK  9 active torsions:
REMARK  status: ('A' for Active; 'I' for Inactive)
REMARK    1  A    between atoms: C_1  and  N_2
REMARK    2  A    between atoms: N_2  and  C_3
REMARK    3  A    between atoms: N_2  and  C_4
REMARK    4  A    between atoms: C_7  and  C_8
REMARK    5  A    between atoms: N_10  and  C_11
REMARK    6  A    between atoms: C_14  and  O_15
REMARK    7  A    between atoms: O_15  and  C_16
REMARK    8  A    between atoms: C_16  and  C_17
REMARK    9  A    between atoms: C_17  and  C_18
REMARK                            x       y       z     vdW  Elec       q    Type
REMARK                         _______ _______ _______ _____ _____    ______ ____
ROOT
ATOM      1  C   UNL     1       1.649   7.880  20.123  0.00  0.00    +0.000 A 
ATOM      2  C   UNL     1       2.352   7.826  18.948  0.00  0.00    +0.000 A 
ATOM      3  N   UNL     1       2.854   6.547  18.889  0.00  0.00    +0.000 N 
ATOM      4  N   UNL     1       2.449   5.853  19.980  0.00  0.00    +0.000 NA
ATOM      5  N   UNL     1       1.710   6.658  20.736  0.00  0.00    +0.000 NA
ENDROOT
BRANCH   1   9
ATOM      6  C   UNL     1      -0.504  11.332  21.539  0.00  0.00    +0.000 A 
ATOM      7  C   UNL     1      -0.145  11.166  20.194  0.00  0.00    +0.000 A 
ATOM      8  C   UNL     1       0.550  10.040  19.734  0.00  0.00    +0.000 A 
ATOM      9  C   UNL     1       0.907   9.021  20.616  0.00  0.00    +0.000 A 
ATOM     10  C   UNL     1       0.543   9.148  21.957  0.00  0.00    +0.000 A 
ATOM     11  C   UNL     1      -0.152  10.281  22.405  0.00  0.00    +0.000 A 
BRANCH   6  13
ATOM     12  C   UNL     1      -0.450  13.614  22.487  0.00  0.00    +0.000 C 
ATOM     13  N   UNL     1      -1.190  12.459  21.994  0.00  0.00    +0.000 N 
ATOM     14  C   UNL     1      -2.588  12.341  22.396  0.00  0.00    +0.000 C 
ENDBRANCH   6  13
ENDBRANCH   1   9
BRANCH   3  15
ATOM     15  C   UNL     1       3.674   5.987  17.882  0.00  0.00    +0.000 A 
ATOM     16  C   UNL     1       3.653   4.608  17.671  0.00  0.00    +0.000 A 
ATOM     17  C   UNL     1       4.440   4.038  16.677  0.00  0.00    +0.000 A 
ATOM     18  C   UNL     1       5.266   4.827  15.875  0.00  0.00    +0.000 A 
ATOM     19  C   UNL     1       5.297   6.208  16.087  0.00  0.00    +0.000 A 
ATOM     20  C   UNL     1       4.502   6.792  17.087  0.00  0.00    +0.000 A 
BRANCH  18  21
ATOM     21  O   UNL     1       6.066   4.336  14.869  0.00  0.00    +0.000 OA
BRANCH  21  22
ATOM     22  C   UNL     1       5.354   4.004  13.673  0.00  0.00    +0.000 C 
BRANCH  22  23
ATOM     23  C   UNL     1       6.297   3.552  12.571  0.00  0.00    +0.000 C 
BRANCH  23  24
ATOM     24  C   UNL     1       5.569   2.571  11.668  0.00  0.00    +0.000 C 
ATOM     25  F   UNL     1       4.369   3.101  11.310  0.00  0.00    +0.000 F 
ENDBRANCH  23  24
ENDBRANCH  22  23
ENDBRANCH  21  22
ENDBRANCH  18  21
ENDBRANCH   3  15
TORSDOF 7
ENDMDL
MODEL 4
REMARK VINA RESULT:      -7.0      5.638      7.654
REMARK  Name = 
REMARK  9 active torsions:
REMARK  status: ('A' for Active; 'I' for Inactive)
REMARK    1  A    between atoms: C_1  and  N_2
REMARK    2  A    between atoms: N_2  and  C_3
REMARK    3  A    between atoms: N_2  and  C_4
REMARK    4  A    between atoms: C_7  and  C_8
REMARK    5  A    between atoms: N_10  and  C_11
REMARK    6  A    between atoms: C_14  and  O_15
REMARK    7  A    between atoms: O_15  and  C_16
REMARK    8  A    between atoms: C_16  and  C_17
REMARK    9  A    between atoms: C_17  and  C_18
REMARK                            x       y       z     vdW  Elec       q    Type
REMARK                         _______ _______ _______ _____ _____    ______ ____
ROOT
ATOM      1  C   UNL     1       7.599   8.145  17.586  0.00  0.00    +0.000 A 
ATOM      2  C   UNL     1       6.398   7.641  18.013  0.00  0.00    +0.000 A 
ATOM      3  N   UNL     1       6.229   6.473  17.307  0.00  0.00    +0.000 N 
ATOM      4  N   UNL     1       7.301   6.273  16.502  0.00  0.00    +0.000 NA
ATOM      5  N   UNL     1       8.143   7.287  16.668  0.00  0.00    +0.000 NA
ENDROOT
BRANCH   1   9
ATOM      6  C   UNL     1       9.493  11.775  18.927  0.00  0.00    +0.000 A 
ATOM      7  C   UNL     1       8.623  11.739  17.827  0.00  0.00    +0.000 A 
ATOM      8  C   UNL     1       8.004  10.559  17.396  0.00  0.00    +0.000 A 
ATOM      9  C   UNL     1       8.228   9.357  18.066  0.00  0.00    +0.000 A 
ATOM     10  C   UNL     1       9.071   9.367  19.178  0.00  0.00    +0.000 A 
ATOM     11  C   UNL     1       9.686  10.555  19.599  0.00  0.00    +0.000 A 
BRANCH   6  13
ATOM     12  C   UNL     1      11.534  12.950  19.677  0.00  0.00    +0.000 C 
ATOM     13  N   UNL     1      10.113  12.951  19.349  0.00  0.00    +0.000 N 
ATOM     14  C   UNL     1       9.307  14.043  19.884  0.00  0.00    +0.000 C 
ENDBRANCH   6  13
ENDBRANCH   1   9
BRANCH   3  15
ATOM     15  C   UNL     1       5.133   5.581  17.363  0.00  0.00    +0.000 A 
ATOM     16  C   UNL     1       3.891   6.050  17.797  0.00  0.00    +0.000 A 
ATOM     17  C   UNL     1       2.797   5.194  17.846  0.00  0.00    +0.000 A 
ATOM     18  C   UNL     1       2.915   3.855  17.468  0.00  0.00    +0.000 A 
ATOM     19  C   UNL     1       4.157   3.380  17.041  0.00  0.00    +0.000 A 
ATOM     20  C   UNL     1       5.267   4.239  16.984  0.00  0.00    +0.000 A 
BRANCH  18  21
ATOM     21  O   UNL     1       1.876   2.953  17.484  0.00  0.00    +0.000 OA
BRANCH  21  22
ATOM     22  C   UNL     1       0.993   3.105  18.600  0.00  0.00    +0.000 C 
BRANCH  22  23
ATOM     23  C   UNL     1       1.538   2.414  19.838  0.00  0.00    +0.000 C 
BRANCH  23  24
ATOM     24  C   UNL     1       1.532   3.397  20.996  0.00  0.00    +0.000 C 
ATOM     25  F   UNL     1       0.773   4.475  20.662  0.00  0.00    +0.000 F 
ENDBRANCH  23  24
ENDBRANCH  22  23
ENDBRANCH  21  22
ENDBRANCH  18  21
ENDBRANCH   3  15
TORSDOF 7
ENDMDL
MODEL 5
REMARK VINA RESULT:      -7.0      1.058      1.214
REMARK  Name = 
REMARK  9 active torsions:
REMARK  status: ('A' for Active; 'I' for Inactive)
REMARK    1  A    between atoms: C_1  and  N_2
REMARK    2  A    between atoms: N_2  and  C_3
REMARK    3  A    between atoms: N_2  and  C_4
REMARK    4  A    between atoms: C_7  and  C_8
REMARK    5  A    between atoms: N_10  and  C_11
REMARK    6  A    between atoms: C_14  and  O_15
REMARK    7  A    between atoms: O_15  and  C_16
REMARK    8  A    between atoms: C_16  and  C_17
REMARK    9  A    between atoms: C_17  and  C_18
REMARK                            x       y       z     vdW  Elec       q    Type
REMARK                         _______ _______ _______ _____ _____    ______ ____
ROOT
ATOM      1  C   UNL     1       1.859   8.150  19.288  0.00  0.00    +0.000 A 
ATOM      2  C   UNL     1       2.445   7.830  18.091  0.00  0.00    +0.000 A 
ATOM      3  N   UNL     1       3.112   6.650  18.322  0.00  0.00    +0.000 N 
ATOM      4  N   UNL     1       2.914   6.265  19.607  0.00  0.00    +0.000 NA
ATOM      5  N   UNL     1       2.148   7.173  20.202  0.00  0.00    +0.000 NA
ENDROOT
BRANCH   1   9
ATOM      6  C   UNL     1      -0.706  11.519  20.083  0.00  0.00    +0.000 A 
ATOM      7  C   UNL     1      -0.366  10.580  21.068  0.00  0.00    +0.000 A 
ATOM      8  C   UNL     1       0.473   9.488  20.809  0.00  0.00    +0.000 A 
ATOM      9  C   UNL     1       1.017   9.300  19.539  0.00  0.00    +0.000 A 
ATOM     10  C   UNL     1       0.716  10.232  18.545  0.00  0.00    +0.000 A 
ATOM     11  C   UNL     1      -0.126  11.320  18.817  0.00  0.00    +0.000 A 
BRANCH   6  13
ATOM     12  C   UNL     1      -2.960  12.526  19.997  0.00  0.00    +0.000 C 
ATOM     13  N   UNL     1      -1.546  12.601  20.344  0.00  0.00    +0.000 N 
ATOM     14  C   UNL     1      -0.977  13.931  20.537  0.00  0.00    +0.000 C 
ENDBRANCH   6  13
ENDBRANCH   1   9
BRANCH   3  15
ATOM     15  C   UNL     1       3.900   5.911  17.410  0.00  0.00    +0.000 A 
ATOM     16  C   UNL     1       4.702   6.590  16.492  0.00  0.00    +0.000 A 
ATOM     17  C   UNL     1       5.496   5.882  15.596  0.00  0.00    +0.000 A 
ATOM     18  C   UNL     1       5.506   4.486  15.592  0.00  0.00    +0.000 A 
ATOM     19  C   UNL     1       4.698   3.802  16.505  0.00  0.00    +0.000 A 
ATOM     20  C   UNL     1       3.896   4.509  17.416  0.00  0.00    +0.000 A 
BRANCH  18  21
ATOM     21  O   UNL     1       6.269   3.720  14.742  0.00  0.00    +0.000 OA
BRANCH  21  22
ATOM     22  C   UNL     1       6.807   4.448  13.633  0.00  0.00    +0.000 C 
BRANCH  22  23
ATOM     23  C   UNL     1       6.709   3.650  12.344  0.00  0.00    +0.000 C 
BRANCH  23  24
ATOM     24  C   UNL     1       5.267   3.219  12.137  0.00  0.00    +0.000 C 
ATOM     25  F   UNL     1       5.243   2.101  11.364  0.00  0.00    +0.000 F 
ENDBRANCH  23  24
ENDBRANCH  22  23
ENDBRANCH  21  22
ENDBRANCH  18  21
ENDBRANCH   3  15
TORSDOF 7
ENDMDL
MODEL 6
REMARK VINA RESULT:      -7.0      0.937      1.354
REMARK  Name = 
REMARK  9 active torsions:
REMARK  status: ('A' for Active; 'I' for Inactive)
REMARK    1  A    between atoms: C_1  and  N_2
REMARK    2  A    between atoms: N_2  and  C_3
REMARK    3  A    between atoms: N_2  and  C_4
REMARK    4  A    between atoms: C_7  and  C_8
REMARK    5  A    between atoms: N_10  and  C_11
REMARK    6  A    between atoms: C_14  and  O_15
REMARK    7  A    between atoms: O_15  and  C_16
REMARK    8  A    between atoms: C_16  and  C_17
REMARK    9  A    between atoms: C_17  and  C_18
REMARK                            x       y       z     vdW  Elec       q    Type
REMARK                         _______ _______ _______ _____ _____    ______ ____
ROOT
ATOM      1  C   UNL     1       1.827   7.613  20.094  0.00  0.00    +0.000 A 
ATOM      2  C   UNL     1       2.714   7.681  19.051  0.00  0.00    +0.000 A 
ATOM      3  N   UNL     1       3.294   6.435  18.993  0.00  0.00    +0.000 N 
ATOM      4  N   UNL     1       2.758   5.643  19.952  0.00  0.00    +0.000 NA
ATOM      5  N   UNL     1       1.859   6.352  20.626  0.00  0.00    +0.000 NA
ENDROOT
BRANCH   1   9
ATOM      6  C   UNL     1      -0.733  10.843  21.349  0.00  0.00    +0.000 A 
ATOM      7  C   UNL     1      -0.228  10.744  20.044  0.00  0.00    +0.000 A 
ATOM      8  C   UNL     1       0.600   9.689  19.636  0.00  0.00    +0.000 A 
ATOM      9  C   UNL     1       0.948   8.677  20.530  0.00  0.00    +0.000 A 
ATOM     10  C   UNL     1       0.441   8.737  21.829  0.00  0.00    +0.000 A 
ATOM     11  C   UNL     1      -0.386   9.799  22.225  0.00  0.00    +0.000 A 
BRANCH   6  13
ATOM     12  C   UNL     1      -1.920  12.038  23.156  0.00  0.00    +0.000 C 
ATOM     13  N   UNL     1      -1.552  11.898  21.753  0.00  0.00    +0.000 N 
ATOM     14  C   UNL     1      -2.387  12.583  20.772  0.00  0.00    +0.000 C 
ENDBRANCH   6  13
ENDBRANCH   1   9
BRANCH   3  15
ATOM     15  C   UNL     1       4.299   5.992  18.102  0.00  0.00    +0.000 A 
ATOM     16  C   UNL     1       4.500   6.676  16.902  0.00  0.00    +0.000 A 
ATOM     17  C   UNL     1       5.492   6.265  16.018  0.00  0.00    +0.000 A 
ATOM     18  C   UNL     1       6.301   5.165  16.308  0.00  0.00    +0.000 A 
ATOM     19  C   UNL     1       6.098   4.473  17.504  0.00  0.00    +0.000 A 
ATOM     20  C   UNL     1       5.101   4.883  18.404  0.00  0.00    +0.000 A 
BRANCH  18  21
ATOM     21  O   UNL     1       7.305   4.706  15.487  0.00  0.00    +0.000 OA
BRANCH  21  22
ATOM     22  C   UNL     1       7.009   4.822  14.091  0.00  0.00    +0.000 C 
BRANCH  22  23
ATOM     23  C   UNL     1       6.000   3.776  13.648  0.00  0.00    +0.000 C 
BRANCH  23  24
ATOM     24  C   UNL     1       6.304   3.372  12.216  0.00  0.00    +0.000 C 
ATOM     25  F   UNL     1       5.290   2.594  11.748  0.00  0.00    +0.000 F 
ENDBRANCH  23  24
ENDBRANCH  22  23
ENDBRANCH  21  22
ENDBRANCH  18  21
ENDBRANCH   3  15
TORSDOF 7
ENDMDL
MODEL 7
REMARK VINA RESULT:      -7.0      0.747      1.382
REMARK  Name = 
REMARK  9 active torsions:
REMARK  status: ('A' for Active; 'I' for Inactive)
REMARK    1  A    between atoms: C_1  and  N_2
REMARK    2  A    between atoms: N_2  and  C_3
REMARK    3  A    between atoms: N_2  and  C_4
REMARK    4  A    between atoms: C_7  and  C_8
REMARK    5  A    between atoms: N_10  and  C_11
REMARK    6  A    between atoms: C_14  and  O_15
REMARK    7  A    between atoms: O_15  and  C_16
REMARK    8  A    between atoms: C_16  and  C_17
REMARK    9  A    between atoms: C_17  and  C_18
REMARK                            x       y       z     vdW  Elec       q    Type
REMARK                         _______ _______ _______ _____ _____    ______ ____
ROOT
ATOM      1  C   UNL     1       2.038   7.598  19.591  0.00  0.00    +0.000 A 
ATOM      2  C   UNL     1       2.715   7.464  18.408  0.00  0.00    +0.000 A 
ATOM      3  N   UNL     1       3.227   6.188  18.431  0.00  0.00    +0.000 N 
ATOM      4  N   UNL     1       2.851   5.572  19.578  0.00  0.00    +0.000 NA
ATOM      5  N   UNL     1       2.123   6.425  20.291  0.00  0.00    +0.000 NA
ENDROOT
BRANCH   1   9
ATOM      6  C   UNL     1      -0.221  11.022  20.910  0.00  0.00    +0.000 A 
ATOM      7  C   UNL     1       0.238  10.035  21.794  0.00  0.00    +0.000 A 
ATOM      8  C   UNL     1       0.977   8.925  21.364  0.00  0.00    +0.000 A 
ATOM      9  C   UNL     1       1.297   8.767  20.016  0.00  0.00    +0.000 A 
ATOM     10  C   UNL     1       0.873   9.747  19.116  0.00  0.00    +0.000 A 
ATOM     11  C   UNL     1       0.133  10.852  19.559  0.00  0.00    +0.000 A 
BRANCH   6  13
ATOM     12  C   UNL     1      -1.100  13.291  20.480  0.00  0.00    +0.000 C 
ATOM     13  N   UNL     1      -0.962  12.123  21.341  0.00  0.00    +0.000 N 
ATOM     14  C   UNL     1      -1.220  12.310  22.765  0.00  0.00    +0.000 C 
ENDBRANCH   6  13
ENDBRANCH   1   9
BRANCH   3  15
ATOM     15  C   UNL     1       4.030   5.562  17.449  0.00  0.00    +0.000 A 
ATOM     16  C   UNL     1       4.017   4.170  17.341  0.00  0.00    +0.000 A 
ATOM     17  C   UNL     1       4.788   3.535  16.374  0.00  0.00    +0.000 A 
ATOM     18  C   UNL     1       5.588   4.270  15.497  0.00  0.00    +0.000 A 
ATOM     19  C   UNL     1       5.610   5.662  15.607  0.00  0.00    +0.000 A 
ATOM     20  C   UNL     1       4.832   6.312  16.579  0.00  0.00    +0.000 A 
BRANCH  18  21
ATOM     21  O   UNL     1       6.370   3.712  14.512  0.00  0.00    +0.000 OA
BRANCH  21  22
ATOM     22  C   UNL     1       6.159   4.278  13.215  0.00  0.00    +0.000 C 
BRANCH  22  23
ATOM     23  C   UNL     1       5.884   3.204  12.177  0.00  0.00    +0.000 C 
BRANCH  23  24
ATOM     24  C   UNL     1       4.399   3.195  11.856  0.00  0.00    +0.000 C 
ATOM     25  F   UNL     1       4.177   3.962  10.754  0.00  0.00    +0.000 F 
ENDBRANCH  23  24
ENDBRANCH  22  23
ENDBRANCH  21  22
ENDBRANCH  18  21
ENDBRANCH   3  15
TORSDOF 7
ENDMDL
MODEL 8
REMARK VINA RESULT:      -6.9      0.575      1.324
REMARK  Name = 
REMARK  9 active torsions:
REMARK  status: ('A' for Active; 'I' for Inactive)
REMARK    1  A    between atoms: C_1  and  N_2
REMARK    2  A    between atoms: N_2  and  C_3
REMARK    3  A    between atoms: N_2  and  C_4
REMARK    4  A    between atoms: C_7  and  C_8
REMARK    5  A    between atoms: N_10  and  C_11
REMARK    6  A    between atoms: C_14  and  O_15
REMARK    7  A    between atoms: O_15  and  C_16
REMARK    8  A    between atoms: C_16  and  C_17
REMARK    9  A    between atoms: C_17  and  C_18
REMARK                            x       y       z     vdW  Elec       q    Type
REMARK                         _______ _______ _______ _____ _____    ______ ____
ROOT
ATOM      1  C   UNL     1       1.739   7.584  20.143  0.00  0.00    +0.000 A 
ATOM      2  C   UNL     1       2.532   7.491  19.029  0.00  0.00    +0.000 A 
ATOM      3  N   UNL     1       2.980   6.191  19.017  0.00  0.00    +0.000 N 
ATOM      4  N   UNL     1       2.455   5.523  20.073  0.00  0.00    +0.000 NA
ATOM      5  N   UNL     1       1.694   6.365  20.763  0.00  0.00    +0.000 NA
ENDROOT
BRANCH   1   9
ATOM      6  C   UNL     1      -0.367  11.140  21.361  0.00  0.00    +0.000 A 
ATOM      7  C   UNL     1       0.050  10.926  20.040  0.00  0.00    +0.000 A 
ATOM      8  C   UNL     1       0.730   9.766  19.644  0.00  0.00    +0.000 A 
ATOM      9  C   UNL     1       1.011   8.761  20.569  0.00  0.00    +0.000 A 
ATOM     10  C   UNL     1       0.587   8.936  21.887  0.00  0.00    +0.000 A 
ATOM     11  C   UNL     1      -0.092  10.102  22.270  0.00  0.00    +0.000 A 
BRANCH   6  13
ATOM     12  C   UNL     1      -0.968  13.497  20.924  0.00  0.00    +0.000 C 
ATOM     13  N   UNL     1      -1.038  12.299  21.752  0.00  0.00    +0.000 N 
ATOM     14  C   UNL     1      -1.427  12.475  23.148  0.00  0.00    +0.000 C 
ENDBRANCH   6  13
ENDBRANCH   1   9
BRANCH   3  15
ATOM     15  C   UNL     1       3.853   5.587  18.082  0.00  0.00    +0.000 A 
ATOM     16  C   UNL     1       4.915   6.328  17.561  0.00  0.00    +0.000 A 
ATOM     17  C   UNL     1       5.794   5.749  16.652  0.00  0.00    +0.000 A 
ATOM     18  C   UNL     1       5.634   4.425  16.241  0.00  0.00    +0.000 A 
ATOM     19  C   UNL     1       4.567   3.682  16.755  0.00  0.00    +0.000 A 
ATOM     20  C   UNL     1       3.677   4.258  17.676  0.00  0.00    +0.000 A 
BRANCH  18  21
ATOM     21  O   UNL     1       6.466   3.785  15.353  0.00  0.00    +0.000 OA
BRANCH  21  22
ATOM     22  C   UNL     1       6.555   4.427  14.077  0.00  0.00    +0.000 C 
BRANCH  22  23
ATOM     23  C   UNL     1       5.783   3.663  13.015  0.00  0.00    +0.000 C 
BRANCH  23  24
ATOM     24  C   UNL     1       6.689   3.427  11.819  0.00  0.00    +0.000 C 
ATOM     25  F   UNL     1       6.660   2.106  11.492  0.00  0.00    +0.000 F 
ENDBRANCH  23  24
ENDBRANCH  22  23
ENDBRANCH  21  22
ENDBRANCH  18  21
ENDBRANCH   3  15
TORSDOF 7
ENDMDL
MODEL 9
REMARK VINA RESULT:      -6.9      1.126      1.944
REMARK  Name = 
REMARK  9 active torsions:
REMARK  status: ('A' for Active; 'I' for Inactive)
REMARK    1  A    between atoms: C_1  and  N_2
REMARK    2  A    between atoms: N_2  and  C_3
REMARK    3  A    between atoms: N_2  and  C_4
REMARK    4  A    between atoms: C_7  and  C_8
REMARK    5  A    between atoms: N_10  and  C_11
REMARK    6  A    between atoms: C_14  and  O_15
REMARK    7  A    between atoms: O_15  and  C_16
REMARK    8  A    between atoms: C_16  and  C_17
REMARK    9  A    between atoms: C_17  and  C_18
REMARK                            x       y       z     vdW  Elec       q    Type
REMARK                         _______ _______ _______ _____ _____    ______ ____
ROOT
ATOM      1  C   UNL     1       2.009   7.329  19.920  0.00  0.00    +0.000 A 
ATOM      2  C   UNL     1       2.787   7.337  18.791  0.00  0.00    +0.000 A 
ATOM      3  N   UNL     1       3.221   6.041  18.646  0.00  0.00    +0.000 N 
ATOM      4  N   UNL     1       2.703   5.278  19.640  0.00  0.00    +0.000 NA
ATOM      5  N   UNL     1       1.960   6.056  20.420  0.00  0.00    +0.000 NA
ENDROOT
BRANCH   1   9
ATOM      6  C   UNL     1      -0.054  10.767  21.497  0.00  0.00    +0.000 A 
ATOM      7  C   UNL     1       0.191  10.597  20.127  0.00  0.00    +0.000 A 
ATOM      8  C   UNL     1       0.857   9.476  19.615  0.00  0.00    +0.000 A 
ATOM      9  C   UNL     1       1.299   8.465  20.468  0.00  0.00    +0.000 A 
ATOM     10  C   UNL     1       1.048   8.596  21.835  0.00  0.00    +0.000 A 
ATOM     11  C   UNL     1       0.381   9.724  22.335  0.00  0.00    +0.000 A 
BRANCH   6  13
ATOM     12  C   UNL     1      -0.124  13.213  21.841  0.00  0.00    +0.000 C 
ATOM     13  N   UNL     1      -0.712  11.889  22.003  0.00  0.00    +0.000 N 
ATOM     14  C   UNL     1      -1.717  11.728  23.048  0.00  0.00    +0.000 C 
ENDBRANCH   6  13
ENDBRANCH   1   9
BRANCH   3  15
ATOM     15  C   UNL     1       4.076   5.523  17.645  0.00  0.00    +0.000 A 
ATOM     16  C   UNL     1       4.274   4.144  17.561  0.00  0.00    +0.000 A 
ATOM     17  C   UNL     1       5.099   3.613  16.575  0.00  0.00    +0.000 A 
ATOM     18  C   UNL     1       5.746   4.442  15.657  0.00  0.00    +0.000 A 
ATOM     19  C   UNL     1       5.557   5.824  15.743  0.00  0.00    +0.000 A 
ATOM     20  C   UNL     1       4.722   6.368  16.733  0.00  0.00    +0.000 A 
BRANCH  18  21
ATOM     21  O   UNL     1       6.569   3.989  14.653  0.00  0.00    +0.000 OA
BRANCH  21  22
ATOM     22  C   UNL     1       5.906   3.808  13.398  0.00  0.00    +0.000 C 
BRANCH  22  23
ATOM     23  C   UNL     1       6.896   3.769  12.246  0.00  0.00    +0.000 C 
BRANCH  23  24
ATOM     24  C   UNL     1       7.408   5.175  11.986  0.00  0.00    +0.000 C 
ATOM     25  F   UNL     1       8.446   5.434  12.826  0.00  0.00    +0.000 F 
ENDBRANCH  23  24
ENDBRANCH  22  23
ENDBRANCH  21  22
ENDBRANCH  18  21
ENDBRANCH   3  15
TORSDOF 7
ENDMDL
