MODEL 1
REMARK VINA RESULT:      -5.8      0.000      0.000
REMARK  Name = 
REMARK  2 active torsions:
REMARK  status: ('A' for Active; 'I' for Inactive)
REMARK    1  A    between atoms: C_2  and  C_3
REMARK    2  A    between atoms: N_10  and  C_11
REMARK                            x       y       z     vdW  Elec       q    Type
REMARK                         _______ _______ _______ _____ _____    ______ ____
ROOT
ATOM      1  C   UNL     1       6.911  17.568  19.835  0.00  0.00    +0.000 C 
ATOM      2  C   UNL     1       8.035  17.194  20.788  0.00  0.00    +0.000 C 
ATOM      3  C   UNL     1       8.566  15.807  20.507  0.00  0.00    +0.000 C 
ATOM      4  C   UNL     1       9.025  15.687  19.054  0.00  0.00    +0.000 C 
ATOM      5  C   UNL     1       8.094  16.382  18.053  0.00  0.00    +0.000 C 
ATOM      6  C   UNL     1       7.154  15.292  17.564  0.00  0.00    +0.000 C 
ATOM      7  C   UNL     1       7.721  13.987  18.106  0.00  0.00    +0.000 C 
ATOM      8  N   UNL     1       9.039  14.254  18.709  0.00  0.00    +0.000 NA
ATOM      9  O   UNL     1       7.466  17.591  18.492  0.00  0.00    +0.000 OA
ENDROOT
BRANCH   1  11
ATOM     10  O   UNL     1       4.787  17.185  18.789  0.00  0.00    +0.000 OA
ATOM     11  C   UNL     1       5.493  16.918  19.775  0.00  0.00    +0.000 C 
ATOM     12  N   UNL     1       4.990  16.083  20.739  0.00  0.00    +0.000 N 
ATOM     13  C   UNL     1       5.471  15.939  22.106  0.00  0.00    +0.000 C 
ATOM     14  C   UNL     1       4.320  15.778  23.102  0.00  0.00    +0.000 C 
ATOM     15  O   UNL     1       3.446  14.712  22.718  0.00  0.00    +0.000 OA
ATOM     16  C   UNL     1       2.854  14.999  21.443  0.00  0.00    +0.000 C 
ATOM     17  C   UNL     1       3.925  15.136  20.362  0.00  0.00    +0.000 C 
ENDBRANCH   1  11
BRANCH   8  18
ATOM     18  C   UNL     1      10.190  13.802  17.898  0.00  0.00    +0.000 C 
ATOM     19  C   UNL     1      11.556  14.134  18.546  0.00  0.00    +0.000 C 
ATOM     20  C   UNL     1      11.790  13.413  19.876  0.00  0.00    +0.000 C 
ATOM     21  C   UNL     1      11.587  11.903  19.783  0.00  0.00    +0.000 C 
ATOM     22  C   UNL     1      10.337  11.495  19.007  0.00  0.00    +0.000 C 
ATOM     23  C   UNL     1      10.192  12.266  17.695  0.00  0.00    +0.000 C 
ENDBRANCH   8  18
TORSDOF 2
ENDMDL
MODEL 2
REMARK VINA RESULT:      -5.7     10.296     11.861
REMARK  Name = 
REMARK  2 active torsions:
REMARK  status: ('A' for Active; 'I' for Inactive)
REMARK    1  A    between atoms: C_2  and  C_3
REMARK    2  A    between atoms: N_10  and  C_11
REMARK                            x       y       z     vdW  Elec       q    Type
REMARK                         _______ _______ _______ _____ _____    ______ ____
ROOT
ATOM      1  C   UNL     1       1.369   4.305  17.393  0.00  0.00    +0.000 C 
ATOM      2  C   UNL     1       1.884   5.729  17.527  0.00  0.00    +0.000 C 
ATOM      3  C   UNL     1       3.306   5.762  18.037  0.00  0.00    +0.000 C 
ATOM      4  C   UNL     1       4.224   4.936  17.136  0.00  0.00    +0.000 C 
ATOM      5  C   UNL     1       3.598   3.620  16.658  0.00  0.00    +0.000 C 
ATOM      6  C   UNL     1       4.075   2.571  17.650  0.00  0.00    +0.000 C 
ATOM      7  C   UNL     1       5.130   3.262  18.503  0.00  0.00    +0.000 C 
ATOM      8  N   UNL     1       5.420   4.585  17.922  0.00  0.00    +0.000 NA
ATOM      9  O   UNL     1       2.191   3.634  16.399  0.00  0.00    +0.000 OA
ENDROOT
BRANCH   1  11
ATOM     10  O   UNL     1       0.237   2.426  18.362  0.00  0.00    +0.000 OA
ATOM     11  C   UNL     1       1.088   3.308  18.560  0.00  0.00    +0.000 C 
ATOM     12  N   UNL     1       1.719   3.353  19.776  0.00  0.00    +0.000 N 
ATOM     13  C   UNL     1       2.446   4.482  20.341  0.00  0.00    +0.000 C 
ATOM     14  C   UNL     1       2.192   4.631  21.843  0.00  0.00    +0.000 C 
ATOM     15  O   UNL     1       2.460   3.409  22.539  0.00  0.00    +0.000 OA
ATOM     16  C   UNL     1       1.582   2.376  22.070  0.00  0.00    +0.000 C 
ATOM     17  C   UNL     1       1.789   2.118  20.578  0.00  0.00    +0.000 C 
ENDBRANCH   1  11
BRANCH   8  18
ATOM     18  C   UNL     1       6.708   4.671  17.200  0.00  0.00    +0.000 C 
ATOM     19  C   UNL     1       6.871   5.990  16.406  0.00  0.00    +0.000 C 
ATOM     20  C   UNL     1       6.911   7.235  17.295  0.00  0.00    +0.000 C 
ATOM     21  C   UNL     1       7.949   7.143  18.411  0.00  0.00    +0.000 C 
ATOM     22  C   UNL     1       7.959   5.799  19.134  0.00  0.00    +0.000 C 
ATOM     23  C   UNL     1       7.921   4.618  18.163  0.00  0.00    +0.000 C 
ENDBRANCH   8  18
TORSDOF 2
ENDMDL
MODEL 3
REMARK VINA RESULT:      -5.7      1.622      2.278
REMARK  Name = 
REMARK  2 active torsions:
REMARK  status: ('A' for Active; 'I' for Inactive)
REMARK    1  A    between atoms: C_2  and  C_3
REMARK    2  A    between atoms: N_10  and  C_11
REMARK                            x       y       z     vdW  Elec       q    Type
REMARK                         _______ _______ _______ _____ _____    ______ ____
ROOT
ATOM      1  C   UNL     1       6.752  16.813  21.198  0.00  0.00    +0.000 C 
ATOM      2  C   UNL     1       6.752  15.521  21.997  0.00  0.00    +0.000 C 
ATOM      3  C   UNL     1       7.184  14.343  21.154  0.00  0.00    +0.000 C 
ATOM      4  C   UNL     1       8.558  14.596  20.535  0.00  0.00    +0.000 C 
ATOM      5  C   UNL     1       8.752  16.030  20.028  0.00  0.00    +0.000 C 
ATOM      6  C   UNL     1       8.394  15.980  18.551  0.00  0.00    +0.000 C 
ATOM      7  C   UNL     1       8.245  14.502  18.214  0.00  0.00    +0.000 C 
ATOM      8  N   UNL     1       8.692  13.704  19.370  0.00  0.00    +0.000 NA
ATOM      9  O   UNL     1       8.121  17.070  20.782  0.00  0.00    +0.000 OA
ENDROOT
BRANCH   1  11
ATOM     10  O   UNL     1       6.119  18.133  19.298  0.00  0.00    +0.000 OA
ATOM     11  C   UNL     1       5.799  17.171  20.015  0.00  0.00    +0.000 C 
ATOM     12  N   UNL     1       4.643  16.492  19.728  0.00  0.00    +0.000 N 
ATOM     13  C   UNL     1       3.906  15.608  20.621  0.00  0.00    +0.000 C 
ATOM     14  C   UNL     1       2.393  15.783  20.475  0.00  0.00    +0.000 C 
ATOM     15  O   UNL     1       1.982  15.642  19.112  0.00  0.00    +0.000 OA
ATOM     16  C   UNL     1       2.596  16.661  18.308  0.00  0.00    +0.000 C 
ATOM     17  C   UNL     1       4.119  16.546  18.351  0.00  0.00    +0.000 C 
ENDBRANCH   1  11
BRANCH   8  18
ATOM     18  C   UNL     1      10.016  13.065  19.201  0.00  0.00    +0.000 C 
ATOM     19  C   UNL     1      10.431  12.202  20.417  0.00  0.00    +0.000 C 
ATOM     20  C   UNL     1       9.515  10.998  20.651  0.00  0.00    +0.000 C 
ATOM     21  C   UNL     1       9.335  10.132  19.408  0.00  0.00    +0.000 C 
ATOM     22  C   UNL     1       9.085  10.929  18.131  0.00  0.00    +0.000 C 
ATOM     23  C   UNL     1      10.049  12.107  17.984  0.00  0.00    +0.000 C 
ENDBRANCH   8  18
TORSDOF 2
ENDMDL
MODEL 4
REMARK VINA RESULT:      -5.6      1.480      1.890
REMARK  Name = 
REMARK  2 active torsions:
REMARK  status: ('A' for Active; 'I' for Inactive)
REMARK    1  A    between atoms: C_2  and  C_3
REMARK    2  A    between atoms: N_10  and  C_11
REMARK                            x       y       z     vdW  Elec       q    Type
REMARK                         _______ _______ _______ _____ _____    ______ ____
ROOT
ATOM      1  C   UNL     1       5.931  16.598  20.488  0.00  0.00    +0.000 C 
ATOM      2  C   UNL     1       6.471  15.641  21.538  0.00  0.00    +0.000 C 
ATOM      3  C   UNL     1       7.172  14.459  20.909  0.00  0.00    +0.000 C 
ATOM      4  C   UNL     1       8.290  14.926  19.977  0.00  0.00    +0.000 C 
ATOM      5  C   UNL     1       7.917  16.151  19.133  0.00  0.00    +0.000 C 
ATOM      6  C   UNL     1       7.419  15.586  17.812  0.00  0.00    +0.000 C 
ATOM      7  C   UNL     1       7.744  14.099  17.853  0.00  0.00    +0.000 C 
ATOM      8  N   UNL     1       8.576  13.826  19.039  0.00  0.00    +0.000 NA
ATOM      9  O   UNL     1       7.068  17.124  19.751  0.00  0.00    +0.000 OA
ENDROOT
BRANCH   1  11
ATOM     10  O   UNL     1       4.634  17.103  18.535  0.00  0.00    +0.000 OA
ATOM     11  C   UNL     1       4.775  16.310  19.480  0.00  0.00    +0.000 C 
ATOM     12  N   UNL     1       3.917  15.245  19.580  0.00  0.00    +0.000 N 
ATOM     13  C   UNL     1       3.666  14.434  20.763  0.00  0.00    +0.000 C 
ATOM     14  C   UNL     1       2.186  14.069  20.901  0.00  0.00    +0.000 C 
ATOM     15  O   UNL     1       1.690  13.455  19.707  0.00  0.00    +0.000 OA
ATOM     16  C   UNL     1       1.789  14.372  18.608  0.00  0.00    +0.000 C 
ATOM     17  C   UNL     1       3.243  14.769  18.357  0.00  0.00    +0.000 C 
ENDBRANCH   1  11
BRANCH   8  18
ATOM     18  C   UNL     1      10.006  13.590  18.745  0.00  0.00    +0.000 C 
ATOM     19  C   UNL     1      10.834  13.244  20.007  0.00  0.00    +0.000 C 
ATOM     20  C   UNL     1      10.415  11.929  20.669  0.00  0.00    +0.000 C 
ATOM     21  C   UNL     1      10.388  10.751  19.698  0.00  0.00    +0.000 C 
ATOM     22  C   UNL     1       9.730  11.071  18.358  0.00  0.00    +0.000 C 
ATOM     23  C   UNL     1      10.213  12.400  17.776  0.00  0.00    +0.000 C 
ENDBRANCH   8  18
TORSDOF 2
ENDMDL
MODEL 5
REMARK VINA RESULT:      -5.5      6.986     12.510
REMARK  Name = 
REMARK  2 active torsions:
REMARK  status: ('A' for Active; 'I' for Inactive)
REMARK    1  A    between atoms: C_2  and  C_3
REMARK    2  A    between atoms: N_10  and  C_11
REMARK                            x       y       z     vdW  Elec       q    Type
REMARK                         _______ _______ _______ _____ _____    ______ ____
ROOT
ATOM      1  C   UNL     1      -1.016  12.257  22.068  0.00  0.00    +0.000 C 
ATOM      2  C   UNL     1      -1.892  11.597  23.120  0.00  0.00    +0.000 C 
ATOM      3  C   UNL     1      -3.123  12.421  23.419  0.00  0.00    +0.000 C 
ATOM      4  C   UNL     1      -3.919  12.689  22.141  0.00  0.00    +0.000 C 
ATOM      5  C   UNL     1      -3.043  13.010  20.924  0.00  0.00    +0.000 C 
ATOM      6  C   UNL     1      -2.971  14.528  20.877  0.00  0.00    +0.000 C 
ATOM      7  C   UNL     1      -3.986  15.019  21.901  0.00  0.00    +0.000 C 
ATOM      8  N   UNL     1      -4.769  13.868  22.385  0.00  0.00    +0.000 NA
ATOM      9  O   UNL     1      -1.787  12.328  20.838  0.00  0.00    +0.000 OA
ENDROOT
BRANCH   1  11
ATOM     10  O   UNL     1      -0.465  14.280  23.233  0.00  0.00    +0.000 OA
ATOM     11  C   UNL     1      -0.218  13.589  22.231  0.00  0.00    +0.000 C 
ATOM     12  N   UNL     1       0.724  14.033  21.340  0.00  0.00    +0.000 N 
ATOM     13  C   UNL     1       0.897  13.595  19.961  0.00  0.00    +0.000 C 
ATOM     14  C   UNL     1       1.245  14.760  19.032  0.00  0.00    +0.000 C 
ATOM     15  O   UNL     1       2.376  15.490  19.515  0.00  0.00    +0.000 OA
ATOM     16  C   UNL     1       2.080  16.059  20.799  0.00  0.00    +0.000 C 
ATOM     17  C   UNL     1       1.759  14.967  21.819  0.00  0.00    +0.000 C 
ENDBRANCH   1  11
BRANCH   8  18
ATOM     18  C   UNL     1      -6.143  13.789  21.846  0.00  0.00    +0.000 C 
ATOM     19  C   UNL     1      -6.922  12.549  22.349  0.00  0.00    +0.000 C 
ATOM     20  C   UNL     1      -7.163  12.553  23.860  0.00  0.00    +0.000 C 
ATOM     21  C   UNL     1      -7.814  13.841  24.359  0.00  0.00    +0.000 C 
ATOM     22  C   UNL     1      -7.202  15.109  23.771  0.00  0.00    +0.000 C 
ATOM     23  C   UNL     1      -7.002  15.010  22.258  0.00  0.00    +0.000 C 
ENDBRANCH   8  18
TORSDOF 2
ENDMDL
MODEL 6
REMARK VINA RESULT:      -5.5      5.839     10.010
REMARK  Name = 
REMARK  2 active torsions:
REMARK  status: ('A' for Active; 'I' for Inactive)
REMARK    1  A    between atoms: C_2  and  C_3
REMARK    2  A    between atoms: N_10  and  C_11
REMARK                            x       y       z     vdW  Elec       q    Type
REMARK                         _______ _______ _______ _____ _____    ______ ____
ROOT
ATOM      1  C   UNL     1       0.286  13.445  21.385  0.00  0.00    +0.000 C 
ATOM      2  C   UNL     1      -1.024  14.015  20.866  0.00  0.00    +0.000 C 
ATOM      3  C   UNL     1      -1.440  13.363  19.567  0.00  0.00    +0.000 C 
ATOM      4  C   UNL     1      -1.535  11.846  19.728  0.00  0.00    +0.000 C 
ATOM      5  C   UNL     1      -0.408  11.244  20.576  0.00  0.00    +0.000 C 
ATOM      6  C   UNL     1       0.648  10.801  19.576  0.00  0.00    +0.000 C 
ATOM      7  C   UNL     1      -0.002  10.940  18.205  0.00  0.00    +0.000 C 
ATOM      8  N   UNL     1      -1.432  11.248  18.385  0.00  0.00    +0.000 NA
ATOM      9  O   UNL     1       0.069  12.037  21.669  0.00  0.00    +0.000 OA
ENDROOT
BRANCH   1  11
ATOM     10  O   UNL     1       2.631  12.970  21.228  0.00  0.00    +0.000 OA
ATOM     11  C   UNL     1       1.692  13.608  20.727  0.00  0.00    +0.000 C 
ATOM     12  N   UNL     1       1.943  14.408  19.642  0.00  0.00    +0.000 N 
ATOM     13  C   UNL     1       1.109  15.493  19.145  0.00  0.00    +0.000 C 
ATOM     14  C   UNL     1       1.944  16.687  18.677  0.00  0.00    +0.000 C 
ATOM     15  O   UNL     1       2.935  16.286  17.726  0.00  0.00    +0.000 OA
ATOM     16  C   UNL     1       3.845  15.355  18.331  0.00  0.00    +0.000 C 
ATOM     17  C   UNL     1       3.112  14.099  18.797  0.00  0.00    +0.000 C 
ENDBRANCH   1  11
BRANCH   8  18
ATOM     18  C   UNL     1      -2.344  10.115  18.117  0.00  0.00    +0.000 C 
ATOM     19  C   UNL     1      -3.835  10.473  18.330  0.00  0.00    +0.000 C 
ATOM     20  C   UNL     1      -4.348  11.543  17.363  0.00  0.00    +0.000 C 
ATOM     21  C   UNL     1      -4.076  11.208  15.899  0.00  0.00    +0.000 C 
ATOM     22  C   UNL     1      -2.666  10.685  15.638  0.00  0.00    +0.000 C 
ATOM     23  C   UNL     1      -2.244   9.621  16.652  0.00  0.00    +0.000 C 
ENDBRANCH   8  18
TORSDOF 2
ENDMDL
MODEL 7
REMARK VINA RESULT:      -5.4      6.140      9.112
REMARK  Name = 
REMARK  2 active torsions:
REMARK  status: ('A' for Active; 'I' for Inactive)
REMARK    1  A    between atoms: C_2  and  C_3
REMARK    2  A    between atoms: N_10  and  C_11
REMARK                            x       y       z     vdW  Elec       q    Type
REMARK                         _______ _______ _______ _____ _____    ______ ____
ROOT
ATOM      1  C   UNL     1       0.272  11.428  20.336  0.00  0.00    +0.000 C 
ATOM      2  C   UNL     1       1.246  11.538  19.175  0.00  0.00    +0.000 C 
ATOM      3  C   UNL     1       1.271  12.934  18.598  0.00  0.00    +0.000 C 
ATOM      4  C   UNL     1       1.601  13.962  19.680  0.00  0.00    +0.000 C 
ATOM      5  C   UNL     1       0.913  13.685  21.023  0.00  0.00    +0.000 C 
ATOM      6  C   UNL     1      -0.357  14.520  20.997  0.00  0.00    +0.000 C 
ATOM      7  C   UNL     1      -0.236  15.414  19.770  0.00  0.00    +0.000 C 
ATOM      8  N   UNL     1       1.120  15.273  19.210  0.00  0.00    +0.000 NA
ATOM      9  O   UNL     1       0.745  12.312  21.388  0.00  0.00    +0.000 OA
ENDROOT
BRANCH   1  11
ATOM     10  O   UNL     1      -1.891  11.781  21.310  0.00  0.00    +0.000 OA
ATOM     11  C   UNL     1      -1.282  11.539  20.255  0.00  0.00    +0.000 C 
ATOM     12  N   UNL     1      -2.003  11.385  19.099  0.00  0.00    +0.000 N 
ATOM     13  C   UNL     1      -1.554  10.750  17.868  0.00  0.00    +0.000 C 
ATOM     14  C   UNL     1      -2.659   9.911  17.222  0.00  0.00    +0.000 C 
ATOM     15  O   UNL     1      -3.851  10.679  17.032  0.00  0.00    +0.000 OA
ATOM     16  C   UNL     1      -4.355  11.122  18.301  0.00  0.00    +0.000 C 
ATOM     17  C   UNL     1      -3.336  12.011  19.013  0.00  0.00    +0.000 C 
ENDBRANCH   1  11
BRANCH   8  18
ATOM     18  C   UNL     1       2.018  16.418  19.478  0.00  0.00    +0.000 C 
ATOM     19  C   UNL     1       3.397  16.281  18.787  0.00  0.00    +0.000 C 
ATOM     20  C   UNL     1       3.315  16.280  17.259  0.00  0.00    +0.000 C 
ATOM     21  C   UNL     1       2.545  17.473  16.699  0.00  0.00    +0.000 C 
ATOM     22  C   UNL     1       1.246  17.773  17.443  0.00  0.00    +0.000 C 
ATOM     23  C   UNL     1       1.429  17.754  18.961  0.00  0.00    +0.000 C 
ENDBRANCH   8  18
TORSDOF 2
ENDMDL
MODEL 8
REMARK VINA RESULT:      -5.4      5.947      9.085
REMARK  Name = 
REMARK  2 active torsions:
REMARK  status: ('A' for Active; 'I' for Inactive)
REMARK    1  A    between atoms: C_2  and  C_3
REMARK    2  A    between atoms: N_10  and  C_11
REMARK                            x       y       z     vdW  Elec       q    Type
REMARK                         _______ _______ _______ _____ _____    ______ ____
ROOT
ATOM      1  C   UNL     1      -1.185  11.108  20.158  0.00  0.00    +0.000 C 
ATOM      2  C   UNL     1      -0.070  10.917  21.172  0.00  0.00    +0.000 C 
ATOM      3  C   UNL     1       1.129  11.779  20.852  0.00  0.00    +0.000 C 
ATOM      4  C   UNL     1       0.729  13.251  20.759  0.00  0.00    +0.000 C 
ATOM      5  C   UNL     1      -0.610  13.482  20.047  0.00  0.00    +0.000 C 
ATOM      6  C   UNL     1      -0.243  13.769  18.599  0.00  0.00    +0.000 C 
ATOM      7  C   UNL     1       1.271  13.929  18.583  0.00  0.00    +0.000 C 
ATOM      8  N   UNL     1       1.763  13.945  19.972  0.00  0.00    +0.000 NA
ATOM      9  O   UNL     1      -1.623  12.491  20.244  0.00  0.00    +0.000 OA
ENDROOT
BRANCH   1  11
ATOM     10  O   UNL     1      -0.037  10.459  18.154  0.00  0.00    +0.000 OA
ATOM     11  C   UNL     1      -1.150  10.692  18.654  0.00  0.00    +0.000 C 
ATOM     12  N   UNL     1      -2.264  10.573  17.864  0.00  0.00    +0.000 N 
ATOM     13  C   UNL     1      -3.582  11.139  18.122  0.00  0.00    +0.000 C 
ATOM     14  C   UNL     1      -4.234  11.671  16.844  0.00  0.00    +0.000 C 
ATOM     15  O   UNL     1      -4.264  10.672  15.820  0.00  0.00    +0.000 OA
ATOM     16  C   UNL     1      -2.926  10.287  15.473  0.00  0.00    +0.000 C 
ATOM     17  C   UNL     1      -2.196   9.697  16.679  0.00  0.00    +0.000 C 
ENDBRANCH   1  11
BRANCH   8  18
ATOM     18  C   UNL     1       2.157  15.281  20.469  0.00  0.00    +0.000 C 
ATOM     19  C   UNL     1       2.786  15.239  21.883  0.00  0.00    +0.000 C 
ATOM     20  C   UNL     1       4.105  14.466  21.941  0.00  0.00    +0.000 C 
ATOM     21  C   UNL     1       5.125  14.942  20.909  0.00  0.00    +0.000 C 
ATOM     22  C   UNL     1       4.536  15.166  19.519  0.00  0.00    +0.000 C 
ATOM     23  C   UNL     1       3.223  15.948  19.564  0.00  0.00    +0.000 C 
ENDBRANCH   8  18
TORSDOF 2
ENDMDL
MODEL 9
REMARK VINA RESULT:      -5.3      5.778      8.888
REMARK  Name = 
REMARK  2 active torsions:
REMARK  status: ('A' for Active; 'I' for Inactive)
REMARK    1  A    between atoms: C_2  and  C_3
REMARK    2  A    between atoms: N_10  and  C_11
REMARK                            x       y       z     vdW  Elec       q    Type
REMARK                         _______ _______ _______ _____ _____    ______ ____
ROOT
ATOM      1  C   UNL     1      -1.020  11.751  21.170  0.00  0.00    +0.000 C 
ATOM      2  C   UNL     1      -0.100  11.407  20.010  0.00  0.00    +0.000 C 
ATOM      3  C   UNL     1       0.475  12.649  19.367  0.00  0.00    +0.000 C 
ATOM      4  C   UNL     1       1.204  13.506  20.401  0.00  0.00    +0.000 C 
ATOM      5  C   UNL     1       0.482  13.591  21.752  0.00  0.00    +0.000 C 
ATOM      6  C   UNL     1      -0.347  14.863  21.679  0.00  0.00    +0.000 C 
ATOM      7  C   UNL     1       0.105  15.576  20.411  0.00  0.00    +0.000 C 
ATOM      8  N   UNL     1       1.283  14.877  19.867  0.00  0.00    +0.000 NA
ATOM      9  O   UNL     1      -0.218  12.419  22.181  0.00  0.00    +0.000 OA
ENDROOT
BRANCH   1  11
ATOM     10  O   UNL     1      -2.656  13.072  20.018  0.00  0.00    +0.000 OA
ATOM     11  C   UNL     1      -2.401  12.473  21.075  0.00  0.00    +0.000 C 
ATOM     12  N   UNL     1      -3.332  12.484  22.080  0.00  0.00    +0.000 N 
ATOM     13  C   UNL     1      -3.102  12.182  23.487  0.00  0.00    +0.000 C 
ATOM     14  C   UNL     1      -3.893  13.115  24.407  0.00  0.00    +0.000 C 
ATOM     15  O   UNL     1      -5.284  13.117  24.073  0.00  0.00    +0.000 OA
ATOM     16  C   UNL     1      -5.466  13.603  22.735  0.00  0.00    +0.000 C 
ATOM     17  C   UNL     1      -4.746  12.710  21.726  0.00  0.00    +0.000 C 
ENDBRANCH   1  11
BRANCH   8  18
ATOM     18  C   UNL     1       2.568  15.576  20.085  0.00  0.00    +0.000 C 
ATOM     19  C   UNL     1       3.792  14.754  19.615  0.00  0.00    +0.000 C 
ATOM     20  C   UNL     1       3.811  14.498  18.106  0.00  0.00    +0.000 C 
ATOM     21  C   UNL     1       3.665  15.773  17.280  0.00  0.00    +0.000 C 
ATOM     22  C   UNL     1       2.580  16.717  17.789  0.00  0.00    +0.000 C 
ATOM     23  C   UNL     1       2.644  16.912  19.304  0.00  0.00    +0.000 C 
ENDBRANCH   8  18
TORSDOF 2
ENDMDL
