MODEL 1
REMARK VINA RESULT:      -8.4      0.000      0.000
REMARK  Name = 
REMARK  7 active torsions:
REMARK  status: ('A' for Active; 'I' for Inactive)
REMARK    1  A    between atoms: C_1  and  C_2
REMARK    2  A    between atoms: C_2  and  C_3
REMARK    3  A    between atoms: C_2  and  N_4
REMARK    4  A    between atoms: C_6  and  C_7
REMARK    5  A    between atoms: C_17  and  C_18
REMARK    6  A    between atoms: N_20  and  C_21
REMARK    7  A    between atoms: C_24  and  N_25
REMARK                            x       y       z     vdW  Elec       q    Type
REMARK                         _______ _______ _______ _____ _____    ______ ____
ROOT
ATOM      1  N   UNL     1       0.590  12.902  19.718  0.00  0.00    +0.000 NA
ATOM      2  C   UNL     1      -0.641  12.177  19.330  0.00  0.00    +0.000 C 
ATOM      3  C   UNL     1      -1.320  11.771  20.629  0.00  0.00    +0.000 C 
ATOM      4  C   UNL     1      -0.124  11.359  21.493  0.00  0.00    +0.000 C 
ATOM      5  C   UNL     1       1.024  12.240  20.977  0.00  0.00    +0.000 C 
ENDROOT
BRANCH   3   6
ATOM      6  C   UNL     1      -2.082  12.915  21.269  0.00  0.00    +0.000 C 
ATOM      7  O   UNL     1      -2.721  13.718  20.586  0.00  0.00    +0.000 OA
ATOM      8  N   UNL     1      -1.995  12.978  22.643  0.00  0.00    +0.000 N 
ATOM      9  C   UNL     1      -2.699  13.954  23.356  0.00  0.00    +0.000 A 
ATOM     10  C   UNL     1      -4.031  14.242  23.065  0.00  0.00    +0.000 A 
ATOM     11  C   UNL     1      -4.656  15.297  23.722  0.00  0.00    +0.000 A 
ATOM     12  C   UNL     1      -3.924  16.039  24.635  0.00  0.00    +0.000 A 
ATOM     13 CL   UNL     1      -4.618  17.405  25.404  0.00  0.00    +0.000 Cl
ATOM     14  C   UNL     1      -2.616  15.654  24.896  0.00  0.00    +0.000 A 
ATOM     15  N   UNL     1      -1.998  14.599  24.306  0.00  0.00    +0.000 NA
ATOM     16  H   UNL     1      -1.115  12.716  23.067  0.00  0.00    +0.000 HD
ENDBRANCH   3   6
BRANCH   4  17
ATOM     17  C   UNL     1       0.153   9.874  21.332  0.00  0.00    +0.000 C 
ATOM     18  O   UNL     1      -0.507   9.047  21.959  0.00  0.00    +0.000 OA
ATOM     19  N   UNL     1       1.208   9.565  20.489  0.00  0.00    +0.000 N 
ATOM     20  H   UNL     1       1.856  10.299  20.228  0.00  0.00    +0.000 HD
BRANCH  19  21
ATOM     21  C   UNL     1       1.580   8.247  20.120  0.00  0.00    +0.000 A 
ATOM     22  C   UNL     1       1.346   7.147  20.934  0.00  0.00    +0.000 A 
ATOM     23  C   UNL     1       1.750   5.866  20.549  0.00  0.00    +0.000 A 
ATOM     24  C   UNL     1       2.373   5.616  19.322  0.00  0.00    +0.000 A 
ATOM     25  C   UNL     1       2.595   6.732  18.494  0.00  0.00    +0.000 A 
ATOM     26  C   UNL     1       2.194   8.020  18.888  0.00  0.00    +0.000 A 
ATOM     27  F   UNL     1       2.425   9.052  18.060  0.00  0.00    +0.000 F 
BRANCH  24  28
ATOM     28  N   UNL     1       2.774   4.270  18.946  0.00  0.00    +0.000 N 
ATOM     29  C   UNL     1       3.875   3.651  19.546  0.00  0.00    +0.000 A 
ATOM     30  C   UNL     1       4.264   2.409  19.234  0.00  0.00    +0.000 A 
ATOM     31  C   UNL     1       3.542   1.646  18.257  0.00  0.00    +0.000 A 
ATOM     32  C   UNL     1       2.481   2.177  17.647  0.00  0.00    +0.000 A 
ATOM     33  C   UNL     1       2.044   3.570  17.947  0.00  0.00    +0.000 A 
ATOM     34  O   UNL     1       1.108   3.991  17.267  0.00  0.00    +0.000 OA
ENDBRANCH  24  28
ENDBRANCH  19  21
ENDBRANCH   4  17
BRANCH   1  36
ATOM     35  C   UNL     1       0.825  14.983  21.149  0.00  0.00    +0.000 C 
ATOM     36  C   UNL     1       0.402  14.371  19.804  0.00  0.00    +0.000 C 
ATOM     37  C   UNL     1       1.206  15.105  18.713  0.00  0.00    +0.000 C 
ENDBRANCH   1  36
TORSDOF 5
ENDMDL
MODEL 2
REMARK VINA RESULT:      -8.3      2.384      2.887
REMARK  Name = 
REMARK  7 active torsions:
REMARK  status: ('A' for Active; 'I' for Inactive)
REMARK    1  A    between atoms: C_1  and  C_2
REMARK    2  A    between atoms: C_2  and  C_3
REMARK    3  A    between atoms: C_2  and  N_4
REMARK    4  A    between atoms: C_6  and  C_7
REMARK    5  A    between atoms: C_17  and  C_18
REMARK    6  A    between atoms: N_20  and  C_21
REMARK    7  A    between atoms: C_24  and  N_25
REMARK                            x       y       z     vdW  Elec       q    Type
REMARK                         _______ _______ _______ _____ _____    ______ ____
ROOT
ATOM      1  N   UNL     1       0.319  14.919  20.918  0.00  0.00    +0.000 NA
ATOM      2  C   UNL     1      -0.326  14.501  19.654  0.00  0.00    +0.000 C 
ATOM      3  C   UNL     1      -1.110  13.238  19.977  0.00  0.00    +0.000 C 
ATOM      4  C   UNL     1      -0.153  12.507  20.923  0.00  0.00    +0.000 C 
ATOM      5  C   UNL     1       0.612  13.642  21.621  0.00  0.00    +0.000 C 
ENDROOT
BRANCH   3   6
ATOM      6  C   UNL     1      -2.430  13.533  20.662  0.00  0.00    +0.000 C 
ATOM      7  O   UNL     1      -3.062  14.561  20.416  0.00  0.00    +0.000 OA
ATOM      8  N   UNL     1      -2.846  12.576  21.563  0.00  0.00    +0.000 N 
ATOM      9  C   UNL     1      -4.074  12.703  22.219  0.00  0.00    +0.000 A 
ATOM     10  C   UNL     1      -5.227  13.075  21.530  0.00  0.00    +0.000 A 
ATOM     11  C   UNL     1      -6.401  13.300  22.243  0.00  0.00    +0.000 A 
ATOM     12  C   UNL     1      -6.378  13.162  23.621  0.00  0.00    +0.000 A 
ATOM     13 CL   UNL     1      -7.772  13.516  24.556  0.00  0.00    +0.000 Cl
ATOM     14  C   UNL     1      -5.197  12.745  24.221  0.00  0.00    +0.000 A 
ATOM     15  N   UNL     1      -4.052  12.471  23.545  0.00  0.00    +0.000 NA
ATOM     16  H   UNL     1      -2.134  12.112  22.113  0.00  0.00    +0.000 HD
ENDBRANCH   3   6
BRANCH   4  17
ATOM     17  C   UNL     1       0.757  11.579  20.136  0.00  0.00    +0.000 C 
ATOM     18  O   UNL     1       1.727  12.028  19.528  0.00  0.00    +0.000 OA
ATOM     19  N   UNL     1       0.370  10.249  20.131  0.00  0.00    +0.000 N 
ATOM     20  H   UNL     1      -0.570  10.012  20.428  0.00  0.00    +0.000 HD
BRANCH  19  21
ATOM     21  C   UNL     1       1.119   9.197  19.543  0.00  0.00    +0.000 A 
ATOM     22  C   UNL     1       1.441   9.172  18.192  0.00  0.00    +0.000 A 
ATOM     23  C   UNL     1       2.158   8.106  17.642  0.00  0.00    +0.000 A 
ATOM     24  C   UNL     1       2.619   7.037  18.417  0.00  0.00    +0.000 A 
ATOM     25  C   UNL     1       2.304   7.075  19.788  0.00  0.00    +0.000 A 
ATOM     26  C   UNL     1       1.575   8.144  20.336  0.00  0.00    +0.000 A 
ATOM     27  F   UNL     1       1.303   8.136  21.651  0.00  0.00    +0.000 F 
BRANCH  24  28
ATOM     28  N   UNL     1       3.371   5.947  17.817  0.00  0.00    +0.000 N 
ATOM     29  C   UNL     1       2.848   4.651  17.766  0.00  0.00    +0.000 A 
ATOM     30  C   UNL     1       3.507   3.628  17.209  0.00  0.00    +0.000 A 
ATOM     31  C   UNL     1       4.799   3.830  16.621  0.00  0.00    +0.000 A 
ATOM     32  C   UNL     1       5.357   5.043  16.635  0.00  0.00    +0.000 A 
ATOM     33  C   UNL     1       4.663   6.195  17.278  0.00  0.00    +0.000 A 
ATOM     34  O   UNL     1       5.302   7.247  17.311  0.00  0.00    +0.000 OA
ENDBRANCH  24  28
ENDBRANCH  19  21
ENDBRANCH   4  17
BRANCH   1  36
ATOM     35  C   UNL     1       0.037  16.165  23.110  0.00  0.00    +0.000 C 
ATOM     36  C   UNL     1      -0.486  15.899  21.690  0.00  0.00    +0.000 C 
ATOM     37  C   UNL     1      -0.543  17.264  20.978  0.00  0.00    +0.000 C 
ENDBRANCH   1  36
TORSDOF 5
ENDMDL
MODEL 3
REMARK VINA RESULT:      -8.2      1.525      1.691
REMARK  Name = 
REMARK  7 active torsions:
REMARK  status: ('A' for Active; 'I' for Inactive)
REMARK    1  A    between atoms: C_1  and  C_2
REMARK    2  A    between atoms: C_2  and  C_3
REMARK    3  A    between atoms: C_2  and  N_4
REMARK    4  A    between atoms: C_6  and  C_7
REMARK    5  A    between atoms: C_17  and  C_18
REMARK    6  A    between atoms: N_20  and  C_21
REMARK    7  A    between atoms: C_24  and  N_25
REMARK                            x       y       z     vdW  Elec       q    Type
REMARK                         _______ _______ _______ _____ _____    ______ ____
ROOT
ATOM      1  N   UNL     1       0.681  13.452  19.090  0.00  0.00    +0.000 NA
ATOM      2  C   UNL     1      -0.634  12.917  18.671  0.00  0.00    +0.000 C 
ATOM      3  C   UNL     1      -1.265  12.319  19.919  0.00  0.00    +0.000 C 
ATOM      4  C   UNL     1      -0.061  11.653  20.592  0.00  0.00    +0.000 C 
ATOM      5  C   UNL     1       1.129  12.525  20.162  0.00  0.00    +0.000 C 
ENDROOT
BRANCH   3   6
ATOM      6  C   UNL     1      -1.876  13.372  20.823  0.00  0.00    +0.000 C 
ATOM      7  O   UNL     1      -1.415  13.599  21.943  0.00  0.00    +0.000 OA
ATOM      8  N   UNL     1      -2.965  14.032  20.295  0.00  0.00    +0.000 N 
ATOM      9  C   UNL     1      -3.584  15.064  21.008  0.00  0.00    +0.000 A 
ATOM     10  C   UNL     1      -2.836  16.054  21.644  0.00  0.00    +0.000 A 
ATOM     11  C   UNL     1      -3.489  16.994  22.435  0.00  0.00    +0.000 A 
ATOM     12  C   UNL     1      -4.864  16.905  22.576  0.00  0.00    +0.000 A 
ATOM     13 CL   UNL     1      -5.706  17.982  23.611  0.00  0.00    +0.000 Cl
ATOM     14  C   UNL     1      -5.535  15.914  21.871  0.00  0.00    +0.000 A 
ATOM     15  N   UNL     1      -4.928  15.015  21.054  0.00  0.00    +0.000 NA
ATOM     16  H   UNL     1      -3.599  13.497  19.716  0.00  0.00    +0.000 HD
ENDBRANCH   3   6
BRANCH   4  17
ATOM     17  C   UNL     1       0.067  10.211  20.130  0.00  0.00    +0.000 C 
ATOM     18  O   UNL     1      -0.802   9.706  19.421  0.00  0.00    +0.000 OA
ATOM     19  N   UNL     1       1.180   9.541  20.609  0.00  0.00    +0.000 N 
ATOM     20  H   UNL     1       1.694   9.940  21.387  0.00  0.00    +0.000 HD
BRANCH  19  21
ATOM     21  C   UNL     1       1.548   8.224  20.232  0.00  0.00    +0.000 A 
ATOM     22  C   UNL     1       1.284   7.116  21.028  0.00  0.00    +0.000 A 
ATOM     23  C   UNL     1       1.685   5.836  20.636  0.00  0.00    +0.000 A 
ATOM     24  C   UNL     1       2.334   5.595  19.421  0.00  0.00    +0.000 A 
ATOM     25  C   UNL     1       2.586   6.718  18.612  0.00  0.00    +0.000 A 
ATOM     26  C   UNL     1       2.189   8.005  19.013  0.00  0.00    +0.000 A 
ATOM     27  F   UNL     1       2.448   9.044  18.203  0.00  0.00    +0.000 F 
BRANCH  24  28
ATOM     28  N   UNL     1       2.730   4.249  19.038  0.00  0.00    +0.000 N 
ATOM     29  C   UNL     1       3.801   3.607  19.665  0.00  0.00    +0.000 A 
ATOM     30  C   UNL     1       4.184   2.364  19.348  0.00  0.00    +0.000 A 
ATOM     31  C   UNL     1       3.487   1.626  18.335  0.00  0.00    +0.000 A 
ATOM     32  C   UNL     1       2.455   2.181  17.697  0.00  0.00    +0.000 A 
ATOM     33  C   UNL     1       2.025   3.575  18.004  0.00  0.00    +0.000 A 
ATOM     34  O   UNL     1       1.120   4.018  17.298  0.00  0.00    +0.000 OA
ENDBRANCH  24  28
ENDBRANCH  19  21
ENDBRANCH   4  17
BRANCH   1  36
ATOM     35  C   UNL     1       2.000  15.593  19.427  0.00  0.00    +0.000 C 
ATOM     36  C   UNL     1       0.636  14.886  19.468  0.00  0.00    +0.000 C 
ATOM     37  C   UNL     1      -0.301  15.683  18.540  0.00  0.00    +0.000 C 
ENDBRANCH   1  36
TORSDOF 5
ENDMDL
MODEL 4
REMARK VINA RESULT:      -8.1      1.030      1.195
REMARK  Name = 
REMARK  7 active torsions:
REMARK  status: ('A' for Active; 'I' for Inactive)
REMARK    1  A    between atoms: C_1  and  C_2
REMARK    2  A    between atoms: C_2  and  C_3
REMARK    3  A    between atoms: C_2  and  N_4
REMARK    4  A    between atoms: C_6  and  C_7
REMARK    5  A    between atoms: C_17  and  C_18
REMARK    6  A    between atoms: N_20  and  C_21
REMARK    7  A    between atoms: C_24  and  N_25
REMARK                            x       y       z     vdW  Elec       q    Type
REMARK                         _______ _______ _______ _____ _____    ______ ____
ROOT
ATOM      1  N   UNL     1      -0.105  12.785  19.872  0.00  0.00    +0.000 NA
ATOM      2  C   UNL     1      -1.308  11.960  20.123  0.00  0.00    +0.000 C 
ATOM      3  C   UNL     1      -1.315  11.666  21.616  0.00  0.00    +0.000 C 
ATOM      4  C   UNL     1       0.170  11.414  21.893  0.00  0.00    +0.000 C 
ATOM      5  C   UNL     1       0.892  12.290  20.857  0.00  0.00    +0.000 C 
ENDROOT
BRANCH   3   6
ATOM      6  C   UNL     1      -1.829  12.834  22.436  0.00  0.00    +0.000 C 
ATOM      7  O   UNL     1      -1.176  13.290  23.377  0.00  0.00    +0.000 OA
ATOM      8  N   UNL     1      -3.058  13.322  22.048  0.00  0.00    +0.000 N 
ATOM      9  C   UNL     1      -3.615  14.433  22.689  0.00  0.00    +0.000 A 
ATOM     10  C   UNL     1      -2.851  15.564  22.973  0.00  0.00    +0.000 A 
ATOM     11  C   UNL     1      -3.417  16.598  23.712  0.00  0.00    +0.000 A 
ATOM     12  C   UNL     1      -4.722  16.459  24.157  0.00  0.00    +0.000 A 
ATOM     13 CL   UNL     1      -5.437  17.662  25.148  0.00  0.00    +0.000 Cl
ATOM     14  C   UNL     1      -5.424  15.319  23.790  0.00  0.00    +0.000 A 
ATOM     15  N   UNL     1      -4.913  14.319  23.028  0.00  0.00    +0.000 NA
ATOM     16  H   UNL     1      -3.742  12.655  21.717  0.00  0.00    +0.000 HD
ENDBRANCH   3   6
BRANCH   4  17
ATOM     17  C   UNL     1       0.489   9.936  21.742  0.00  0.00    +0.000 C 
ATOM     18  O   UNL     1       0.105   9.128  22.585  0.00  0.00    +0.000 OA
ATOM     19  N   UNL     1       1.263   9.616  20.638  0.00  0.00    +0.000 N 
ATOM     20  H   UNL     1       1.752  10.360  20.151  0.00  0.00    +0.000 HD
BRANCH  19  21
ATOM     21  C   UNL     1       1.599   8.294  20.250  0.00  0.00    +0.000 A 
ATOM     22  C   UNL     1       1.359   7.192  21.061  0.00  0.00    +0.000 A 
ATOM     23  C   UNL     1       1.728   5.906  20.656  0.00  0.00    +0.000 A 
ATOM     24  C   UNL     1       2.318   5.654  19.413  0.00  0.00    +0.000 A 
ATOM     25  C   UNL     1       2.545   6.772  18.589  0.00  0.00    +0.000 A 
ATOM     26  C   UNL     1       2.181   8.065  19.003  0.00  0.00    +0.000 A 
ATOM     27  F   UNL     1       2.415   9.098  18.179  0.00  0.00    +0.000 F 
BRANCH  24  28
ATOM     28  N   UNL     1       2.681   4.303  19.017  0.00  0.00    +0.000 N 
ATOM     29  C   UNL     1       3.743   3.632  19.632  0.00  0.00    +0.000 A 
ATOM     30  C   UNL     1       4.096   2.383  19.303  0.00  0.00    +0.000 A 
ATOM     31  C   UNL     1       3.375   1.669  18.290  0.00  0.00    +0.000 A 
ATOM     32  C   UNL     1       2.351   2.251  17.663  0.00  0.00    +0.000 A 
ATOM     33  C   UNL     1       1.955   3.652  17.984  0.00  0.00    +0.000 A 
ATOM     34  O   UNL     1       1.055   4.120  17.288  0.00  0.00    +0.000 OA
ENDBRANCH  24  28
ENDBRANCH  19  21
ENDBRANCH   4  17
BRANCH   1  36
ATOM     35  C   UNL     1       0.593  15.036  20.811  0.00  0.00    +0.000 C 
ATOM     36  C   UNL     1      -0.375  14.243  19.919  0.00  0.00    +0.000 C 
ATOM     37  C   UNL     1      -0.297  14.874  18.515  0.00  0.00    +0.000 C 
ENDBRANCH   1  36
TORSDOF 5
ENDMDL
MODEL 5
REMARK VINA RESULT:      -7.9      1.036      1.293
REMARK  Name = 
REMARK  7 active torsions:
REMARK  status: ('A' for Active; 'I' for Inactive)
REMARK    1  A    between atoms: C_1  and  C_2
REMARK    2  A    between atoms: C_2  and  C_3
REMARK    3  A    between atoms: C_2  and  N_4
REMARK    4  A    between atoms: C_6  and  C_7
REMARK    5  A    between atoms: C_17  and  C_18
REMARK    6  A    between atoms: N_20  and  C_21
REMARK    7  A    between atoms: C_24  and  N_25
REMARK                            x       y       z     vdW  Elec       q    Type
REMARK                         _______ _______ _______ _____ _____    ______ ____
ROOT
ATOM      1  N   UNL     1       0.333  13.446  19.869  0.00  0.00    +0.000 NA
ATOM      2  C   UNL     1      -0.864  12.700  19.422  0.00  0.00    +0.000 C 
ATOM      3  C   UNL     1      -1.558  12.217  20.687  0.00  0.00    +0.000 C 
ATOM      4  C   UNL     1      -0.369  11.807  21.561  0.00  0.00    +0.000 C 
ATOM      5  C   UNL     1       0.761  12.746  21.109  0.00  0.00    +0.000 C 
ENDROOT
BRANCH   3   6
ATOM      6  C   UNL     1      -2.372  13.308  21.356  0.00  0.00    +0.000 C 
ATOM      7  O   UNL     1      -3.160  14.003  20.712  0.00  0.00    +0.000 OA
ATOM      8  N   UNL     1      -2.154  13.450  22.709  0.00  0.00    +0.000 N 
ATOM      9  C   UNL     1      -2.884  14.384  23.452  0.00  0.00    +0.000 A 
ATOM     10  C   UNL     1      -4.262  14.516  23.293  0.00  0.00    +0.000 A 
ATOM     11  C   UNL     1      -4.929  15.534  23.968  0.00  0.00    +0.000 A 
ATOM     12  C   UNL     1      -4.194  16.395  24.767  0.00  0.00    +0.000 A 
ATOM     13 CL   UNL     1      -4.951  17.720  25.548  0.00  0.00    +0.000 Cl
ATOM     14  C   UNL     1      -2.832  16.162  24.904  0.00  0.00    +0.000 A 
ATOM     15  N   UNL     1      -2.165  15.147  24.296  0.00  0.00    +0.000 NA
ATOM     16  H   UNL     1      -1.212  13.304  23.049  0.00  0.00    +0.000 HD
ENDBRANCH   3   6
BRANCH   4  17
ATOM     17  C   UNL     1      -0.039  10.340  21.344  0.00  0.00    +0.000 C 
ATOM     18  O   UNL     1      -0.658   9.467  21.950  0.00  0.00    +0.000 OA
ATOM     19  N   UNL     1       1.014  10.100  20.476  0.00  0.00    +0.000 N 
ATOM     20  H   UNL     1       1.631  10.867  20.232  0.00  0.00    +0.000 HD
BRANCH  19  21
ATOM     21  C   UNL     1       1.429   8.811  20.056  0.00  0.00    +0.000 A 
ATOM     22  C   UNL     1       1.408   7.706  20.897  0.00  0.00    +0.000 A 
ATOM     23  C   UNL     1       1.850   6.456  20.456  0.00  0.00    +0.000 A 
ATOM     24  C   UNL     1       2.299   6.240  19.149  0.00  0.00    +0.000 A 
ATOM     25  C   UNL     1       2.305   7.359  18.296  0.00  0.00    +0.000 A 
ATOM     26  C   UNL     1       1.867   8.617  18.746  0.00  0.00    +0.000 A 
ATOM     27  F   UNL     1       1.887   9.653  17.891  0.00  0.00    +0.000 F 
BRANCH  24  28
ATOM     28  N   UNL     1       2.744   4.925  18.718  0.00  0.00    +0.000 N 
ATOM     29  C   UNL     1       1.849   4.008  18.158  0.00  0.00    +0.000 A 
ATOM     30  C   UNL     1       2.227   2.794  17.738  0.00  0.00    +0.000 A 
ATOM     31  C   UNL     1       3.597   2.385  17.841  0.00  0.00    +0.000 A 
ATOM     32  C   UNL     1       4.503   3.212  18.366  0.00  0.00    +0.000 A 
ATOM     33  C   UNL     1       4.108   4.557  18.873  0.00  0.00    +0.000 A 
ATOM     34  O   UNL     1       5.004   5.203  19.415  0.00  0.00    +0.000 OA
ENDBRANCH  24  28
ENDBRANCH  19  21
ENDBRANCH   4  17
BRANCH   1  36
ATOM     35  C   UNL     1       1.278  15.681  20.612  0.00  0.00    +0.000 C 
ATOM     36  C   UNL     1       0.095  14.904  20.013  0.00  0.00    +0.000 C 
ATOM     37  C   UNL     1      -0.220  15.559  18.654  0.00  0.00    +0.000 C 
ENDBRANCH   1  36
TORSDOF 5
ENDMDL
MODEL 6
REMARK VINA RESULT:      -7.9      1.352      1.634
REMARK  Name = 
REMARK  7 active torsions:
REMARK  status: ('A' for Active; 'I' for Inactive)
REMARK    1  A    between atoms: C_1  and  C_2
REMARK    2  A    between atoms: C_2  and  C_3
REMARK    3  A    between atoms: C_2  and  N_4
REMARK    4  A    between atoms: C_6  and  C_7
REMARK    5  A    between atoms: C_17  and  C_18
REMARK    6  A    between atoms: N_20  and  C_21
REMARK    7  A    between atoms: C_24  and  N_25
REMARK                            x       y       z     vdW  Elec       q    Type
REMARK                         _______ _______ _______ _____ _____    ______ ____
ROOT
ATOM      1  N   UNL     1      -0.263  13.234  19.936  0.00  0.00    +0.000 NA
ATOM      2  C   UNL     1      -1.521  12.478  20.118  0.00  0.00    +0.000 C 
ATOM      3  C   UNL     1      -1.547  12.047  21.577  0.00  0.00    +0.000 C 
ATOM      4  C   UNL     1      -0.084  11.664  21.817  0.00  0.00    +0.000 C 
ATOM      5  C   UNL     1       0.698  12.579  20.862  0.00  0.00    +0.000 C 
ENDROOT
BRANCH   3   6
ATOM      6  C   UNL     1      -1.974  13.166  22.507  0.00  0.00    +0.000 C 
ATOM      7  O   UNL     1      -1.314  13.452  23.508  0.00  0.00    +0.000 OA
ATOM      8  N   UNL     1      -3.135  13.813  22.145  0.00  0.00    +0.000 N 
ATOM      9  C   UNL     1      -3.605  14.900  22.890  0.00  0.00    +0.000 A 
ATOM     10  C   UNL     1      -2.745  15.912  23.314  0.00  0.00    +0.000 A 
ATOM     11  C   UNL     1      -3.234  16.913  24.148  0.00  0.00    +0.000 A 
ATOM     12  C   UNL     1      -4.561  16.859  24.543  0.00  0.00    +0.000 A 
ATOM     13 CL   UNL     1      -5.190  18.016  25.642  0.00  0.00    +0.000 Cl
ATOM     14  C   UNL     1      -5.357  15.841  24.036  0.00  0.00    +0.000 A 
ATOM     15  N   UNL     1      -4.918  14.881  23.182  0.00  0.00    +0.000 NA
ATOM     16  H   UNL     1      -3.869  13.257  21.726  0.00  0.00    +0.000 HD
ENDBRANCH   3   6
BRANCH   4  17
ATOM     17  C   UNL     1       0.127  10.187  21.525  0.00  0.00    +0.000 C 
ATOM     18  O   UNL     1      -0.593   9.341  22.052  0.00  0.00    +0.000 OA
ATOM     19  N   UNL     1       1.194   9.904  20.689  0.00  0.00    +0.000 N 
ATOM     20  H   UNL     1       1.886  10.626  20.517  0.00  0.00    +0.000 HD
BRANCH  19  21
ATOM     21  C   UNL     1       1.515   8.609  20.208  0.00  0.00    +0.000 A 
ATOM     22  C   UNL     1       1.456   7.477  21.010  0.00  0.00    +0.000 A 
ATOM     23  C   UNL     1       1.806   6.220  20.510  0.00  0.00    +0.000 A 
ATOM     24  C   UNL     1       2.194   6.026  19.180  0.00  0.00    +0.000 A 
ATOM     25  C   UNL     1       2.239   7.175  18.367  0.00  0.00    +0.000 A 
ATOM     26  C   UNL     1       1.895   8.438  18.877  0.00  0.00    +0.000 A 
ATOM     27  F   UNL     1       1.948   9.502  18.059  0.00  0.00    +0.000 F 
BRANCH  24  28
ATOM     28  N   UNL     1       2.543   4.704  18.687  0.00  0.00    +0.000 N 
ATOM     29  C   UNL     1       1.586   3.687  18.610  0.00  0.00    +0.000 A 
ATOM     30  C   UNL     1       1.869   2.463  18.148  0.00  0.00    +0.000 A 
ATOM     31  C   UNL     1       3.193   2.145  17.696  0.00  0.00    +0.000 A 
ATOM     32  C   UNL     1       4.154   3.070  17.743  0.00  0.00    +0.000 A 
ATOM     33  C   UNL     1       3.878   4.433  18.283  0.00  0.00    +0.000 A 
ATOM     34  O   UNL     1       4.854   5.179  18.360  0.00  0.00    +0.000 OA
ENDBRANCH  24  28
ENDBRANCH  19  21
ENDBRANCH   4  17
BRANCH   1  36
ATOM     35  C   UNL     1       0.569  15.323  21.110  0.00  0.00    +0.000 C 
ATOM     36  C   UNL     1      -0.426  14.697  20.121  0.00  0.00    +0.000 C 
ATOM     37  C   UNL     1      -0.259  15.454  18.789  0.00  0.00    +0.000 C 
ENDBRANCH   1  36
TORSDOF 5
ENDMDL
MODEL 7
REMARK VINA RESULT:      -7.9      2.433      2.850
REMARK  Name = 
REMARK  7 active torsions:
REMARK  status: ('A' for Active; 'I' for Inactive)
REMARK    1  A    between atoms: C_1  and  C_2
REMARK    2  A    between atoms: C_2  and  C_3
REMARK    3  A    between atoms: C_2  and  N_4
REMARK    4  A    between atoms: C_6  and  C_7
REMARK    5  A    between atoms: C_17  and  C_18
REMARK    6  A    between atoms: N_20  and  C_21
REMARK    7  A    between atoms: C_24  and  N_25
REMARK                            x       y       z     vdW  Elec       q    Type
REMARK                         _______ _______ _______ _____ _____    ______ ____
ROOT
ATOM      1  N   UNL     1       0.101  13.755  20.429  0.00  0.00    +0.000 NA
ATOM      2  C   UNL     1      -0.698  13.543  19.202  0.00  0.00    +0.000 C 
ATOM      3  C   UNL     1      -1.755  12.509  19.559  0.00  0.00    +0.000 C 
ATOM      4  C   UNL     1      -0.962  11.539  20.439  0.00  0.00    +0.000 C 
ATOM      5  C   UNL     1       0.102  12.429  21.101  0.00  0.00    +0.000 C 
ENDROOT
BRANCH   3   6
ATOM      6  C   UNL     1      -2.919  13.109  20.325  0.00  0.00    +0.000 C 
ATOM      7  O   UNL     1      -3.254  14.284  20.161  0.00  0.00    +0.000 OA
ATOM      8  N   UNL     1      -3.547  12.248  21.198  0.00  0.00    +0.000 N 
ATOM      9  C   UNL     1      -4.669  12.665  21.923  0.00  0.00    +0.000 A 
ATOM     10  C   UNL     1      -5.700  13.377  21.312  0.00  0.00    +0.000 A 
ATOM     11  C   UNL     1      -6.741  13.869  22.095  0.00  0.00    +0.000 A 
ATOM     12  C   UNL     1      -6.707  13.646  23.462  0.00  0.00    +0.000 A 
ATOM     13 CL   UNL     1      -7.915  14.308  24.483  0.00  0.00    +0.000 Cl
ATOM     14  C   UNL     1      -5.664  12.889  23.979  0.00  0.00    +0.000 A 
ATOM     15  N   UNL     1      -4.664  12.356  23.232  0.00  0.00    +0.000 NA
ATOM     16  H   UNL     1      -2.971  11.576  21.688  0.00  0.00    +0.000 HD
ENDBRANCH   3   6
BRANCH   4  17
ATOM     17  C   UNL     1      -0.361  10.431  19.591  0.00  0.00    +0.000 C 
ATOM     18  O   UNL     1      -0.913  10.077  18.550  0.00  0.00    +0.000 OA
ATOM     19  N   UNL     1       0.786   9.854  20.110  0.00  0.00    +0.000 N 
ATOM     20  H   UNL     1       1.018  10.019  21.084  0.00  0.00    +0.000 HD
BRANCH  19  21
ATOM     21  C   UNL     1       1.564   8.873  19.444  0.00  0.00    +0.000 A 
ATOM     22  C   UNL     1       2.051   9.053  18.156  0.00  0.00    +0.000 A 
ATOM     23  C   UNL     1       2.792   8.053  17.520  0.00  0.00    +0.000 A 
ATOM     24  C   UNL     1       3.113   6.845  18.149  0.00  0.00    +0.000 A 
ATOM     25  C   UNL     1       2.629   6.674  19.460  0.00  0.00    +0.000 A 
ATOM     26  C   UNL     1       1.876   7.679  20.092  0.00  0.00    +0.000 A 
ATOM     27  F   UNL     1       1.442   7.469  21.346  0.00  0.00    +0.000 F 
BRANCH  24  28
ATOM     28  N   UNL     1       3.893   5.829  17.464  0.00  0.00    +0.000 N 
ATOM     29  C   UNL     1       3.518   4.482  17.503  0.00  0.00    +0.000 A 
ATOM     30  C   UNL     1       4.206   3.522  16.872  0.00  0.00    +0.000 A 
ATOM     31  C   UNL     1       5.374   3.849  16.109  0.00  0.00    +0.000 A 
ATOM     32  C   UNL     1       5.788   5.115  16.030  0.00  0.00    +0.000 A 
ATOM     33  C   UNL     1       5.063   6.202  16.748  0.00  0.00    +0.000 A 
ATOM     34  O   UNL     1       5.578   7.318  16.679  0.00  0.00    +0.000 OA
ENDBRANCH  24  28
ENDBRANCH  19  21
ENDBRANCH   4  17
BRANCH   1  36
ATOM     35  C   UNL     1       0.483  15.189  22.487  0.00  0.00    +0.000 C 
ATOM     36  C   UNL     1      -0.387  14.886  21.256  0.00  0.00    +0.000 C 
ATOM     37  C   UNL     1      -0.462  16.190  20.438  0.00  0.00    +0.000 C 
ENDBRANCH   1  36
TORSDOF 5
ENDMDL
MODEL 8
REMARK VINA RESULT:      -7.9      1.410      1.761
REMARK  Name = 
REMARK  7 active torsions:
REMARK  status: ('A' for Active; 'I' for Inactive)
REMARK    1  A    between atoms: C_1  and  C_2
REMARK    2  A    between atoms: C_2  and  C_3
REMARK    3  A    between atoms: C_2  and  N_4
REMARK    4  A    between atoms: C_6  and  C_7
REMARK    5  A    between atoms: C_17  and  C_18
REMARK    6  A    between atoms: N_20  and  C_21
REMARK    7  A    between atoms: C_24  and  N_25
REMARK                            x       y       z     vdW  Elec       q    Type
REMARK                         _______ _______ _______ _____ _____    ______ ____
ROOT
ATOM      1  N   UNL     1       0.809  13.825  18.661  0.00  0.00    +0.000 NA
ATOM      2  C   UNL     1      -0.537  13.265  18.404  0.00  0.00    +0.000 C 
ATOM      3  C   UNL     1      -0.996  12.647  19.716  0.00  0.00    +0.000 C 
ATOM      4  C   UNL     1       0.295  12.002  20.229  0.00  0.00    +0.000 C 
ATOM      5  C   UNL     1       1.405  12.901  19.662  0.00  0.00    +0.000 C 
ENDROOT
BRANCH   3   6
ATOM      6  C   UNL     1      -1.512  13.683  20.696  0.00  0.00    +0.000 C 
ATOM      7  O   UNL     1      -2.440  14.437  20.400  0.00  0.00    +0.000 OA
ATOM      8  N   UNL     1      -0.864  13.706  21.913  0.00  0.00    +0.000 N 
ATOM      9  C   UNL     1      -1.282  14.578  22.923  0.00  0.00    +0.000 A 
ATOM     10  C   UNL     1      -2.633  14.735  23.230  0.00  0.00    +0.000 A 
ATOM     11  C   UNL     1      -3.010  15.696  24.163  0.00  0.00    +0.000 A 
ATOM     12  C   UNL     1      -2.026  16.478  24.746  0.00  0.00    +0.000 A 
ATOM     13 CL   UNL     1      -2.443  17.737  25.833  0.00  0.00    +0.000 Cl
ATOM     14  C   UNL     1      -0.702  16.224  24.415  0.00  0.00    +0.000 A 
ATOM     15  N   UNL     1      -0.303  15.260  23.546  0.00  0.00    +0.000 NA
ATOM     16  H   UNL     1       0.131  13.524  21.916  0.00  0.00    +0.000 HD
ENDBRANCH   3   6
BRANCH   4  17
ATOM     17  C   UNL     1       0.393  10.565  19.743  0.00  0.00    +0.000 C 
ATOM     18  O   UNL     1      -0.428  10.123  18.941  0.00  0.00    +0.000 OA
ATOM     19  N   UNL     1       1.419   9.827  20.308  0.00  0.00    +0.000 N 
ATOM     20  H   UNL     1       1.875  10.181  21.143  0.00  0.00    +0.000 HD
BRANCH  19  21
ATOM     21  C   UNL     1       1.754   8.500  19.934  0.00  0.00    +0.000 A 
ATOM     22  C   UNL     1       2.294   8.187  18.693  0.00  0.00    +0.000 A 
ATOM     23  C   UNL     1       2.587   6.865  18.348  0.00  0.00    +0.000 A 
ATOM     24  C   UNL     1       2.391   5.800  19.234  0.00  0.00    +0.000 A 
ATOM     25  C   UNL     1       1.858   6.125  20.495  0.00  0.00    +0.000 A 
ATOM     26  C   UNL     1       1.556   7.455  20.835  0.00  0.00    +0.000 A 
ATOM     27  F   UNL     1       1.053   7.714  22.053  0.00  0.00    +0.000 F 
BRANCH  24  28
ATOM     28  N   UNL     1       2.715   4.436  18.849  0.00  0.00    +0.000 N 
ATOM     29  C   UNL     1       3.817   3.774  19.397  0.00  0.00    +0.000 A 
ATOM     30  C   UNL     1       4.136   2.514  19.075  0.00  0.00    +0.000 A 
ATOM     31  C   UNL     1       3.334   1.778  18.142  0.00  0.00    +0.000 A 
ATOM     32  C   UNL     1       2.268   2.351  17.581  0.00  0.00    +0.000 A 
ATOM     33  C   UNL     1       1.906   3.763  17.894  0.00  0.00    +0.000 A 
ATOM     34  O   UNL     1       0.956   4.220  17.258  0.00  0.00    +0.000 OA
ENDBRANCH  24  28
ENDBRANCH  19  21
ENDBRANCH   4  17
BRANCH   1  36
ATOM     35  C   UNL     1       2.124  15.983  18.875  0.00  0.00    +0.000 C 
ATOM     36  C   UNL     1       0.783  15.255  19.054  0.00  0.00    +0.000 C 
ATOM     37  C   UNL     1      -0.258  16.043  18.235  0.00  0.00    +0.000 C 
ENDBRANCH   1  36
TORSDOF 5
ENDMDL
MODEL 9
REMARK VINA RESULT:      -7.8      1.796      2.187
REMARK  Name = 
REMARK  7 active torsions:
REMARK  status: ('A' for Active; 'I' for Inactive)
REMARK    1  A    between atoms: C_1  and  C_2
REMARK    2  A    between atoms: C_2  and  C_3
REMARK    3  A    between atoms: C_2  and  N_4
REMARK    4  A    between atoms: C_6  and  C_7
REMARK    5  A    between atoms: C_17  and  C_18
REMARK    6  A    between atoms: N_20  and  C_21
REMARK    7  A    between atoms: C_24  and  N_25
REMARK                            x       y       z     vdW  Elec       q    Type
REMARK                         _______ _______ _______ _____ _____    ______ ____
ROOT
ATOM      1  N   UNL     1       0.629  14.506  18.630  0.00  0.00    +0.000 NA
ATOM      2  C   UNL     1      -0.495  13.569  18.410  0.00  0.00    +0.000 C 
ATOM      3  C   UNL     1      -0.603  12.733  19.676  0.00  0.00    +0.000 C 
ATOM      4  C   UNL     1       0.869  12.494  20.021  0.00  0.00    +0.000 C 
ATOM      5  C   UNL     1       1.582  13.743  19.479  0.00  0.00    +0.000 C 
ENDROOT
BRANCH   3   6
ATOM      6  C   UNL     1      -1.312  13.466  20.798  0.00  0.00    +0.000 C 
ATOM      7  O   UNL     1      -0.917  13.386  21.963  0.00  0.00    +0.000 OA
ATOM      8  N   UNL     1      -2.407  14.207  20.411  0.00  0.00    +0.000 N 
ATOM      9  C   UNL     1      -3.113  14.974  21.343  0.00  0.00    +0.000 A 
ATOM     10  C   UNL     1      -2.449  15.772  22.274  0.00  0.00    +0.000 A 
ATOM     11  C   UNL     1      -3.187  16.427  23.255  0.00  0.00    +0.000 A 
ATOM     12  C   UNL     1      -4.561  16.251  23.282  0.00  0.00    +0.000 A 
ATOM     13 CL   UNL     1      -5.506  16.962  24.523  0.00  0.00    +0.000 Cl
ATOM     14  C   UNL     1      -5.144  15.474  22.290  0.00  0.00    +0.000 A 
ATOM     15  N   UNL     1      -4.453  14.864  21.293  0.00  0.00    +0.000 NA
ATOM     16  H   UNL     1      -2.984  13.833  19.668  0.00  0.00    +0.000 HD
ENDBRANCH   3   6
BRANCH   4  17
ATOM     17  C   UNL     1       1.359  11.208  19.376  0.00  0.00    +0.000 C 
ATOM     18  O   UNL     1       1.909  11.235  18.277  0.00  0.00    +0.000 OA
ATOM     19  N   UNL     1       1.087  10.055  20.094  0.00  0.00    +0.000 N 
ATOM     20  H   UNL     1       0.407  10.095  20.845  0.00  0.00    +0.000 HD
BRANCH  19  21
ATOM     21  C   UNL     1       1.534   8.759  19.729  0.00  0.00    +0.000 A 
ATOM     22  C   UNL     1       2.012   8.462  18.459  0.00  0.00    +0.000 A 
ATOM     23  C   UNL     1       2.419   7.167  18.127  0.00  0.00    +0.000 A 
ATOM     24  C   UNL     1       2.402   6.118  19.053  0.00  0.00    +0.000 A 
ATOM     25  C   UNL     1       1.930   6.427  20.342  0.00  0.00    +0.000 A 
ATOM     26  C   UNL     1       1.514   7.729  20.669  0.00  0.00    +0.000 A 
ATOM     27  F   UNL     1       1.076   7.974  21.915  0.00  0.00    +0.000 F 
BRANCH  24  28
ATOM     28  N   UNL     1       2.841   4.783  18.679  0.00  0.00    +0.000 N 
ATOM     29  C   UNL     1       4.062   4.272  19.130  0.00  0.00    +0.000 A 
ATOM     30  C   UNL     1       4.490   3.043  18.817  0.00  0.00    +0.000 A 
ATOM     31  C   UNL     1       3.689   2.182  17.996  0.00  0.00    +0.000 A 
ATOM     32  C   UNL     1       2.513   2.608  17.532  0.00  0.00    +0.000 A 
ATOM     33  C   UNL     1       2.024   3.984  17.835  0.00  0.00    +0.000 A 
ATOM     34  O   UNL     1       0.969   4.304  17.288  0.00  0.00    +0.000 OA
ENDBRANCH  24  28
ENDBRANCH  19  21
ENDBRANCH   4  17
BRANCH   1  36
ATOM     35  C   UNL     1       1.329  16.625  19.836  0.00  0.00    +0.000 C 
ATOM     36  C   UNL     1       0.200  15.817  19.177  0.00  0.00    +0.000 C 
ATOM     37  C   UNL     1      -0.401  16.714  18.079  0.00  0.00    +0.000 C 
ENDBRANCH   1  36
TORSDOF 5
ENDMDL
