MODEL 1
REMARK VINA RESULT:      -7.4      0.000      0.000
REMARK  Name = 
REMARK  8 active torsions:
REMARK  status: ('A' for Active; 'I' for Inactive)
REMARK    1  A    between atoms: C_1  and  O_2
REMARK    2  A    between atoms: O_2  and  C_3
REMARK    3  A    between atoms: C_3  and  C_4
REMARK    4  A    between atoms: C_4  and  N_5
REMARK    5  A    between atoms: N_12  and  S_13
REMARK    6  A    between atoms: S_13  and  C_16
REMARK    7  A    between atoms: C_16  and  C_17
REMARK    8  A    between atoms: C_17  and  C_18
REMARK                            x       y       z     vdW  Elec       q    Type
REMARK                         _______ _______ _______ _____ _____    ______ ____
ROOT
ATOM      1  N   UNL     1       6.172   4.860  14.331  0.00  0.00    +0.000 N 
ATOM      2  N   UNL     1       7.499   4.990  14.112  0.00  0.00    +0.000 NA
ATOM      3  N   UNL     1       8.010   5.708  15.111  0.00  0.00    +0.000 NA
ATOM      4  C   UNL     1       6.984   6.057  15.933  0.00  0.00    +0.000 A 
ATOM      5  C   UNL     1       5.796   5.596  15.411  0.00  0.00    +0.000 A 
ATOM      6  C   UNL     1       4.468   5.755  16.046  0.00  0.00    +0.000 C 
ATOM      7  C   UNL     1       4.596   6.753  17.222  0.00  0.00    +0.000 C 
ATOM      8  N   UNL     1       5.842   6.524  18.049  0.00  0.00    +0.000 NA
ATOM      9  C   UNL     1       7.105   6.758  17.239  0.00  0.00    +0.000 C 
ENDROOT
BRANCH   8  10
ATOM     10  S   UNL     1       5.828   5.085  18.974  0.00  0.00    +0.000 S 
ATOM     11  O   UNL     1       5.831   3.983  18.030  0.00  0.00    +0.000 OA
ATOM     12  O   UNL     1       6.847   5.197  19.993  0.00  0.00    +0.000 OA
BRANCH  10  13
ATOM     13  C   UNL     1       4.196   5.178  19.719  0.00  0.00    +0.000 C 
BRANCH  13  14
ATOM     14  C   UNL     1       3.350   3.872  19.704  0.00  0.00    +0.000 C 
ATOM     15  C   UNL     1       4.226   2.659  20.083  0.00  0.00    +0.000 C 
ATOM     16  C   UNL     1       2.228   4.047  20.766  0.00  0.00    +0.000 C 
ATOM     17  C   UNL     1       1.220   2.898  20.797  0.00  0.00    +0.000 C 
ATOM     18  C   UNL     1       0.620   2.620  19.423  0.00  0.00    +0.000 C 
ATOM     19  C   UNL     1       1.674   2.484  18.330  0.00  0.00    +0.000 C 
ATOM     20  C   UNL     1       2.673   3.642  18.331  0.00  0.00    +0.000 C 
ENDBRANCH  13  14
ENDBRANCH  10  13
ENDBRANCH   8  10
BRANCH   1  21
ATOM     21  C   UNL     1       5.385   3.937  13.548  0.00  0.00    +0.000 C 
BRANCH  21  22
ATOM     22  C   UNL     1       6.177   3.324  12.403  0.00  0.00    +0.000 C 
BRANCH  22  24
ATOM     23  C   UNL     1       4.105   3.192  11.293  0.00  0.00    +0.000 C 
ATOM     24  O   UNL     1       5.309   2.508  11.613  0.00  0.00    +0.000 OA
ENDBRANCH  22  24
ENDBRANCH  21  22
ENDBRANCH   1  21
TORSDOF 6
ENDMDL
MODEL 2
REMARK VINA RESULT:      -6.8      0.687      1.273
REMARK  Name = 
REMARK  8 active torsions:
REMARK  status: ('A' for Active; 'I' for Inactive)
REMARK    1  A    between atoms: C_1  and  O_2
REMARK    2  A    between atoms: O_2  and  C_3
REMARK    3  A    between atoms: C_3  and  C_4
REMARK    4  A    between atoms: C_4  and  N_5
REMARK    5  A    between atoms: N_12  and  S_13
REMARK    6  A    between atoms: S_13  and  C_16
REMARK    7  A    between atoms: C_16  and  C_17
REMARK    8  A    between atoms: C_17  and  C_18
REMARK                            x       y       z     vdW  Elec       q    Type
REMARK                         _______ _______ _______ _____ _____    ______ ____
ROOT
ATOM      1  N   UNL     1       6.156   4.687  14.346  0.00  0.00    +0.000 N 
ATOM      2  N   UNL     1       7.491   4.504  14.257  0.00  0.00    +0.000 NA
ATOM      3  N   UNL     1       8.059   5.121  15.292  0.00  0.00    +0.000 NA
ATOM      4  C   UNL     1       7.068   5.721  16.006  0.00  0.00    +0.000 A 
ATOM      5  C   UNL     1       5.860   5.525  15.376  0.00  0.00    +0.000 A 
ATOM      6  C   UNL     1       4.551   6.003  15.876  0.00  0.00    +0.000 C 
ATOM      7  C   UNL     1       4.795   6.985  17.047  0.00  0.00    +0.000 C 
ATOM      8  N   UNL     1       5.873   6.507  17.994  0.00  0.00    +0.000 NA
ATOM      9  C   UNL     1       7.226   6.421  17.309  0.00  0.00    +0.000 C 
ENDROOT
BRANCH   8  10
ATOM     10  S   UNL     1       5.443   5.142  18.930  0.00  0.00    +0.000 S 
ATOM     11  O   UNL     1       5.152   4.072  17.996  0.00  0.00    +0.000 OA
ATOM     12  O   UNL     1       6.438   4.977  19.966  0.00  0.00    +0.000 OA
BRANCH  10  13
ATOM     13  C   UNL     1       3.893   5.697  19.647  0.00  0.00    +0.000 C 
BRANCH  13  14
ATOM     14  C   UNL     1       2.742   4.651  19.707  0.00  0.00    +0.000 C 
ATOM     15  C   UNL     1       1.658   5.102  20.709  0.00  0.00    +0.000 C 
ATOM     16  C   UNL     1       2.125   4.574  18.283  0.00  0.00    +0.000 C 
ATOM     17  C   UNL     1       1.053   3.494  18.129  0.00  0.00    +0.000 C 
ATOM     18  C   UNL     1       1.548   2.123  18.576  0.00  0.00    +0.000 C 
ATOM     19  C   UNL     1       2.205   2.146  19.950  0.00  0.00    +0.000 C 
ATOM     20  C   UNL     1       3.265   3.242  20.076  0.00  0.00    +0.000 C 
ENDBRANCH  13  14
ENDBRANCH  10  13
ENDBRANCH   8  10
BRANCH   1  21
ATOM     21  C   UNL     1       5.254   3.940  13.501  0.00  0.00    +0.000 C 
BRANCH  21  22
ATOM     22  C   UNL     1       5.942   3.384  12.265  0.00  0.00    +0.000 C 
BRANCH  22  24
ATOM     23  C   UNL     1       3.912   3.172  11.093  0.00  0.00    +0.000 C 
ATOM     24  O   UNL     1       5.054   2.489  11.592  0.00  0.00    +0.000 OA
ENDBRANCH  22  24
ENDBRANCH  21  22
ENDBRANCH   1  21
TORSDOF 6
ENDMDL
MODEL 3
REMARK VINA RESULT:      -6.7      3.573      6.606
REMARK  Name = 
REMARK  8 active torsions:
REMARK  status: ('A' for Active; 'I' for Inactive)
REMARK    1  A    between atoms: C_1  and  O_2
REMARK    2  A    between atoms: O_2  and  C_3
REMARK    3  A    between atoms: C_3  and  C_4
REMARK    4  A    between atoms: C_4  and  N_5
REMARK    5  A    between atoms: N_12  and  S_13
REMARK    6  A    between atoms: S_13  and  C_16
REMARK    7  A    between atoms: C_16  and  C_17
REMARK    8  A    between atoms: C_17  and  C_18
REMARK                            x       y       z     vdW  Elec       q    Type
REMARK                         _______ _______ _______ _____ _____    ______ ____
ROOT
ATOM      1  N   UNL     1       3.971   1.967  19.964  0.00  0.00    +0.000 N 
ATOM      2  N   UNL     1       4.143   1.220  18.852  0.00  0.00    +0.000 NA
ATOM      3  N   UNL     1       3.434   1.777  17.871  0.00  0.00    +0.000 NA
ATOM      4  C   UNL     1       2.789   2.856  18.392  0.00  0.00    +0.000 A 
ATOM      5  C   UNL     1       3.054   2.946  19.741  0.00  0.00    +0.000 A 
ATOM      6  C   UNL     1       2.552   4.011  20.638  0.00  0.00    +0.000 C 
ATOM      7  C   UNL     1       1.472   4.826  19.886  0.00  0.00    +0.000 C 
ATOM      8  N   UNL     1       1.855   5.118  18.452  0.00  0.00    +0.000 NA
ATOM      9  C   UNL     1       1.980   3.846  17.633  0.00  0.00    +0.000 C 
ENDROOT
BRANCH   8  10
ATOM     10  S   UNL     1       3.142   6.230  18.272  0.00  0.00    +0.000 S 
ATOM     11  O   UNL     1       2.569   7.446  17.727  0.00  0.00    +0.000 OA
ATOM     12  O   UNL     1       3.894   6.248  19.506  0.00  0.00    +0.000 OA
BRANCH  10  13
ATOM     13  C   UNL     1       4.099   5.434  16.978  0.00  0.00    +0.000 C 
BRANCH  13  14
ATOM     14  C   UNL     1       5.646   5.568  17.075  0.00  0.00    +0.000 C 
ATOM     15  C   UNL     1       6.314   5.030  15.792  0.00  0.00    +0.000 C 
ATOM     16  C   UNL     1       5.961   7.083  17.222  0.00  0.00    +0.000 C 
ATOM     17  C   UNL     1       7.441   7.389  17.457  0.00  0.00    +0.000 C 
ATOM     18  C   UNL     1       8.010   6.606  18.635  0.00  0.00    +0.000 C 
ATOM     19  C   UNL     1       7.693   5.117  18.569  0.00  0.00    +0.000 C 
ATOM     20  C   UNL     1       6.208   4.844  18.322  0.00  0.00    +0.000 C 
ENDBRANCH  13  14
ENDBRANCH  10  13
ENDBRANCH   8  10
BRANCH   1  21
ATOM     21  C   UNL     1       4.798   1.752  21.129  0.00  0.00    +0.000 C 
BRANCH  21  22
ATOM     22  C   UNL     1       5.560   0.438  21.065  0.00  0.00    +0.000 C 
BRANCH  22  24
ATOM     23  C   UNL     1       6.719  -1.071  22.453  0.00  0.00    +0.000 C 
ATOM     24  O   UNL     1       6.334   0.283  22.257  0.00  0.00    +0.000 OA
ENDBRANCH  22  24
ENDBRANCH  21  22
ENDBRANCH   1  21
TORSDOF 6
ENDMDL
MODEL 4
REMARK VINA RESULT:      -6.3      0.739      1.324
REMARK  Name = 
REMARK  8 active torsions:
REMARK  status: ('A' for Active; 'I' for Inactive)
REMARK    1  A    between atoms: C_1  and  O_2
REMARK    2  A    between atoms: O_2  and  C_3
REMARK    3  A    between atoms: C_3  and  C_4
REMARK    4  A    between atoms: C_4  and  N_5
REMARK    5  A    between atoms: N_12  and  S_13
REMARK    6  A    between atoms: S_13  and  C_16
REMARK    7  A    between atoms: C_16  and  C_17
REMARK    8  A    between atoms: C_17  and  C_18
REMARK                            x       y       z     vdW  Elec       q    Type
REMARK                         _______ _______ _______ _____ _____    ______ ____
ROOT
ATOM      1  N   UNL     1       6.046   4.678  14.020  0.00  0.00    +0.000 N 
ATOM      2  N   UNL     1       7.346   4.859  13.702  0.00  0.00    +0.000 NA
ATOM      3  N   UNL     1       7.910   5.575  14.674  0.00  0.00    +0.000 NA
ATOM      4  C   UNL     1       6.940   5.870  15.582  0.00  0.00    +0.000 A 
ATOM      5  C   UNL     1       5.731   5.378  15.144  0.00  0.00    +0.000 A 
ATOM      6  C   UNL     1       4.453   5.476  15.884  0.00  0.00    +0.000 C 
ATOM      7  C   UNL     1       4.639   6.454  17.069  0.00  0.00    +0.000 C 
ATOM      8  N   UNL     1       5.953   6.253  17.790  0.00  0.00    +0.000 NA
ATOM      9  C   UNL     1       7.140   6.549  16.890  0.00  0.00    +0.000 C 
ENDROOT
BRANCH   8  10
ATOM     10  S   UNL     1       6.060   4.796  18.680  0.00  0.00    +0.000 S 
ATOM     11  O   UNL     1       7.112   4.009  18.065  0.00  0.00    +0.000 OA
ATOM     12  O   UNL     1       6.105   5.132  20.085  0.00  0.00    +0.000 OA
BRANCH  10  13
ATOM     13  C   UNL     1       4.484   4.035  18.277  0.00  0.00    +0.000 C 
BRANCH  13  14
ATOM     14  C   UNL     1       3.397   4.057  19.389  0.00  0.00    +0.000 C 
ATOM     15  C   UNL     1       3.289   5.467  20.009  0.00  0.00    +0.000 C 
ATOM     16  C   UNL     1       2.047   3.689  18.711  0.00  0.00    +0.000 C 
ATOM     17  C   UNL     1       0.882   3.541  19.690  0.00  0.00    +0.000 C 
ATOM     18  C   UNL     1       1.199   2.566  20.819  0.00  0.00    +0.000 C 
ATOM     19  C   UNL     1       2.536   2.851  21.493  0.00  0.00    +0.000 C 
ATOM     20  C   UNL     1       3.678   3.004  20.489  0.00  0.00    +0.000 C 
ENDBRANCH  13  14
ENDBRANCH  10  13
ENDBRANCH   8  10
BRANCH   1  21
ATOM     21  C   UNL     1       5.231   3.743  13.280  0.00  0.00    +0.000 C 
BRANCH  21  22
ATOM     22  C   UNL     1       6.009   3.039  12.180  0.00  0.00    +0.000 C 
BRANCH  22  24
ATOM     23  C   UNL     1       3.916   3.130  11.107  0.00  0.00    +0.000 C 
ATOM     24  O   UNL     1       5.095   2.364  11.313  0.00  0.00    +0.000 OA
ENDBRANCH  22  24
ENDBRANCH  21  22
ENDBRANCH   1  21
TORSDOF 6
ENDMDL
MODEL 5
REMARK VINA RESULT:      -6.3      0.948      1.217
REMARK  Name = 
REMARK  8 active torsions:
REMARK  status: ('A' for Active; 'I' for Inactive)
REMARK    1  A    between atoms: C_1  and  O_2
REMARK    2  A    between atoms: O_2  and  C_3
REMARK    3  A    between atoms: C_3  and  C_4
REMARK    4  A    between atoms: C_4  and  N_5
REMARK    5  A    between atoms: N_12  and  S_13
REMARK    6  A    between atoms: S_13  and  C_16
REMARK    7  A    between atoms: C_16  and  C_17
REMARK    8  A    between atoms: C_17  and  C_18
REMARK                            x       y       z     vdW  Elec       q    Type
REMARK                         _______ _______ _______ _____ _____    ______ ____
ROOT
ATOM      1  N   UNL     1       6.011   4.527  13.999  0.00  0.00    +0.000 N 
ATOM      2  N   UNL     1       7.288   4.769  13.631  0.00  0.00    +0.000 NA
ATOM      3  N   UNL     1       7.845   5.536  14.566  0.00  0.00    +0.000 NA
ATOM      4  C   UNL     1       6.894   5.799  15.503  0.00  0.00    +0.000 A 
ATOM      5  C   UNL     1       5.698   5.234  15.119  0.00  0.00    +0.000 A 
ATOM      6  C   UNL     1       4.443   5.282  15.902  0.00  0.00    +0.000 C 
ATOM      7  C   UNL     1       4.618   6.295  17.059  0.00  0.00    +0.000 C 
ATOM      8  N   UNL     1       5.966   6.180  17.736  0.00  0.00    +0.000 NA
ATOM      9  C   UNL     1       7.102   6.517  16.788  0.00  0.00    +0.000 C 
ENDROOT
BRANCH   8  10
ATOM     10  S   UNL     1       6.182   4.751  18.652  0.00  0.00    +0.000 S 
ATOM     11  O   UNL     1       7.379   4.108  18.144  0.00  0.00    +0.000 OA
ATOM     12  O   UNL     1       6.055   5.092  20.051  0.00  0.00    +0.000 OA
BRANCH  10  13
ATOM     13  C   UNL     1       4.761   3.789  18.120  0.00  0.00    +0.000 C 
BRANCH  13  14
ATOM     14  C   UNL     1       3.717   3.428  19.216  0.00  0.00    +0.000 C 
ATOM     15  C   UNL     1       4.325   2.441  20.234  0.00  0.00    +0.000 C 
ATOM     16  C   UNL     1       3.346   4.752  19.941  0.00  0.00    +0.000 C 
ATOM     17  C   UNL     1       2.229   4.600  20.975  0.00  0.00    +0.000 C 
ATOM     18  C   UNL     1       0.985   3.945  20.385  0.00  0.00    +0.000 C 
ATOM     19  C   UNL     1       1.293   2.663  19.620  0.00  0.00    +0.000 C 
ATOM     20  C   UNL     1       2.421   2.844  18.603  0.00  0.00    +0.000 C 
ENDBRANCH  13  14
ENDBRANCH  10  13
ENDBRANCH   8  10
BRANCH   1  21
ATOM     21  C   UNL     1       5.222   3.534  13.308  0.00  0.00    +0.000 C 
BRANCH  21  22
ATOM     22  C   UNL     1       5.686   3.316  11.877  0.00  0.00    +0.000 C 
BRANCH  22  24
ATOM     23  C   UNL     1       7.013   1.552  11.058  0.00  0.00    +0.000 C 
ATOM     24  O   UNL     1       5.755   1.913  11.611  0.00  0.00    +0.000 OA
ENDBRANCH  22  24
ENDBRANCH  21  22
ENDBRANCH   1  21
TORSDOF 6
ENDMDL
MODEL 6
REMARK VINA RESULT:      -6.2      0.982      1.456
REMARK  Name = 
REMARK  8 active torsions:
REMARK  status: ('A' for Active; 'I' for Inactive)
REMARK    1  A    between atoms: C_1  and  O_2
REMARK    2  A    between atoms: O_2  and  C_3
REMARK    3  A    between atoms: C_3  and  C_4
REMARK    4  A    between atoms: C_4  and  N_5
REMARK    5  A    between atoms: N_12  and  S_13
REMARK    6  A    between atoms: S_13  and  C_16
REMARK    7  A    between atoms: C_16  and  C_17
REMARK    8  A    between atoms: C_17  and  C_18
REMARK                            x       y       z     vdW  Elec       q    Type
REMARK                         _______ _______ _______ _____ _____    ______ ____
ROOT
ATOM      1  N   UNL     1       6.204   4.751  14.157  0.00  0.00    +0.000 N 
ATOM      2  N   UNL     1       7.531   4.941  13.991  0.00  0.00    +0.000 NA
ATOM      3  N   UNL     1       7.973   5.663  15.020  0.00  0.00    +0.000 NA
ATOM      4  C   UNL     1       6.903   5.951  15.810  0.00  0.00    +0.000 A 
ATOM      5  C   UNL     1       5.756   5.449  15.236  0.00  0.00    +0.000 A 
ATOM      6  C   UNL     1       4.401   5.539  15.823  0.00  0.00    +0.000 C 
ATOM      7  C   UNL     1       4.442   6.519  17.021  0.00  0.00    +0.000 C 
ATOM      8  N   UNL     1       5.666   6.328  17.889  0.00  0.00    +0.000 NA
ATOM      9  C   UNL     1       6.946   6.632  17.131  0.00  0.00    +0.000 C 
ENDROOT
BRANCH   8  10
ATOM     10  S   UNL     1       5.680   4.873  18.788  0.00  0.00    +0.000 S 
ATOM     11  O   UNL     1       6.957   4.237  18.528  0.00  0.00    +0.000 OA
ATOM     12  O   UNL     1       5.258   5.176  20.137  0.00  0.00    +0.000 OA
BRANCH  10  13
ATOM     13  C   UNL     1       4.405   3.937  17.938  0.00  0.00    +0.000 C 
BRANCH  13  14
ATOM     14  C   UNL     1       3.209   3.447  18.804  0.00  0.00    +0.000 C 
ATOM     15  C   UNL     1       2.383   2.394  18.035  0.00  0.00    +0.000 C 
ATOM     16  C   UNL     1       3.811   2.796  20.081  0.00  0.00    +0.000 C 
ATOM     17  C   UNL     1       2.764   2.367  21.110  0.00  0.00    +0.000 C 
ATOM     18  C   UNL     1       1.822   3.508  21.482  0.00  0.00    +0.000 C 
ATOM     19  C   UNL     1       1.235   4.215  20.266  0.00  0.00    +0.000 C 
ATOM     20  C   UNL     1       2.304   4.621  19.251  0.00  0.00    +0.000 C 
ENDBRANCH  13  14
ENDBRANCH  10  13
ENDBRANCH   8  10
BRANCH   1  21
ATOM     21  C   UNL     1       5.487   3.809  13.330  0.00  0.00    +0.000 C 
BRANCH  21  22
ATOM     22  C   UNL     1       6.341   3.264  12.197  0.00  0.00    +0.000 C 
BRANCH  22  24
ATOM     23  C   UNL     1       6.474   1.166  11.136  0.00  0.00    +0.000 C 
ATOM     24  O   UNL     1       5.619   2.237  11.513  0.00  0.00    +0.000 OA
ENDBRANCH  22  24
ENDBRANCH  21  22
ENDBRANCH   1  21
TORSDOF 6
ENDMDL
MODEL 7
REMARK VINA RESULT:      -6.2      0.737      1.290
REMARK  Name = 
REMARK  8 active torsions:
REMARK  status: ('A' for Active; 'I' for Inactive)
REMARK    1  A    between atoms: C_1  and  O_2
REMARK    2  A    between atoms: O_2  and  C_3
REMARK    3  A    between atoms: C_3  and  C_4
REMARK    4  A    between atoms: C_4  and  N_5
REMARK    5  A    between atoms: N_12  and  S_13
REMARK    6  A    between atoms: S_13  and  C_16
REMARK    7  A    between atoms: C_16  and  C_17
REMARK    8  A    between atoms: C_17  and  C_18
REMARK                            x       y       z     vdW  Elec       q    Type
REMARK                         _______ _______ _______ _____ _____    ______ ____
ROOT
ATOM      1  N   UNL     1       6.203   4.718  14.277  0.00  0.00    +0.000 N 
ATOM      2  N   UNL     1       7.534   4.526  14.148  0.00  0.00    +0.000 NA
ATOM      3  N   UNL     1       8.138   5.154  15.156  0.00  0.00    +0.000 NA
ATOM      4  C   UNL     1       7.175   5.770  15.893  0.00  0.00    +0.000 A 
ATOM      5  C   UNL     1       5.945   5.573  15.304  0.00  0.00    +0.000 A 
ATOM      6  C   UNL     1       4.656   6.066  15.839  0.00  0.00    +0.000 C 
ATOM      7  C   UNL     1       4.943   7.062  16.988  0.00  0.00    +0.000 C 
ATOM      8  N   UNL     1       6.049   6.591  17.906  0.00  0.00    +0.000 NA
ATOM      9  C   UNL     1       7.378   6.487  17.180  0.00  0.00    +0.000 C 
ENDROOT
BRANCH   8  10
ATOM     10  S   UNL     1       5.641   5.241  18.875  0.00  0.00    +0.000 S 
ATOM     11  O   UNL     1       5.457   4.121  17.972  0.00  0.00    +0.000 OA
ATOM     12  O   UNL     1       6.586   5.172  19.967  0.00  0.00    +0.000 OA
BRANCH  10  13
ATOM     13  C   UNL     1       4.027   5.738  19.486  0.00  0.00    +0.000 C 
BRANCH  13  14
ATOM     14  C   UNL     1       2.902   4.664  19.430  0.00  0.00    +0.000 C 
ATOM     15  C   UNL     1       2.291   4.599  18.015  0.00  0.00    +0.000 C 
ATOM     16  C   UNL     1       3.563   3.298  19.768  0.00  0.00    +0.000 C 
ATOM     17  C   UNL     1       2.570   2.140  19.880  0.00  0.00    +0.000 C 
ATOM     18  C   UNL     1       1.439   2.445  20.856  0.00  0.00    +0.000 C 
ATOM     19  C   UNL     1       0.781   3.796  20.601  0.00  0.00    +0.000 C 
ATOM     20  C   UNL     1       1.800   4.931  20.484  0.00  0.00    +0.000 C 
ENDBRANCH  13  14
ENDBRANCH  10  13
ENDBRANCH   8  10
BRANCH   1  21
ATOM     21  C   UNL     1       5.270   3.966  13.472  0.00  0.00    +0.000 C 
BRANCH  21  22
ATOM     22  C   UNL     1       5.961   3.161  12.382  0.00  0.00    +0.000 C 
BRANCH  22  24
ATOM     23  C   UNL     1       3.868   3.253  11.307  0.00  0.00    +0.000 C 
ATOM     24  O   UNL     1       5.276   3.360  11.143  0.00  0.00    +0.000 OA
ENDBRANCH  22  24
ENDBRANCH  21  22
ENDBRANCH   1  21
TORSDOF 6
ENDMDL
MODEL 8
REMARK VINA RESULT:      -6.1      3.036      5.249
REMARK  Name = 
REMARK  8 active torsions:
REMARK  status: ('A' for Active; 'I' for Inactive)
REMARK    1  A    between atoms: C_1  and  O_2
REMARK    2  A    between atoms: O_2  and  C_3
REMARK    3  A    between atoms: C_3  and  C_4
REMARK    4  A    between atoms: C_4  and  N_5
REMARK    5  A    between atoms: N_12  and  S_13
REMARK    6  A    between atoms: S_13  and  C_16
REMARK    7  A    between atoms: C_16  and  C_17
REMARK    8  A    between atoms: C_17  and  C_18
REMARK                            x       y       z     vdW  Elec       q    Type
REMARK                         _______ _______ _______ _____ _____    ______ ____
ROOT
ATOM      1  N   UNL     1       3.682   2.705  18.242  0.00  0.00    +0.000 N 
ATOM      2  N   UNL     1       4.089   2.592  19.525  0.00  0.00    +0.000 NA
ATOM      3  N   UNL     1       5.243   3.246  19.648  0.00  0.00    +0.000 NA
ATOM      4  C   UNL     1       5.571   3.735  18.421  0.00  0.00    +0.000 A 
ATOM      5  C   UNL     1       4.632   3.333  17.497  0.00  0.00    +0.000 A 
ATOM      6  C   UNL     1       4.636   3.700  16.063  0.00  0.00    +0.000 C 
ATOM      7  C   UNL     1       5.996   4.356  15.723  0.00  0.00    +0.000 C 
ATOM      8  N   UNL     1       6.457   5.328  16.786  0.00  0.00    +0.000 NA
ATOM      9  C   UNL     1       6.716   4.631  18.110  0.00  0.00    +0.000 C 
ENDROOT
BRANCH   8  10
ATOM     10  S   UNL     1       5.533   6.763  16.888  0.00  0.00    +0.000 S 
ATOM     11  O   UNL     1       6.461   7.836  17.192  0.00  0.00    +0.000 OA
ATOM     12  O   UNL     1       4.675   6.827  15.726  0.00  0.00    +0.000 OA
BRANCH  10  13
ATOM     13  C   UNL     1       4.556   6.435  18.358  0.00  0.00    +0.000 C 
BRANCH  13  14
ATOM     14  C   UNL     1       3.107   7.002  18.372  0.00  0.00    +0.000 C 
ATOM     15  C   UNL     1       2.130   5.998  17.724  0.00  0.00    +0.000 C 
ATOM     16  C   UNL     1       2.717   7.212  19.862  0.00  0.00    +0.000 C 
ATOM     17  C   UNL     1       1.358   7.887  20.057  0.00  0.00    +0.000 C 
ATOM     18  C   UNL     1       1.250   9.197  19.284  0.00  0.00    +0.000 C 
ATOM     19  C   UNL     1       1.665   9.062  17.824  0.00  0.00    +0.000 C 
ATOM     20  C   UNL     1       3.021   8.375  17.661  0.00  0.00    +0.000 C 
ENDBRANCH  13  14
ENDBRANCH  10  13
ENDBRANCH   8  10
BRANCH   1  21
ATOM     21  C   UNL     1       2.350   2.303  17.855  0.00  0.00    +0.000 C 
BRANCH  21  22
ATOM     22  C   UNL     1       1.447   2.056  19.053  0.00  0.00    +0.000 C 
BRANCH  22  24
ATOM     23  C   UNL     1       1.013   3.849  20.515  0.00  0.00    +0.000 C 
ATOM     24  O   UNL     1       0.652   3.220  19.293  0.00  0.00    +0.000 OA
ENDBRANCH  22  24
ENDBRANCH  21  22
ENDBRANCH   1  21
TORSDOF 6
ENDMDL
MODEL 9
REMARK VINA RESULT:      -6.1      3.807      6.532
REMARK  Name = 
REMARK  8 active torsions:
REMARK  status: ('A' for Active; 'I' for Inactive)
REMARK    1  A    between atoms: C_1  and  O_2
REMARK    2  A    between atoms: O_2  and  C_3
REMARK    3  A    between atoms: C_3  and  C_4
REMARK    4  A    between atoms: C_4  and  N_5
REMARK    5  A    between atoms: N_12  and  S_13
REMARK    6  A    between atoms: S_13  and  C_16
REMARK    7  A    between atoms: C_16  and  C_17
REMARK    8  A    between atoms: C_17  and  C_18
REMARK                            x       y       z     vdW  Elec       q    Type
REMARK                         _______ _______ _______ _____ _____    ______ ____
ROOT
ATOM      1  N   UNL     1       4.037   1.968  19.745  0.00  0.00    +0.000 N 
ATOM      2  N   UNL     1       3.822   1.233  18.632  0.00  0.00    +0.000 NA
ATOM      3  N   UNL     1       2.787   1.766  17.983  0.00  0.00    +0.000 NA
ATOM      4  C   UNL     1       2.337   2.817  18.721  0.00  0.00    +0.000 A 
ATOM      5  C   UNL     1       3.067   2.912  19.884  0.00  0.00    +0.000 A 
ATOM      6  C   UNL     1       2.887   3.954  20.920  0.00  0.00    +0.000 C 
ATOM      7  C   UNL     1       1.581   4.729  20.624  0.00  0.00    +0.000 C 
ATOM      8  N   UNL     1       1.409   5.041  19.154  0.00  0.00    +0.000 NA
ATOM      9  C   UNL     1       1.275   3.778  18.322  0.00  0.00    +0.000 C 
ENDROOT
BRANCH   8  10
ATOM     10  S   UNL     1       2.505   6.203  18.541  0.00  0.00    +0.000 S 
ATOM     11  O   UNL     1       1.719   7.158  17.784  0.00  0.00    +0.000 OA
ATOM     12  O   UNL     1       3.357   6.632  19.627  0.00  0.00    +0.000 OA
BRANCH  10  13
ATOM     13  C   UNL     1       3.443   5.205  17.379  0.00  0.00    +0.000 C 
BRANCH  13  14
ATOM     14  C   UNL     1       4.964   5.513  17.267  0.00  0.00    +0.000 C 
ATOM     15  C   UNL     1       5.186   6.986  16.864  0.00  0.00    +0.000 C 
ATOM     16  C   UNL     1       5.580   5.266  18.673  0.00  0.00    +0.000 C 
ATOM     17  C   UNL     1       7.103   5.403  18.714  0.00  0.00    +0.000 C 
ATOM     18  C   UNL     1       7.788   4.532  17.667  0.00  0.00    +0.000 C 
ATOM     19  C   UNL     1       7.194   4.698  16.273  0.00  0.00    +0.000 C 
ATOM     20  C   UNL     1       5.670   4.566  16.266  0.00  0.00    +0.000 C 
ENDBRANCH  13  14
ENDBRANCH  10  13
ENDBRANCH   8  10
BRANCH   1  21
ATOM     21  C   UNL     1       5.236   1.781  20.528  0.00  0.00    +0.000 C 
BRANCH  21  22
ATOM     22  C   UNL     1       5.050   0.759  21.638  0.00  0.00    +0.000 C 
BRANCH  22  24
ATOM     23  C   UNL     1       6.685  -0.768  22.373  0.00  0.00    +0.000 C 
ATOM     24  O   UNL     1       6.285   0.595  22.340  0.00  0.00    +0.000 OA
ENDBRANCH  22  24
ENDBRANCH  21  22
ENDBRANCH   1  21
TORSDOF 6
ENDMDL
