MODEL 1
REMARK VINA RESULT:      -8.8      0.000      0.000
REMARK  Name = 
REMARK  9 active torsions:
REMARK  status: ('A' for Active; 'I' for Inactive)
REMARK    1  A    between atoms: C_1  and  N_2
REMARK    2  A    between atoms: C_3  and  O_5
REMARK    3  A    between atoms: O_5  and  C_6
REMARK    4  A    between atoms: C_6  and  C_7
REMARK    5  A    between atoms: C_8  and  C_9
REMARK    6  A    between atoms: C_9  and  O_10
REMARK    7  A    between atoms: O_10  and  C_11
REMARK    8  A    between atoms: N_13  and  C_14
REMARK    9  A    between atoms: C_15  and  C_16
REMARK                            x       y       z     vdW  Elec       q    Type
REMARK                         _______ _______ _______ _____ _____    ______ ____
ROOT
ATOM      1  C   UNL     1       4.890   4.698  17.179  0.00  0.00    +0.000 A 
ATOM      2  C   UNL     1       4.567   6.092  17.437  0.00  0.00    +0.000 A 
ATOM      3  C   UNL     1       3.317   6.141  18.089  0.00  0.00    +0.000 A 
ATOM      4  N   UNL     1       2.916   4.840  18.180  0.00  0.00    +0.000 N 
ATOM      5  C   UNL     1       3.818   3.982  17.642  0.00  0.00    +0.000 A 
ATOM      6  C   UNL     1       3.351   2.580  17.717  0.00  0.00    +0.000 C 
ATOM      7  C   UNL     1       1.867   2.743  18.105  0.00  0.00    +0.000 C 
ATOM      8  C   UNL     1       1.734   4.157  18.681  0.00  0.00    +0.000 C 
ENDROOT
BRANCH   3   9
ATOM      9  C   UNL     1       2.519   7.283  18.582  0.00  0.00    +0.000 A 
ATOM     10  C   UNL     1       2.155   7.392  19.934  0.00  0.00    +0.000 A 
ATOM     11  C   UNL     1       1.390   8.471  20.391  0.00  0.00    +0.000 A 
ATOM     12  C   UNL     1       1.019   9.469  19.507  0.00  0.00    +0.000 A 
ATOM     13  F   UNL     1       0.315  10.519  19.949  0.00  0.00    +0.000 F 
ATOM     14  C   UNL     1       1.366   9.398  18.172  0.00  0.00    +0.000 A 
ATOM     15  C   UNL     1       2.091   8.295  17.709  0.00  0.00    +0.000 A 
ENDBRANCH   3   9
BRANCH   1  16
ATOM     16  C   UNL     1       6.103   4.126  16.517  0.00  0.00    +0.000 C 
BRANCH  16  17
ATOM     17  O   UNL     1       5.803   3.551  15.239  0.00  0.00    +0.000 OA
BRANCH  17  20
ATOM     18  C   UNL     1       6.906   3.692  11.848  0.00  0.00    +0.000 C 
ATOM     19  N   UNL     1       6.243   3.371  13.081  0.00  0.00    +0.000 N 
ATOM     20  C   UNL     1       6.444   4.120  14.199  0.00  0.00    +0.000 C 
ATOM     21  O   UNL     1       7.098   5.155  14.233  0.00  0.00    +0.000 OA
ATOM     22  H   UNL     1       5.777   2.483  13.216  0.00  0.00    +0.000 HD
ENDBRANCH  17  20
ENDBRANCH  16  17
ENDBRANCH   1  16
BRANCH   2  23
ATOM     23  C   UNL     1       5.399   7.281  17.027  0.00  0.00    +0.000 C 
BRANCH  23  24
ATOM     24  O   UNL     1       6.784   6.975  16.829  0.00  0.00    +0.000 OA
BRANCH  24  25
ATOM     25  C   UNL     1       7.624   7.473  17.765  0.00  0.00    +0.000 C 
ATOM     26  O   UNL     1       8.132   6.851  18.686  0.00  0.00    +0.000 OA
ATOM     27  N   UNL     1       7.819   8.795  17.514  0.00  0.00    +0.000 N 
ATOM     28  C   UNL     1       8.642   9.631  18.341  0.00  0.00    +0.000 C 
ATOM     29  H   UNL     1       7.369   9.164  16.687  0.00  0.00    +0.000 HD
ENDBRANCH  24  25
ENDBRANCH  23  24
ENDBRANCH   2  23
TORSDOF 7
ENDMDL
MODEL 2
REMARK VINA RESULT:      -8.6      1.133      1.560
REMARK  Name = 
REMARK  9 active torsions:
REMARK  status: ('A' for Active; 'I' for Inactive)
REMARK    1  A    between atoms: C_1  and  N_2
REMARK    2  A    between atoms: C_3  and  O_5
REMARK    3  A    between atoms: O_5  and  C_6
REMARK    4  A    between atoms: C_6  and  C_7
REMARK    5  A    between atoms: C_8  and  C_9
REMARK    6  A    between atoms: C_9  and  O_10
REMARK    7  A    between atoms: O_10  and  C_11
REMARK    8  A    between atoms: N_13  and  C_14
REMARK    9  A    between atoms: C_15  and  C_16
REMARK                            x       y       z     vdW  Elec       q    Type
REMARK                         _______ _______ _______ _____ _____    ______ ____
ROOT
ATOM      1  C   UNL     1       4.270   4.159  16.912  0.00  0.00    +0.000 A 
ATOM      2  C   UNL     1       4.080   5.589  17.099  0.00  0.00    +0.000 A 
ATOM      3  C   UNL     1       3.004   5.776  17.992  0.00  0.00    +0.000 A 
ATOM      4  N   UNL     1       2.567   4.518  18.287  0.00  0.00    +0.000 N 
ATOM      5  C   UNL     1       3.289   3.559  17.656  0.00  0.00    +0.000 A 
ATOM      6  C   UNL     1       2.779   2.203  17.958  0.00  0.00    +0.000 C 
ATOM      7  C   UNL     1       1.424   2.499  18.632  0.00  0.00    +0.000 C 
ATOM      8  C   UNL     1       1.488   3.960  19.087  0.00  0.00    +0.000 C 
ENDROOT
BRANCH   3   9
ATOM      9  C   UNL     1       2.389   7.007  18.531  0.00  0.00    +0.000 A 
ATOM     10  C   UNL     1       2.011   8.066  17.690  0.00  0.00    +0.000 A 
ATOM     11  C   UNL     1       1.439   9.232  18.210  0.00  0.00    +0.000 A 
ATOM     12  C   UNL     1       1.201   9.329  19.570  0.00  0.00    +0.000 A 
ATOM     13  F   UNL     1       0.623  10.431  20.066  0.00  0.00    +0.000 F 
ATOM     14  C   UNL     1       1.552   8.303  20.425  0.00  0.00    +0.000 A 
ATOM     15  C   UNL     1       2.167   7.158  19.909  0.00  0.00    +0.000 A 
ENDBRANCH   3   9
BRANCH   1  16
ATOM     16  C   UNL     1       5.283   3.453  16.067  0.00  0.00    +0.000 C 
BRANCH  16  17
ATOM     17  O   UNL     1       6.515   4.178  15.979  0.00  0.00    +0.000 OA
BRANCH  17  20
ATOM     18  C   UNL     1       6.586   3.697  12.444  0.00  0.00    +0.000 C 
ATOM     19  N   UNL     1       6.273   3.660  13.844  0.00  0.00    +0.000 N 
ATOM     20  C   UNL     1       6.902   4.485  14.725  0.00  0.00    +0.000 C 
ATOM     21  O   UNL     1       7.684   5.372  14.407  0.00  0.00    +0.000 OA
ATOM     22  H   UNL     1       5.740   2.900  14.248  0.00  0.00    +0.000 HD
ENDBRANCH  17  20
ENDBRANCH  16  17
ENDBRANCH   1  16
BRANCH   2  23
ATOM     23  C   UNL     1       4.863   6.680  16.414  0.00  0.00    +0.000 C 
BRANCH  23  24
ATOM     24  O   UNL     1       5.611   7.506  17.313  0.00  0.00    +0.000 OA
BRANCH  24  25
ATOM     25  C   UNL     1       6.885   7.110  17.537  0.00  0.00    +0.000 C 
ATOM     26  O   UNL     1       7.883   7.527  16.969  0.00  0.00    +0.000 OA
ATOM     27  N   UNL     1       6.879   6.161  18.509  0.00  0.00    +0.000 N 
ATOM     28  C   UNL     1       8.073   5.510  18.968  0.00  0.00    +0.000 C 
ATOM     29  H   UNL     1       5.980   5.949  18.922  0.00  0.00    +0.000 HD
ENDBRANCH  24  25
ENDBRANCH  23  24
ENDBRANCH   2  23
TORSDOF 7
ENDMDL
MODEL 3
REMARK VINA RESULT:      -8.4      0.777      1.227
REMARK  Name = 
REMARK  9 active torsions:
REMARK  status: ('A' for Active; 'I' for Inactive)
REMARK    1  A    between atoms: C_1  and  N_2
REMARK    2  A    between atoms: C_3  and  O_5
REMARK    3  A    between atoms: O_5  and  C_6
REMARK    4  A    between atoms: C_6  and  C_7
REMARK    5  A    between atoms: C_8  and  C_9
REMARK    6  A    between atoms: C_9  and  O_10
REMARK    7  A    between atoms: O_10  and  C_11
REMARK    8  A    between atoms: N_13  and  C_14
REMARK    9  A    between atoms: C_15  and  C_16
REMARK                            x       y       z     vdW  Elec       q    Type
REMARK                         _______ _______ _______ _____ _____    ______ ____
ROOT
ATOM      1  C   UNL     1       4.822   4.561  17.058  0.00  0.00    +0.000 A 
ATOM      2  C   UNL     1       4.527   5.966  17.291  0.00  0.00    +0.000 A 
ATOM      3  C   UNL     1       3.311   6.048  17.999  0.00  0.00    +0.000 A 
ATOM      4  N   UNL     1       2.900   4.755  18.146  0.00  0.00    +0.000 N 
ATOM      5  C   UNL     1       3.766   3.871  17.592  0.00  0.00    +0.000 A 
ATOM      6  C   UNL     1       3.288   2.478  17.728  0.00  0.00    +0.000 C 
ATOM      7  C   UNL     1       1.826   2.669  18.181  0.00  0.00    +0.000 C 
ATOM      8  C   UNL     1       1.735   4.100  18.722  0.00  0.00    +0.000 C 
ENDROOT
BRANCH   3   9
ATOM      9  C   UNL     1       2.549   7.213  18.497  0.00  0.00    +0.000 A 
ATOM     10  C   UNL     1       2.140   8.243  17.634  0.00  0.00    +0.000 A 
ATOM     11  C   UNL     1       1.429   9.348  18.114  0.00  0.00    +0.000 A 
ATOM     12  C   UNL     1       1.085   9.409  19.453  0.00  0.00    +0.000 A 
ATOM     13  F   UNL     1       0.374  10.449  19.909  0.00  0.00    +0.000 F 
ATOM     14  C   UNL     1       1.463   8.410  20.329  0.00  0.00    +0.000 A 
ATOM     15  C   UNL     1       2.215   7.330  19.854  0.00  0.00    +0.000 A 
ENDBRANCH   3   9
BRANCH   1  16
ATOM     16  C   UNL     1       5.997   3.956  16.356  0.00  0.00    +0.000 C 
BRANCH  16  17
ATOM     17  O   UNL     1       5.624   3.314  15.130  0.00  0.00    +0.000 OA
BRANCH  17  20
ATOM     18  C   UNL     1       7.849   5.500  13.395  0.00  0.00    +0.000 C 
ATOM     19  N   UNL     1       7.171   4.702  14.378  0.00  0.00    +0.000 N 
ATOM     20  C   UNL     1       6.166   3.857  14.022  0.00  0.00    +0.000 C 
ATOM     21  O   UNL     1       5.829   3.627  12.866  0.00  0.00    +0.000 OA
ATOM     22  H   UNL     1       7.270   4.884  15.368  0.00  0.00    +0.000 HD
ENDBRANCH  17  20
ENDBRANCH  16  17
ENDBRANCH   1  16
BRANCH   2  23
ATOM     23  C   UNL     1       5.352   7.132  16.808  0.00  0.00    +0.000 C 
BRANCH  23  24
ATOM     24  O   UNL     1       6.745   6.833  16.663  0.00  0.00    +0.000 OA
BRANCH  24  25
ATOM     25  C   UNL     1       7.542   7.305  17.648  0.00  0.00    +0.000 C 
ATOM     26  O   UNL     1       7.996   6.662  18.582  0.00  0.00    +0.000 OA
ATOM     27  N   UNL     1       7.762   8.629  17.432  0.00  0.00    +0.000 N 
ATOM     28  C   UNL     1       8.551   9.441  18.314  0.00  0.00    +0.000 C 
ATOM     29  H   UNL     1       7.358   9.017  16.590  0.00  0.00    +0.000 HD
ENDBRANCH  24  25
ENDBRANCH  23  24
ENDBRANCH   2  23
TORSDOF 7
ENDMDL
MODEL 4
REMARK VINA RESULT:      -8.3      1.238      1.655
REMARK  Name = 
REMARK  9 active torsions:
REMARK  status: ('A' for Active; 'I' for Inactive)
REMARK    1  A    between atoms: C_1  and  N_2
REMARK    2  A    between atoms: C_3  and  O_5
REMARK    3  A    between atoms: O_5  and  C_6
REMARK    4  A    between atoms: C_6  and  C_7
REMARK    5  A    between atoms: C_8  and  C_9
REMARK    6  A    between atoms: C_9  and  O_10
REMARK    7  A    between atoms: O_10  and  C_11
REMARK    8  A    between atoms: N_13  and  C_14
REMARK    9  A    between atoms: C_15  and  C_16
REMARK                            x       y       z     vdW  Elec       q    Type
REMARK                         _______ _______ _______ _____ _____    ______ ____
ROOT
ATOM      1  C   UNL     1       4.487   4.418  16.729  0.00  0.00    +0.000 A 
ATOM      2  C   UNL     1       4.246   5.816  17.048  0.00  0.00    +0.000 A 
ATOM      3  C   UNL     1       3.160   5.882  17.945  0.00  0.00    +0.000 A 
ATOM      4  N   UNL     1       2.765   4.588  18.117  0.00  0.00    +0.000 N 
ATOM      5  C   UNL     1       3.523   3.717  17.404  0.00  0.00    +0.000 A 
ATOM      6  C   UNL     1       3.059   2.323  17.574  0.00  0.00    +0.000 C 
ATOM      7  C   UNL     1       1.691   2.507  18.261  0.00  0.00    +0.000 C 
ATOM      8  C   UNL     1       1.702   3.920  18.852  0.00  0.00    +0.000 C 
ENDROOT
BRANCH   3   9
ATOM      9  C   UNL     1       2.499   7.035  18.593  0.00  0.00    +0.000 A 
ATOM     10  C   UNL     1       2.112   8.166  17.856  0.00  0.00    +0.000 A 
ATOM     11  C   UNL     1       1.497   9.257  18.478  0.00  0.00    +0.000 A 
ATOM     12  C   UNL     1       1.226   9.207  19.834  0.00  0.00    +0.000 A 
ATOM     13  F   UNL     1       0.606  10.237  20.426  0.00  0.00    +0.000 F 
ATOM     14  C   UNL     1       1.585   8.107  20.588  0.00  0.00    +0.000 A 
ATOM     15  C   UNL     1       2.243   7.038  19.972  0.00  0.00    +0.000 A 
ENDBRANCH   3   9
BRANCH   1  16
ATOM     16  C   UNL     1       5.528   3.829  15.830  0.00  0.00    +0.000 C 
BRANCH  16  17
ATOM     17  O   UNL     1       5.191   3.973  14.445  0.00  0.00    +0.000 OA
BRANCH  17  20
ATOM     18  C   UNL     1       8.173   5.473  13.181  0.00  0.00    +0.000 C 
ATOM     19  N   UNL     1       7.034   5.099  13.970  0.00  0.00    +0.000 N 
ATOM     20  C   UNL     1       6.248   4.047  13.612  0.00  0.00    +0.000 C 
ATOM     21  O   UNL     1       6.489   3.287  12.681  0.00  0.00    +0.000 OA
ATOM     22  H   UNL     1       6.661   5.710  14.686  0.00  0.00    +0.000 HD
ENDBRANCH  17  20
ENDBRANCH  16  17
ENDBRANCH   1  16
BRANCH   2  23
ATOM     23  C   UNL     1       4.995   6.993  16.475  0.00  0.00    +0.000 C 
BRANCH  23  24
ATOM     24  O   UNL     1       6.399   6.763  16.317  0.00  0.00    +0.000 OA
BRANCH  24  25
ATOM     25  C   UNL     1       7.157   7.061  17.396  0.00  0.00    +0.000 C 
ATOM     26  O   UNL     1       7.627   8.155  17.672  0.00  0.00    +0.000 OA
ATOM     27  N   UNL     1       7.317   5.934  18.139  0.00  0.00    +0.000 N 
ATOM     28  C   UNL     1       8.096   5.900  19.344  0.00  0.00    +0.000 C 
ATOM     29  H   UNL     1       6.830   5.110  17.811  0.00  0.00    +0.000 HD
ENDBRANCH  24  25
ENDBRANCH  23  24
ENDBRANCH   2  23
TORSDOF 7
ENDMDL
MODEL 5
REMARK VINA RESULT:      -7.8      4.113      7.268
REMARK  Name = 
REMARK  9 active torsions:
REMARK  status: ('A' for Active; 'I' for Inactive)
REMARK    1  A    between atoms: C_1  and  N_2
REMARK    2  A    between atoms: C_3  and  O_5
REMARK    3  A    between atoms: O_5  and  C_6
REMARK    4  A    between atoms: C_6  and  C_7
REMARK    5  A    between atoms: C_8  and  C_9
REMARK    6  A    between atoms: C_9  and  O_10
REMARK    7  A    between atoms: O_10  and  C_11
REMARK    8  A    between atoms: N_13  and  C_14
REMARK    9  A    between atoms: C_15  and  C_16
REMARK                            x       y       z     vdW  Elec       q    Type
REMARK                         _______ _______ _______ _____ _____    ______ ____
ROOT
ATOM      1  C   UNL     1       2.123   6.127  20.142  0.00  0.00    +0.000 A 
ATOM      2  C   UNL     1       2.991   6.444  19.018  0.00  0.00    +0.000 A 
ATOM      3  C   UNL     1       3.714   5.282  18.680  0.00  0.00    +0.000 A 
ATOM      4  N   UNL     1       3.311   4.340  19.582  0.00  0.00    +0.000 N 
ATOM      5  C   UNL     1       2.388   4.820  20.452  0.00  0.00    +0.000 A 
ATOM      6  C   UNL     1       1.989   3.797  21.444  0.00  0.00    +0.000 C 
ATOM      7  C   UNL     1       3.053   2.700  21.239  0.00  0.00    +0.000 C 
ATOM      8  C   UNL     1       3.663   2.956  19.857  0.00  0.00    +0.000 C 
ENDROOT
BRANCH   3   9
ATOM      9  C   UNL     1       4.722   5.032  17.628  0.00  0.00    +0.000 A 
ATOM     10  C   UNL     1       4.405   4.309  16.467  0.00  0.00    +0.000 A 
ATOM     11  C   UNL     1       5.367   4.067  15.481  0.00  0.00    +0.000 A 
ATOM     12  C   UNL     1       6.643   4.584  15.630  0.00  0.00    +0.000 A 
ATOM     13  F   UNL     1       7.557   4.384  14.672  0.00  0.00    +0.000 F 
ATOM     14  C   UNL     1       6.987   5.307  16.755  0.00  0.00    +0.000 A 
ATOM     15  C   UNL     1       6.036   5.507  17.761  0.00  0.00    +0.000 A 
ENDBRANCH   3   9
BRANCH   1  16
ATOM     16  C   UNL     1       1.159   7.018  20.859  0.00  0.00    +0.000 C 
BRANCH  16  17
ATOM     17  O   UNL     1       1.639   8.365  20.961  0.00  0.00    +0.000 OA
BRANCH  17  20
ATOM     18  C   UNL     1      -0.773   9.912  23.089  0.00  0.00    +0.000 C 
ATOM     19  N   UNL     1      -0.102   9.154  22.070  0.00  0.00    +0.000 N 
ATOM     20  C   UNL     1       1.252   9.020  22.073  0.00  0.00    +0.000 C 
ATOM     21  O   UNL     1       1.986   9.426  22.966  0.00  0.00    +0.000 OA
ATOM     22  H   UNL     1      -0.576   8.872  21.221  0.00  0.00    +0.000 HD
ENDBRANCH  17  20
ENDBRANCH  16  17
ENDBRANCH   1  16
BRANCH   2  23
ATOM     23  C   UNL     1       3.131   7.796  18.366  0.00  0.00    +0.000 C 
BRANCH  23  24
ATOM     24  O   UNL     1       1.946   8.241  17.698  0.00  0.00    +0.000 OA
BRANCH  24  25
ATOM     25  C   UNL     1       1.643   9.548  17.869  0.00  0.00    +0.000 C 
ATOM     26  O   UNL     1       2.340  10.501  17.555  0.00  0.00    +0.000 OA
ATOM     27  N   UNL     1       0.419   9.636  18.455  0.00  0.00    +0.000 N 
ATOM     28  C   UNL     1      -0.190  10.889  18.801  0.00  0.00    +0.000 C 
ATOM     29  H   UNL     1      -0.063   8.762  18.616  0.00  0.00    +0.000 HD
ENDBRANCH  24  25
ENDBRANCH  23  24
ENDBRANCH   2  23
TORSDOF 7
ENDMDL
MODEL 6
REMARK VINA RESULT:      -7.7      4.117      7.144
REMARK  Name = 
REMARK  9 active torsions:
REMARK  status: ('A' for Active; 'I' for Inactive)
REMARK    1  A    between atoms: C_1  and  N_2
REMARK    2  A    between atoms: C_3  and  O_5
REMARK    3  A    between atoms: O_5  and  C_6
REMARK    4  A    between atoms: C_6  and  C_7
REMARK    5  A    between atoms: C_8  and  C_9
REMARK    6  A    between atoms: C_9  and  O_10
REMARK    7  A    between atoms: O_10  and  C_11
REMARK    8  A    between atoms: N_13  and  C_14
REMARK    9  A    between atoms: C_15  and  C_16
REMARK                            x       y       z     vdW  Elec       q    Type
REMARK                         _______ _______ _______ _____ _____    ______ ____
ROOT
ATOM      1  C   UNL     1       2.074   6.495  19.944  0.00  0.00    +0.000 A 
ATOM      2  C   UNL     1       2.956   6.823  18.835  0.00  0.00    +0.000 A 
ATOM      3  C   UNL     1       3.666   5.658  18.479  0.00  0.00    +0.000 A 
ATOM      4  N   UNL     1       3.242   4.704  19.357  0.00  0.00    +0.000 N 
ATOM      5  C   UNL     1       2.318   5.178  20.229  0.00  0.00    +0.000 A 
ATOM      6  C   UNL     1       1.896   4.141  21.196  0.00  0.00    +0.000 C 
ATOM      7  C   UNL     1       2.946   3.033  20.977  0.00  0.00    +0.000 C 
ATOM      8  C   UNL     1       3.572   3.309  19.606  0.00  0.00    +0.000 C 
ENDROOT
BRANCH   3   9
ATOM      9  C   UNL     1       4.680   5.416  17.431  0.00  0.00    +0.000 A 
ATOM     10  C   UNL     1       5.934   6.047  17.466  0.00  0.00    +0.000 A 
ATOM     11  C   UNL     1       6.884   5.822  16.464  0.00  0.00    +0.000 A 
ATOM     12  C   UNL     1       6.602   4.931  15.443  0.00  0.00    +0.000 A 
ATOM     13  F   UNL     1       7.523   4.688  14.501  0.00  0.00    +0.000 F 
ATOM     14  C   UNL     1       5.382   4.287  15.382  0.00  0.00    +0.000 A 
ATOM     15  C   UNL     1       4.417   4.550  16.359  0.00  0.00    +0.000 A 
ENDBRANCH   3   9
BRANCH   1  16
ATOM     16  C   UNL     1       1.117   7.385  20.672  0.00  0.00    +0.000 C 
BRANCH  16  17
ATOM     17  O   UNL     1       1.778   8.486  21.309  0.00  0.00    +0.000 OA
BRANCH  17  20
ATOM     18  C   UNL     1      -0.721  11.030  21.470  0.00  0.00    +0.000 C 
ATOM     19  N   UNL     1       0.172   9.983  21.057  0.00  0.00    +0.000 N 
ATOM     20  C   UNL     1       0.959   9.336  21.959  0.00  0.00    +0.000 C 
ATOM     21  O   UNL     1       0.906   9.505  23.171  0.00  0.00    +0.000 OA
ATOM     22  H   UNL     1       0.395   9.832  20.081  0.00  0.00    +0.000 HD
ENDBRANCH  17  20
ENDBRANCH  16  17
ENDBRANCH   1  16
BRANCH   2  23
ATOM     23  C   UNL     1       3.122   8.187  18.213  0.00  0.00    +0.000 C 
BRANCH  23  24
ATOM     24  O   UNL     1       2.010   8.592  17.407  0.00  0.00    +0.000 OA
BRANCH  24  25
ATOM     25  C   UNL     1       1.336   9.676  17.855  0.00  0.00    +0.000 C 
ATOM     26  O   UNL     1       0.141   9.735  18.101  0.00  0.00    +0.000 OA
ATOM     27  N   UNL     1       2.214  10.705  17.993  0.00  0.00    +0.000 N 
ATOM     28  C   UNL     1       1.816  12.014  18.428  0.00  0.00    +0.000 C 
ATOM     29  H   UNL     1       3.183  10.495  17.797  0.00  0.00    +0.000 HD
ENDBRANCH  24  25
ENDBRANCH  23  24
ENDBRANCH   2  23
TORSDOF 7
ENDMDL
MODEL 7
REMARK VINA RESULT:      -7.4      1.094      1.094
REMARK  Name = 
REMARK  9 active torsions:
REMARK  status: ('A' for Active; 'I' for Inactive)
REMARK    1  A    between atoms: C_1  and  N_2
REMARK    2  A    between atoms: C_3  and  O_5
REMARK    3  A    between atoms: O_5  and  C_6
REMARK    4  A    between atoms: C_6  and  C_7
REMARK    5  A    between atoms: C_8  and  C_9
REMARK    6  A    between atoms: C_9  and  O_10
REMARK    7  A    between atoms: O_10  and  C_11
REMARK    8  A    between atoms: N_13  and  C_14
REMARK    9  A    between atoms: C_15  and  C_16
REMARK                            x       y       z     vdW  Elec       q    Type
REMARK                         _______ _______ _______ _____ _____    ______ ____
ROOT
ATOM      1  C   UNL     1       4.620   4.673  17.988  0.00  0.00    +0.000 A 
ATOM      2  C   UNL     1       4.291   6.089  17.940  0.00  0.00    +0.000 A 
ATOM      3  C   UNL     1       3.093   6.287  18.656  0.00  0.00    +0.000 A 
ATOM      4  N   UNL     1       2.723   5.042  19.076  0.00  0.00    +0.000 N 
ATOM      5  C   UNL     1       3.599   4.084  18.685  0.00  0.00    +0.000 A 
ATOM      6  C   UNL     1       3.165   2.737  19.118  0.00  0.00    +0.000 C 
ATOM      7  C   UNL     1       1.711   2.984  19.569  0.00  0.00    +0.000 C 
ATOM      8  C   UNL     1       1.594   4.492  19.810  0.00  0.00    +0.000 C 
ENDROOT
BRANCH   3   9
ATOM      9  C   UNL     1       2.311   7.511  18.930  0.00  0.00    +0.000 A 
ATOM     10  C   UNL     1       1.828   7.798  20.217  0.00  0.00    +0.000 A 
ATOM     11  C   UNL     1       1.080   8.953  20.467  0.00  0.00    +0.000 A 
ATOM     12  C   UNL     1       0.846   9.851  19.439  0.00  0.00    +0.000 A 
ATOM     13  F   UNL     1       0.159  10.975  19.683  0.00  0.00    +0.000 F 
ATOM     14  C   UNL     1       1.314   9.605  18.163  0.00  0.00    +0.000 A 
ATOM     15  C   UNL     1       2.021   8.426  17.907  0.00  0.00    +0.000 A 
ENDBRANCH   3   9
BRANCH   1  16
ATOM     16  C   UNL     1       5.792   3.964  17.387  0.00  0.00    +0.000 C 
BRANCH  16  17
ATOM     17  O   UNL     1       5.460   3.322  16.149  0.00  0.00    +0.000 OA
BRANCH  17  20
ATOM     18  C   UNL     1       7.386   5.268  13.860  0.00  0.00    +0.000 C 
ATOM     19  N   UNL     1       6.943   4.373  14.892  0.00  0.00    +0.000 N 
ATOM     20  C   UNL     1       5.622   4.090  15.054  0.00  0.00    +0.000 C 
ATOM     21  O   UNL     1       4.734   4.471  14.301  0.00  0.00    +0.000 OA
ATOM     22  H   UNL     1       7.556   4.089  15.646  0.00  0.00    +0.000 HD
ENDBRANCH  17  20
ENDBRANCH  16  17
ENDBRANCH   1  16
BRANCH   2  23
ATOM     23  C   UNL     1       5.069   7.151  17.203  0.00  0.00    +0.000 C 
BRANCH  23  24
ATOM     24  O   UNL     1       6.413   6.768  16.889  0.00  0.00    +0.000 OA
BRANCH  24  25
ATOM     25  C   UNL     1       7.361   7.257  17.721  0.00  0.00    +0.000 C 
ATOM     26  O   UNL     1       7.938   6.640  18.603  0.00  0.00    +0.000 OA
ATOM     27  N   UNL     1       7.575   8.564  17.413  0.00  0.00    +0.000 N 
ATOM     28  C   UNL     1       8.507   9.389  18.128  0.00  0.00    +0.000 C 
ATOM     29  H   UNL     1       7.057   8.929  16.625  0.00  0.00    +0.000 HD
ENDBRANCH  24  25
ENDBRANCH  23  24
ENDBRANCH   2  23
TORSDOF 7
ENDMDL
MODEL 8
REMARK VINA RESULT:      -7.4      1.256      1.436
REMARK  Name = 
REMARK  9 active torsions:
REMARK  status: ('A' for Active; 'I' for Inactive)
REMARK    1  A    between atoms: C_1  and  N_2
REMARK    2  A    between atoms: C_3  and  O_5
REMARK    3  A    between atoms: O_5  and  C_6
REMARK    4  A    between atoms: C_6  and  C_7
REMARK    5  A    between atoms: C_8  and  C_9
REMARK    6  A    between atoms: C_9  and  O_10
REMARK    7  A    between atoms: O_10  and  C_11
REMARK    8  A    between atoms: N_13  and  C_14
REMARK    9  A    between atoms: C_15  and  C_16
REMARK                            x       y       z     vdW  Elec       q    Type
REMARK                         _______ _______ _______ _____ _____    ______ ____
ROOT
ATOM      1  C   UNL     1       4.583   4.222  16.570  0.00  0.00    +0.000 A 
ATOM      2  C   UNL     1       4.295   5.623  16.832  0.00  0.00    +0.000 A 
ATOM      3  C   UNL     1       3.273   5.689  17.801  0.00  0.00    +0.000 A 
ATOM      4  N   UNL     1       2.957   4.389  18.069  0.00  0.00    +0.000 N 
ATOM      5  C   UNL     1       3.706   3.516  17.351  0.00  0.00    +0.000 A 
ATOM      6  C   UNL     1       3.327   2.113  17.628  0.00  0.00    +0.000 C 
ATOM      7  C   UNL     1       2.003   2.271  18.402  0.00  0.00    +0.000 C 
ATOM      8  C   UNL     1       1.984   3.715  18.915  0.00  0.00    +0.000 C 
ENDROOT
BRANCH   3   9
ATOM      9  C   UNL     1       2.601   6.844  18.433  0.00  0.00    +0.000 A 
ATOM     10  C   UNL     1       2.308   6.858  19.806  0.00  0.00    +0.000 A 
ATOM     11  C   UNL     1       1.662   7.950  20.396  0.00  0.00    +0.000 A 
ATOM     12  C   UNL     1       1.344   9.054  19.624  0.00  0.00    +0.000 A 
ATOM     13  F   UNL     1       0.756  10.115  20.192  0.00  0.00    +0.000 F 
ATOM     14  C   UNL     1       1.625   9.077  18.272  0.00  0.00    +0.000 A 
ATOM     15  C   UNL     1       2.228   7.964  17.676  0.00  0.00    +0.000 A 
ENDBRANCH   3   9
BRANCH   1  16
ATOM     16  C   UNL     1       5.587   3.633  15.630  0.00  0.00    +0.000 C 
BRANCH  16  17
ATOM     17  O   UNL     1       5.772   4.439  14.460  0.00  0.00    +0.000 OA
BRANCH  17  20
ATOM     18  C   UNL     1       6.846   2.548  11.631  0.00  0.00    +0.000 C 
ATOM     19  N   UNL     1       6.743   3.211  12.900  0.00  0.00    +0.000 N 
ATOM     20  C   UNL     1       5.577   3.794  13.293  0.00  0.00    +0.000 C 
ATOM     21  O   UNL     1       4.522   3.719  12.675  0.00  0.00    +0.000 OA
ATOM     22  H   UNL     1       7.564   3.444  13.445  0.00  0.00    +0.000 HD
ENDBRANCH  17  20
ENDBRANCH  16  17
ENDBRANCH   1  16
BRANCH   2  23
ATOM     23  C   UNL     1       4.940   6.800  16.143  0.00  0.00    +0.000 C 
BRANCH  23  24
ATOM     24  O   UNL     1       5.973   7.424  16.914  0.00  0.00    +0.000 OA
BRANCH  24  25
ATOM     25  C   UNL     1       7.044   6.644  17.183  0.00  0.00    +0.000 C 
ATOM     26  O   UNL     1       7.839   6.199  16.369  0.00  0.00    +0.000 OA
ATOM     27  N   UNL     1       7.098   6.429  18.525  0.00  0.00    +0.000 N 
ATOM     28  C   UNL     1       8.106   5.615  19.143  0.00  0.00    +0.000 C 
ATOM     29  H   UNL     1       6.398   6.901  19.081  0.00  0.00    +0.000 HD
ENDBRANCH  24  25
ENDBRANCH  23  24
ENDBRANCH   2  23
TORSDOF 7
ENDMDL
MODEL 9
REMARK VINA RESULT:      -7.4      0.921      1.332
REMARK  Name = 
REMARK  9 active torsions:
REMARK  status: ('A' for Active; 'I' for Inactive)
REMARK    1  A    between atoms: C_1  and  N_2
REMARK    2  A    between atoms: C_3  and  O_5
REMARK    3  A    between atoms: O_5  and  C_6
REMARK    4  A    between atoms: C_6  and  C_7
REMARK    5  A    between atoms: C_8  and  C_9
REMARK    6  A    between atoms: C_9  and  O_10
REMARK    7  A    between atoms: O_10  and  C_11
REMARK    8  A    between atoms: N_13  and  C_14
REMARK    9  A    between atoms: C_15  and  C_16
REMARK                            x       y       z     vdW  Elec       q    Type
REMARK                         _______ _______ _______ _____ _____    ______ ____
ROOT
ATOM      1  C   UNL     1       4.414   4.300  17.536  0.00  0.00    +0.000 A 
ATOM      2  C   UNL     1       4.249   5.733  17.724  0.00  0.00    +0.000 A 
ATOM      3  C   UNL     1       3.004   5.955  18.348  0.00  0.00    +0.000 A 
ATOM      4  N   UNL     1       2.455   4.714  18.490  0.00  0.00    +0.000 N 
ATOM      5  C   UNL     1       3.260   3.734  18.011  0.00  0.00    +0.000 A 
ATOM      6  C   UNL     1       2.635   2.400  18.140  0.00  0.00    +0.000 C 
ATOM      7  C   UNL     1       1.174   2.748  18.491  0.00  0.00    +0.000 C 
ATOM      8  C   UNL     1       1.195   4.194  18.999  0.00  0.00    +0.000 C 
ENDROOT
BRANCH   3   9
ATOM      9  C   UNL     1       2.334   7.202  18.773  0.00  0.00    +0.000 A 
ATOM     10  C   UNL     1       1.995   8.202  17.847  0.00  0.00    +0.000 A 
ATOM     11  C   UNL     1       1.371   9.385  18.258  0.00  0.00    +0.000 A 
ATOM     12  C   UNL     1       1.045   9.558  19.592  0.00  0.00    +0.000 A 
ATOM     13  F   UNL     1       0.417  10.674  19.983  0.00  0.00    +0.000 F 
ATOM     14  C   UNL     1       1.357   8.591  20.528  0.00  0.00    +0.000 A 
ATOM     15  C   UNL     1       2.023   7.430  20.122  0.00  0.00    +0.000 A 
ENDBRANCH   3   9
BRANCH   1  16
ATOM     16  C   UNL     1       5.563   3.563  16.925  0.00  0.00    +0.000 C 
BRANCH  16  17
ATOM     17  O   UNL     1       5.665   3.793  15.514  0.00  0.00    +0.000 OA
BRANCH  17  20
ATOM     18  C   UNL     1       7.853   5.269  13.112  0.00  0.00    +0.000 C 
ATOM     19  N   UNL     1       6.718   4.754  13.825  0.00  0.00    +0.000 N 
ATOM     20  C   UNL     1       6.835   4.329  15.113  0.00  0.00    +0.000 C 
ATOM     21  O   UNL     1       7.849   4.440  15.790  0.00  0.00    +0.000 OA
ATOM     22  H   UNL     1       5.862   4.501  13.348  0.00  0.00    +0.000 HD
ENDBRANCH  17  20
ENDBRANCH  16  17
ENDBRANCH   1  16
BRANCH   2  23
ATOM     23  C   UNL     1       5.218   6.799  17.276  0.00  0.00    +0.000 C 
BRANCH  23  24
ATOM     24  O   UNL     1       6.471   6.767  17.969  0.00  0.00    +0.000 OA
BRANCH  24  25
ATOM     25  C   UNL     1       7.443   7.543  17.438  0.00  0.00    +0.000 C 
ATOM     26  O   UNL     1       8.126   7.280  16.460  0.00  0.00    +0.000 OA
ATOM     27  N   UNL     1       7.542   8.680  18.176  0.00  0.00    +0.000 N 
ATOM     28  C   UNL     1       8.501   9.710  17.894  0.00  0.00    +0.000 C 
ATOM     29  H   UNL     1       6.877   8.782  18.931  0.00  0.00    +0.000 HD
ENDBRANCH  24  25
ENDBRANCH  23  24
ENDBRANCH   2  23
TORSDOF 7
ENDMDL
