MODEL 1
REMARK VINA RESULT:      -7.5      0.000      0.000
REMARK  Name = 
REMARK  5 active torsions:
REMARK  status: ('A' for Active; 'I' for Inactive)
REMARK    1  A    between atoms: C_1  and  C_2
REMARK    2  A    between atoms: C_4  and  C_5
REMARK    3  A    between atoms: C_5  and  N_6
REMARK    4  A    between atoms: N_6  and  C_7
REMARK    5  A    between atoms: C_12  and  N_13
REMARK                            x       y       z     vdW  Elec       q    Type
REMARK                         _______ _______ _______ _____ _____    ______ ____
ROOT
ATOM      1  C   UNL     1       3.010   6.745  18.426  0.00  0.00    +0.000 A 
ATOM      2  C   UNL     1       2.487   7.906  19.045  0.00  0.00    +0.000 A 
ATOM      3  C   UNL     1       1.715   7.855  20.200  0.00  0.00    +0.000 A 
ATOM      4  C   UNL     1       1.470   6.628  20.786  0.00  0.00    +0.000 A 
ATOM      5  C   UNL     1       2.026   5.475  20.226  0.00  0.00    +0.000 A 
ATOM      6  C   UNL     1       2.824   5.475  19.053  0.00  0.00    +0.000 A 
ENDROOT
BRANCH   6   7
ATOM      7  N   UNL     1       3.379   4.264  18.636  0.00  0.00    +0.000 N 
ATOM      8  C   UNL     1       2.852   3.553  17.462  0.00  0.00    +0.000 C 
ATOM      9  C   UNL     1       2.477   2.121  17.851  0.00  0.00    +0.000 C 
ATOM     10  C   UNL     1       3.671   1.398  18.467  0.00  0.00    +0.000 C 
ATOM     11  C   UNL     1       4.193   2.176  19.669  0.00  0.00    +0.000 C 
ATOM     12  C   UNL     1       4.508   3.620  19.307  0.00  0.00    +0.000 C 
ENDBRANCH   6   7
BRANCH   1  13
ATOM     13  N   UNL     1       3.775   7.032  17.276  0.00  0.00    +0.000 N 
ATOM     14  H   UNL     1       3.473   7.928  16.899  0.00  0.00    +0.000 HD
BRANCH  13  15
ATOM     15  C   UNL     1       5.237   6.938  17.328  0.00  0.00    +0.000 C 
BRANCH  15  19
ATOM     16  C   UNL     1       6.454   3.872  13.452  0.00  0.00    +0.000 C 
ATOM     17  C   UNL     1       6.350   4.826  14.567  0.00  0.00    +0.000 A 
ATOM     18  C   UNL     1       5.294   5.380  15.241  0.00  0.00    +0.000 A 
ATOM     19  C   UNL     1       5.904   6.167  16.238  0.00  0.00    +0.000 A 
ATOM     20  N   UNL     1       7.244   6.116  16.160  0.00  0.00    +0.000 NA
ATOM     21  O   UNL     1       7.518   5.266  15.100  0.00  0.00    +0.000 OA
ENDBRANCH  15  19
ENDBRANCH  13  15
ENDBRANCH   1  13
TORSDOF 4
ENDMDL
MODEL 2
REMARK VINA RESULT:      -7.5      1.654      2.230
REMARK  Name = 
REMARK  5 active torsions:
REMARK  status: ('A' for Active; 'I' for Inactive)
REMARK    1  A    between atoms: C_1  and  C_2
REMARK    2  A    between atoms: C_4  and  C_5
REMARK    3  A    between atoms: C_5  and  N_6
REMARK    4  A    between atoms: N_6  and  C_7
REMARK    5  A    between atoms: C_12  and  N_13
REMARK                            x       y       z     vdW  Elec       q    Type
REMARK                         _______ _______ _______ _____ _____    ______ ____
ROOT
ATOM      1  C   UNL     1       4.440   5.636  17.761  0.00  0.00    +0.000 A 
ATOM      2  C   UNL     1       4.701   6.952  17.310  0.00  0.00    +0.000 A 
ATOM      3  C   UNL     1       3.742   7.959  17.345  0.00  0.00    +0.000 A 
ATOM      4  C   UNL     1       2.495   7.675  17.864  0.00  0.00    +0.000 A 
ATOM      5  C   UNL     1       2.233   6.399  18.370  0.00  0.00    +0.000 A 
ATOM      6  C   UNL     1       3.178   5.341  18.362  0.00  0.00    +0.000 A 
ENDROOT
BRANCH   6   7
ATOM      7  N   UNL     1       2.817   4.133  18.962  0.00  0.00    +0.000 N 
ATOM      8  C   UNL     1       2.195   3.054  18.180  0.00  0.00    +0.000 C 
ATOM      9  C   UNL     1       0.872   2.643  18.829  0.00  0.00    +0.000 C 
ATOM     10  C   UNL     1       1.085   2.242  20.285  0.00  0.00    +0.000 C 
ATOM     11  C   UNL     1       1.744   3.381  21.053  0.00  0.00    +0.000 C 
ATOM     12  C   UNL     1       3.028   3.842  20.379  0.00  0.00    +0.000 C 
ENDBRANCH   6   7
BRANCH   1  13
ATOM     13  N   UNL     1       5.559   4.784  17.647  0.00  0.00    +0.000 N 
ATOM     14  H   UNL     1       5.237   3.857  17.377  0.00  0.00    +0.000 HD
BRANCH  13  15
ATOM     15  C   UNL     1       6.717   5.202  16.851  0.00  0.00    +0.000 C 
BRANCH  15  19
ATOM     16  C   UNL     1       5.911   3.231  12.228  0.00  0.00    +0.000 C 
ATOM     17  C   UNL     1       6.296   3.967  13.441  0.00  0.00    +0.000 A 
ATOM     18  C   UNL     1       5.835   3.970  14.732  0.00  0.00    +0.000 A 
ATOM     19  C   UNL     1       6.693   4.868  15.396  0.00  0.00    +0.000 A 
ATOM     20  N   UNL     1       7.601   5.398  14.560  0.00  0.00    +0.000 NA
ATOM     21  O   UNL     1       7.342   4.824  13.326  0.00  0.00    +0.000 OA
ENDBRANCH  15  19
ENDBRANCH  13  15
ENDBRANCH   1  13
TORSDOF 4
ENDMDL
MODEL 3
REMARK VINA RESULT:      -7.5      1.606      2.481
REMARK  Name = 
REMARK  5 active torsions:
REMARK  status: ('A' for Active; 'I' for Inactive)
REMARK    1  A    between atoms: C_1  and  C_2
REMARK    2  A    between atoms: C_4  and  C_5
REMARK    3  A    between atoms: C_5  and  N_6
REMARK    4  A    between atoms: N_6  and  C_7
REMARK    5  A    between atoms: C_12  and  N_13
REMARK                            x       y       z     vdW  Elec       q    Type
REMARK                         _______ _______ _______ _____ _____    ______ ____
ROOT
ATOM      1  C   UNL     1       3.892   5.651  17.983  0.00  0.00    +0.000 A 
ATOM      2  C   UNL     1       4.501   6.785  17.393  0.00  0.00    +0.000 A 
ATOM      3  C   UNL     1       3.847   8.006  17.269  0.00  0.00    +0.000 A 
ATOM      4  C   UNL     1       2.564   8.129  17.764  0.00  0.00    +0.000 A 
ATOM      5  C   UNL     1       1.965   7.041  18.403  0.00  0.00    +0.000 A 
ATOM      6  C   UNL     1       2.591   5.777  18.560  0.00  0.00    +0.000 A 
ENDROOT
BRANCH   6   7
ATOM      7  N   UNL     1       1.914   4.793  19.280  0.00  0.00    +0.000 N 
ATOM      8  C   UNL     1       1.654   4.950  20.719  0.00  0.00    +0.000 C 
ATOM      9  C   UNL     1       2.205   3.742  21.479  0.00  0.00    +0.000 C 
ATOM     10  C   UNL     1       1.618   2.445  20.931  0.00  0.00    +0.000 C 
ATOM     11  C   UNL     1       1.897   2.330  19.438  0.00  0.00    +0.000 C 
ATOM     12  C   UNL     1       1.410   3.557  18.681  0.00  0.00    +0.000 C 
ENDBRANCH   6   7
BRANCH   1  13
ATOM     13  N   UNL     1       4.743   4.526  18.017  0.00  0.00    +0.000 N 
ATOM     14  H   UNL     1       4.293   3.762  17.517  0.00  0.00    +0.000 HD
BRANCH  13  15
ATOM     15  C   UNL     1       6.151   4.663  17.633  0.00  0.00    +0.000 C 
BRANCH  15  19
ATOM     16  C   UNL     1       6.518   3.783  12.633  0.00  0.00    +0.000 C 
ATOM     17  C   UNL     1       6.563   4.240  14.031  0.00  0.00    +0.000 A 
ATOM     18  C   UNL     1       5.863   3.901  15.159  0.00  0.00    +0.000 A 
ATOM     19  C   UNL     1       6.454   4.681  16.171  0.00  0.00    +0.000 A 
ATOM     20  N   UNL     1       7.433   5.463  15.688  0.00  0.00    +0.000 NA
ATOM     21  O   UNL     1       7.495   5.178  14.333  0.00  0.00    +0.000 OA
ENDBRANCH  15  19
ENDBRANCH  13  15
ENDBRANCH   1  13
TORSDOF 4
ENDMDL
MODEL 4
REMARK VINA RESULT:      -7.4      1.729      4.137
REMARK  Name = 
REMARK  5 active torsions:
REMARK  status: ('A' for Active; 'I' for Inactive)
REMARK    1  A    between atoms: C_1  and  C_2
REMARK    2  A    between atoms: C_4  and  C_5
REMARK    3  A    between atoms: C_5  and  N_6
REMARK    4  A    between atoms: N_6  and  C_7
REMARK    5  A    between atoms: C_12  and  N_13
REMARK                            x       y       z     vdW  Elec       q    Type
REMARK                         _______ _______ _______ _____ _____    ______ ____
ROOT
ATOM      1  C   UNL     1       3.525   5.121  19.691  0.00  0.00    +0.000 A 
ATOM      2  C   UNL     1       3.447   3.713  19.821  0.00  0.00    +0.000 A 
ATOM      3  C   UNL     1       2.289   3.063  20.232  0.00  0.00    +0.000 A 
ATOM      4  C   UNL     1       1.161   3.813  20.498  0.00  0.00    +0.000 A 
ATOM      5  C   UNL     1       1.197   5.198  20.319  0.00  0.00    +0.000 A 
ATOM      6  C   UNL     1       2.351   5.907  19.897  0.00  0.00    +0.000 A 
ENDROOT
BRANCH   6   7
ATOM      7  N   UNL     1       2.238   7.283  19.688  0.00  0.00    +0.000 N 
ATOM      8  C   UNL     1       1.785   8.178  20.764  0.00  0.00    +0.000 C 
ATOM      9  C   UNL     1       0.586   8.997  20.283  0.00  0.00    +0.000 C 
ATOM     10  C   UNL     1       0.929   9.763  19.009  0.00  0.00    +0.000 C 
ATOM     11  C   UNL     1       1.407   8.801  17.929  0.00  0.00    +0.000 C 
ATOM     12  C   UNL     1       2.558   7.935  18.419  0.00  0.00    +0.000 C 
ENDBRANCH   6   7
BRANCH   1  13
ATOM     13  N   UNL     1       4.790   5.562  19.247  0.00  0.00    +0.000 N 
ATOM     14  H   UNL     1       5.133   6.272  19.891  0.00  0.00    +0.000 HD
BRANCH  13  15
ATOM     15  C   UNL     1       5.833   4.583  18.923  0.00  0.00    +0.000 C 
BRANCH  15  19
ATOM     16  C   UNL     1       6.353   4.040  13.890  0.00  0.00    +0.000 C 
ATOM     17  C   UNL     1       6.447   4.279  15.338  0.00  0.00    +0.000 A 
ATOM     18  C   UNL     1       5.524   4.319  16.350  0.00  0.00    +0.000 A 
ATOM     19  C   UNL     1       6.299   4.537  17.506  0.00  0.00    +0.000 A 
ATOM     20  N   UNL     1       7.605   4.649  17.214  0.00  0.00    +0.000 NA
ATOM     21  O   UNL     1       7.689   4.486  15.841  0.00  0.00    +0.000 OA
ENDBRANCH  15  19
ENDBRANCH  13  15
ENDBRANCH   1  13
TORSDOF 4
ENDMDL
MODEL 5
REMARK VINA RESULT:      -7.3      1.498      4.043
REMARK  Name = 
REMARK  5 active torsions:
REMARK  status: ('A' for Active; 'I' for Inactive)
REMARK    1  A    between atoms: C_1  and  C_2
REMARK    2  A    between atoms: C_4  and  C_5
REMARK    3  A    between atoms: C_5  and  N_6
REMARK    4  A    between atoms: N_6  and  C_7
REMARK    5  A    between atoms: C_12  and  N_13
REMARK                            x       y       z     vdW  Elec       q    Type
REMARK                         _______ _______ _______ _____ _____    ______ ____
ROOT
ATOM      1  C   UNL     1       3.983   4.783  18.200  0.00  0.00    +0.000 A 
ATOM      2  C   UNL     1       3.917   3.426  17.804  0.00  0.00    +0.000 A 
ATOM      3  C   UNL     1       2.723   2.715  17.766  0.00  0.00    +0.000 A 
ATOM      4  C   UNL     1       1.550   3.362  18.099  0.00  0.00    +0.000 A 
ATOM      5  C   UNL     1       1.583   4.717  18.436  0.00  0.00    +0.000 A 
ATOM      6  C   UNL     1       2.774   5.488  18.484  0.00  0.00    +0.000 A 
ENDROOT
BRANCH   6   7
ATOM      7  N   UNL     1       2.664   6.850  18.766  0.00  0.00    +0.000 N 
ATOM      8  C   UNL     1       2.322   7.320  20.116  0.00  0.00    +0.000 C 
ATOM      9  C   UNL     1       1.098   8.236  20.050  0.00  0.00    +0.000 C 
ATOM     10  C   UNL     1       1.341   9.394  19.087  0.00  0.00    +0.000 C 
ATOM     11  C   UNL     1       1.706   8.863  17.707  0.00  0.00    +0.000 C 
ATOM     12  C   UNL     1       2.882   7.900  17.771  0.00  0.00    +0.000 C 
ENDBRANCH   6   7
BRANCH   1  13
ATOM     13  N   UNL     1       5.292   5.307  18.150  0.00  0.00    +0.000 N 
ATOM     14  H   UNL     1       5.538   5.660  19.072  0.00  0.00    +0.000 HD
BRANCH  13  15
ATOM     15  C   UNL     1       6.378   4.506  17.576  0.00  0.00    +0.000 C 
BRANCH  15  19
ATOM     16  C   UNL     1       6.684   3.971  12.524  0.00  0.00    +0.000 C 
ATOM     17  C   UNL     1       6.715   4.350  13.944  0.00  0.00    +0.000 A 
ATOM     18  C   UNL     1       6.111   3.851  15.069  0.00  0.00    +0.000 A 
ATOM     19  C   UNL     1       6.622   4.650  16.110  0.00  0.00    +0.000 A 
ATOM     20  N   UNL     1       7.462   5.591  15.648  0.00  0.00    +0.000 NA
ATOM     21  O   UNL     1       7.514   5.395  14.277  0.00  0.00    +0.000 OA
ENDBRANCH  15  19
ENDBRANCH  13  15
ENDBRANCH   1  13
TORSDOF 4
ENDMDL
MODEL 6
REMARK VINA RESULT:      -7.3      2.969      5.835
REMARK  Name = 
REMARK  5 active torsions:
REMARK  status: ('A' for Active; 'I' for Inactive)
REMARK    1  A    between atoms: C_1  and  C_2
REMARK    2  A    between atoms: C_4  and  C_5
REMARK    3  A    between atoms: C_5  and  N_6
REMARK    4  A    between atoms: N_6  and  C_7
REMARK    5  A    between atoms: C_12  and  N_13
REMARK                            x       y       z     vdW  Elec       q    Type
REMARK                         _______ _______ _______ _____ _____    ______ ____
ROOT
ATOM      1  C   UNL     1       3.810   5.786  18.157  0.00  0.00    +0.000 A 
ATOM      2  C   UNL     1       4.544   6.482  17.167  0.00  0.00    +0.000 A 
ATOM      3  C   UNL     1       5.198   5.833  16.125  0.00  0.00    +0.000 A 
ATOM      4  C   UNL     1       5.106   4.459  16.033  0.00  0.00    +0.000 A 
ATOM      5  C   UNL     1       4.338   3.756  16.964  0.00  0.00    +0.000 A 
ATOM      6  C   UNL     1       3.649   4.371  18.041  0.00  0.00    +0.000 A 
ENDROOT
BRANCH   6   7
ATOM      7  N   UNL     1       2.857   3.566  18.861  0.00  0.00    +0.000 N 
ATOM      8  C   UNL     1       1.391   3.677  18.846  0.00  0.00    +0.000 C 
ATOM      9  C   UNL     1       0.878   3.933  20.265  0.00  0.00    +0.000 C 
ATOM     10  C   UNL     1       1.358   2.842  21.218  0.00  0.00    +0.000 C 
ATOM     11  C   UNL     1       2.878   2.751  21.191  0.00  0.00    +0.000 C 
ATOM     12  C   UNL     1       3.403   2.562  19.775  0.00  0.00    +0.000 C 
ENDBRANCH   6   7
BRANCH   1  13
ATOM     13  N   UNL     1       3.219   6.644  19.108  0.00  0.00    +0.000 N 
ATOM     14  H   UNL     1       3.956   7.070  19.666  0.00  0.00    +0.000 HD
BRANCH  13  15
ATOM     15  C   UNL     1       2.230   7.638  18.680  0.00  0.00    +0.000 C 
BRANCH  15  19
ATOM     16  C   UNL     1       0.003   9.393  22.907  0.00  0.00    +0.000 C 
ATOM     17  C   UNL     1       0.625   9.128  21.601  0.00  0.00    +0.000 A 
ATOM     18  C   UNL     1       1.317   8.064  21.082  0.00  0.00    +0.000 A 
ATOM     19  C   UNL     1       1.577   8.446  19.751  0.00  0.00    +0.000 A 
ATOM     20  N   UNL     1       1.099   9.673  19.484  0.00  0.00    +0.000 NA
ATOM     21  O   UNL     1       0.499  10.097  20.660  0.00  0.00    +0.000 OA
ENDBRANCH  15  19
ENDBRANCH  13  15
ENDBRANCH   1  13
TORSDOF 4
ENDMDL
MODEL 7
REMARK VINA RESULT:      -7.3      0.746      1.366
REMARK  Name = 
REMARK  5 active torsions:
REMARK  status: ('A' for Active; 'I' for Inactive)
REMARK    1  A    between atoms: C_1  and  C_2
REMARK    2  A    between atoms: C_4  and  C_5
REMARK    3  A    between atoms: C_5  and  N_6
REMARK    4  A    between atoms: N_6  and  C_7
REMARK    5  A    between atoms: C_12  and  N_13
REMARK                            x       y       z     vdW  Elec       q    Type
REMARK                         _______ _______ _______ _____ _____    ______ ____
ROOT
ATOM      1  C   UNL     1       2.788   6.198  18.583  0.00  0.00    +0.000 A 
ATOM      2  C   UNL     1       2.648   7.578  18.869  0.00  0.00    +0.000 A 
ATOM      3  C   UNL     1       1.930   8.045  19.964  0.00  0.00    +0.000 A 
ATOM      4  C   UNL     1       1.355   7.131  20.824  0.00  0.00    +0.000 A 
ATOM      5  C   UNL     1       1.530   5.765  20.595  0.00  0.00    +0.000 A 
ATOM      6  C   UNL     1       2.257   5.238  19.496  0.00  0.00    +0.000 A 
ENDROOT
BRANCH   6   7
ATOM      7  N   UNL     1       2.420   3.854  19.419  0.00  0.00    +0.000 N 
ATOM      8  C   UNL     1       3.332   3.146  20.330  0.00  0.00    +0.000 C 
ATOM      9  C   UNL     1       4.336   2.324  19.519  0.00  0.00    +0.000 C 
ATOM     10  C   UNL     1       3.615   1.366  18.575  0.00  0.00    +0.000 C 
ATOM     11  C   UNL     1       2.671   2.139  17.662  0.00  0.00    +0.000 C 
ATOM     12  C   UNL     1       1.710   3.010  18.458  0.00  0.00    +0.000 C 
ENDBRANCH   6   7
BRANCH   1  13
ATOM     13  N   UNL     1       3.568   5.953  17.433  0.00  0.00    +0.000 N 
ATOM     14  H   UNL     1       3.260   6.576  16.690  0.00  0.00    +0.000 HD
BRANCH  13  15
ATOM     15  C   UNL     1       5.031   5.923  17.535  0.00  0.00    +0.000 C 
BRANCH  15  19
ATOM     16  C   UNL     1       6.712   3.950  13.155  0.00  0.00    +0.000 C 
ATOM     17  C   UNL     1       6.443   4.659  14.415  0.00  0.00    +0.000 A 
ATOM     18  C   UNL     1       5.339   4.769  15.220  0.00  0.00    +0.000 A 
ATOM     19  C   UNL     1       5.787   5.552  16.303  0.00  0.00    +0.000 A 
ATOM     20  N   UNL     1       7.071   5.917  16.154  0.00  0.00    +0.000 NA
ATOM     21  O   UNL     1       7.478   5.349  14.958  0.00  0.00    +0.000 OA
ENDBRANCH  15  19
ENDBRANCH  13  15
ENDBRANCH   1  13
TORSDOF 4
ENDMDL
MODEL 8
REMARK VINA RESULT:      -7.2      3.166      6.297
REMARK  Name = 
REMARK  5 active torsions:
REMARK  status: ('A' for Active; 'I' for Inactive)
REMARK    1  A    between atoms: C_1  and  C_2
REMARK    2  A    between atoms: C_4  and  C_5
REMARK    3  A    between atoms: C_5  and  N_6
REMARK    4  A    between atoms: N_6  and  C_7
REMARK    5  A    between atoms: C_12  and  N_13
REMARK                            x       y       z     vdW  Elec       q    Type
REMARK                         _______ _______ _______ _____ _____    ______ ____
ROOT
ATOM      1  C   UNL     1       2.325   5.040  19.815  0.00  0.00    +0.000 A 
ATOM      2  C   UNL     1       1.215   4.448  20.463  0.00  0.00    +0.000 A 
ATOM      3  C   UNL     1       0.746   3.180  20.137  0.00  0.00    +0.000 A 
ATOM      4  C   UNL     1       1.405   2.455  19.163  0.00  0.00    +0.000 A 
ATOM      5  C   UNL     1       2.539   2.995  18.552  0.00  0.00    +0.000 A 
ATOM      6  C   UNL     1       3.059   4.281  18.853  0.00  0.00    +0.000 A 
ENDROOT
BRANCH   6   7
ATOM      7  N   UNL     1       4.240   4.676  18.224  0.00  0.00    +0.000 N 
ATOM      8  C   UNL     1       5.551   4.248  18.735  0.00  0.00    +0.000 C 
ATOM      9  C   UNL     1       6.431   5.474  18.989  0.00  0.00    +0.000 C 
ATOM     10  C   UNL     1       6.559   6.319  17.726  0.00  0.00    +0.000 C 
ATOM     11  C   UNL     1       5.180   6.727  17.224  0.00  0.00    +0.000 C 
ATOM     12  C   UNL     1       4.275   5.519  17.029  0.00  0.00    +0.000 C 
ENDBRANCH   6   7
BRANCH   1  13
ATOM     13  N   UNL     1       2.633   6.322  20.315  0.00  0.00    +0.000 N 
ATOM     14  H   UNL     1       3.632   6.368  20.505  0.00  0.00    +0.000 HD
BRANCH  13  15
ATOM     15  C   UNL     1       2.168   7.516  19.602  0.00  0.00    +0.000 C 
BRANCH  15  19
ATOM     16  C   UNL     1      -0.572  10.047  23.065  0.00  0.00    +0.000 C 
ATOM     17  C   UNL     1       0.202   9.531  21.925  0.00  0.00    +0.000 A 
ATOM     18  C   UNL     1       0.977   8.417  21.736  0.00  0.00    +0.000 A 
ATOM     19  C   UNL     1       1.376   8.507  20.388  0.00  0.00    +0.000 A 
ATOM     20  N   UNL     1       0.898   9.617  19.802  0.00  0.00    +0.000 NA
ATOM     21  O   UNL     1       0.157  10.259  20.781  0.00  0.00    +0.000 OA
ENDBRANCH  15  19
ENDBRANCH  13  15
ENDBRANCH   1  13
TORSDOF 4
ENDMDL
MODEL 9
REMARK VINA RESULT:      -7.2      1.296      3.968
REMARK  Name = 
REMARK  5 active torsions:
REMARK  status: ('A' for Active; 'I' for Inactive)
REMARK    1  A    between atoms: C_1  and  C_2
REMARK    2  A    between atoms: C_4  and  C_5
REMARK    3  A    between atoms: C_5  and  N_6
REMARK    4  A    between atoms: N_6  and  C_7
REMARK    5  A    between atoms: C_12  and  N_13
REMARK                            x       y       z     vdW  Elec       q    Type
REMARK                         _______ _______ _______ _____ _____    ______ ____
ROOT
ATOM      1  C   UNL     1       3.905   3.770  19.103  0.00  0.00    +0.000 A 
ATOM      2  C   UNL     1       3.737   2.401  18.784  0.00  0.00    +0.000 A 
ATOM      3  C   UNL     1       2.515   1.870  18.387  0.00  0.00    +0.000 A 
ATOM      4  C   UNL     1       1.427   2.712  18.271  0.00  0.00    +0.000 A 
ATOM      5  C   UNL     1       1.583   4.077  18.523  0.00  0.00    +0.000 A 
ATOM      6  C   UNL     1       2.809   4.668  18.925  0.00  0.00    +0.000 A 
ENDROOT
BRANCH   6   7
ATOM      7  N   UNL     1       2.851   6.055  19.076  0.00  0.00    +0.000 N 
ATOM      8  C   UNL     1       2.592   6.684  20.380  0.00  0.00    +0.000 C 
ATOM      9  C   UNL     1       1.472   7.716  20.242  0.00  0.00    +0.000 C 
ATOM     10  C   UNL     1       1.814   8.746  19.170  0.00  0.00    +0.000 C 
ATOM     11  C   UNL     1       2.089   8.052  17.843  0.00  0.00    +0.000 C 
ATOM     12  C   UNL     1       3.157   6.977  17.983  0.00  0.00    +0.000 C 
ENDBRANCH   6   7
BRANCH   1  13
ATOM     13  N   UNL     1       5.230   4.091  19.465  0.00  0.00    +0.000 N 
ATOM     14  H   UNL     1       5.778   3.233  19.492  0.00  0.00    +0.000 HD
BRANCH  13  15
ATOM     15  C   UNL     1       5.943   5.160  18.759  0.00  0.00    +0.000 C 
BRANCH  15  19
ATOM     16  C   UNL     1       6.237   3.955  13.823  0.00  0.00    +0.000 C 
ATOM     17  C   UNL     1       6.404   4.349  15.230  0.00  0.00    +0.000 A 
ATOM     18  C   UNL     1       5.526   4.637  16.241  0.00  0.00    +0.000 A 
ATOM     19  C   UNL     1       6.357   4.881  17.352  0.00  0.00    +0.000 A 
ATOM     20  N   UNL     1       7.657   4.776  17.032  0.00  0.00    +0.000 NA
ATOM     21  O   UNL     1       7.678   4.440  15.688  0.00  0.00    +0.000 OA
ENDBRANCH  15  19
ENDBRANCH  13  15
ENDBRANCH   1  13
TORSDOF 4
ENDMDL
