MODEL 1
REMARK VINA RESULT:      -8.2      0.000      0.000
REMARK  Name = 
REMARK  8 active torsions:
REMARK  status: ('A' for Active; 'I' for Inactive)
REMARK    1  A    between atoms: C_1  and  C_2
REMARK    2  A    between atoms: C_6  and  N_7
REMARK    3  A    between atoms: C_8  and  C_10
REMARK    4  A    between atoms: C_10  and  N_11
REMARK    5  A    between atoms: C_12  and  C_14
REMARK    6  A    between atoms: C_17  and  N_18
REMARK    7  A    between atoms: C_23  and  N_24
REMARK    8  A    between atoms: C_28  and  C_29
REMARK                            x       y       z     vdW  Elec       q    Type
REMARK                         _______ _______ _______ _____ _____    ______ ____
ROOT
ATOM      1  N   UNL     1       7.145   7.766  17.236  0.00  0.00    +0.000 N 
ATOM      2  C   UNL     1       8.095   8.099  18.165  0.00  0.00    +0.000 C 
ATOM      3  O   UNL     1       8.667   7.266  18.858  0.00  0.00    +0.000 OA
ATOM      4  H   UNL     1       6.687   8.469  16.669  0.00  0.00    +0.000 HD
ENDROOT
BRANCH   2   5
ATOM      5  C   UNL     1       8.395   9.542  18.335  0.00  0.00    +0.000 A 
ATOM      6  C   UNL     1       7.838  10.444  17.421  0.00  0.00    +0.000 A 
ATOM      7  C   UNL     1       8.153  11.806  17.484  0.00  0.00    +0.000 A 
ATOM      8  C   UNL     1       9.025  12.290  18.474  0.00  0.00    +0.000 A 
ATOM      9  C   UNL     1       9.561  11.375  19.398  0.00  0.00    +0.000 A 
ATOM     10  C   UNL     1       9.264  10.003  19.325  0.00  0.00    +0.000 A 
BRANCH   8  11
ATOM     11  N   UNL     1       9.309  13.675  18.517  0.00  0.00    +0.000 N 
ATOM     12  C   UNL     1      10.292  14.365  17.847  0.00  0.00    +0.000 A 
ATOM     13  N   UNL     1      10.212  15.648  18.109  0.00  0.00    +0.000 NA
ATOM     14  C   UNL     1       9.147  15.712  18.955  0.00  0.00    +0.000 A 
ATOM     15  N   UNL     1       8.555  14.546  19.218  0.00  0.00    +0.000 NA
ENDBRANCH   8  11
BRANCH   9  16
ATOM     16  N   UNL     1      10.559  11.752  20.387  0.00  0.00    +0.000 N 
ATOM     17  O   UNL     1      10.143  12.209  21.459  0.00  0.00    +0.000 OA
ATOM     18  O   UNL     1      11.742  11.716  20.019  0.00  0.00    +0.000 OA
ENDBRANCH   9  16
ENDBRANCH   2   5
BRANCH   1  19
ATOM     19  C   UNL     1       6.764   6.382  17.013  0.00  0.00    +0.000 C 
BRANCH  19  21
ATOM     20  N   UNL     1       4.483   5.906  17.772  0.00  0.00    +0.000 N 
ATOM     21  C   UNL     1       5.829   5.867  18.112  0.00  0.00    +0.000 C 
ATOM     22  O   UNL     1       6.314   5.499  19.180  0.00  0.00    +0.000 OA
ATOM     23  H   UNL     1       4.289   6.283  16.849  0.00  0.00    +0.000 HD
BRANCH  20  29
ATOM     24  C   UNL     1       0.812   2.625  18.885  0.00  0.00    +0.000 C 
ATOM     25  C   UNL     1       1.582   3.902  19.112  0.00  0.00    +0.000 A 
ATOM     26  C   UNL     1       1.182   4.720  20.177  0.00  0.00    +0.000 A 
ATOM     27  C   UNL     1       1.857   5.898  20.439  0.00  0.00    +0.000 A 
ATOM     28  C   UNL     1       2.941   6.273  19.647  0.00  0.00    +0.000 A 
ATOM     29  C   UNL     1       3.374   5.493  18.564  0.00  0.00    +0.000 A 
ATOM     30  C   UNL     1       2.684   4.283  18.288  0.00  0.00    +0.000 A 
ATOM     31  C   UNL     1       3.051   3.355  17.153  0.00  0.00    +0.000 C 
ENDBRANCH  20  29
ENDBRANCH  19  21
ENDBRANCH   1  19
TORSDOF 6
ENDMDL
MODEL 2
REMARK VINA RESULT:      -8.1      6.813     10.210
REMARK  Name = 
REMARK  8 active torsions:
REMARK  status: ('A' for Active; 'I' for Inactive)
REMARK    1  A    between atoms: C_1  and  C_2
REMARK    2  A    between atoms: C_6  and  N_7
REMARK    3  A    between atoms: C_8  and  C_10
REMARK    4  A    between atoms: C_10  and  N_11
REMARK    5  A    between atoms: C_12  and  C_14
REMARK    6  A    between atoms: C_17  and  N_18
REMARK    7  A    between atoms: C_23  and  N_24
REMARK    8  A    between atoms: C_28  and  C_29
REMARK                            x       y       z     vdW  Elec       q    Type
REMARK                         _______ _______ _______ _____ _____    ______ ____
ROOT
ATOM      1  N   UNL     1       1.368   9.560  19.762  0.00  0.00    +0.000 N 
ATOM      2  C   UNL     1       1.231   8.544  20.671  0.00  0.00    +0.000 C 
ATOM      3  O   UNL     1       0.709   8.700  21.768  0.00  0.00    +0.000 OA
ATOM      4  H   UNL     1       1.798   9.409  18.858  0.00  0.00    +0.000 HD
ENDROOT
BRANCH   2   5
ATOM      5  C   UNL     1       1.779   7.220  20.288  0.00  0.00    +0.000 A 
ATOM      6  C   UNL     1       2.543   7.134  19.120  0.00  0.00    +0.000 A 
ATOM      7  C   UNL     1       3.016   5.897  18.667  0.00  0.00    +0.000 A 
ATOM      8  C   UNL     1       2.738   4.722  19.387  0.00  0.00    +0.000 A 
ATOM      9  C   UNL     1       1.986   4.826  20.570  0.00  0.00    +0.000 A 
ATOM     10  C   UNL     1       1.491   6.064  21.017  0.00  0.00    +0.000 A 
BRANCH   8  11
ATOM     11  N   UNL     1       3.245   3.491  18.908  0.00  0.00    +0.000 N 
ATOM     12  C   UNL     1       4.258   2.724  19.433  0.00  0.00    +0.000 A 
ATOM     13  N   UNL     1       4.412   1.625  18.733  0.00  0.00    +0.000 NA
ATOM     14  C   UNL     1       3.457   1.751  17.770  0.00  0.00    +0.000 A 
ATOM     15  N   UNL     1       2.712   2.855  17.846  0.00  0.00    +0.000 NA
ENDBRANCH   8  11
BRANCH   9  16
ATOM     16  N   UNL     1       1.547   3.662  21.327  0.00  0.00    +0.000 N 
ATOM     17  O   UNL     1       2.230   3.339  22.306  0.00  0.00    +0.000 OA
ATOM     18  O   UNL     1       0.609   3.013  20.843  0.00  0.00    +0.000 OA
ENDBRANCH   9  16
ENDBRANCH   2   5
BRANCH   1  19
ATOM     19  C   UNL     1       0.885  10.899  20.053  0.00  0.00    +0.000 C 
BRANCH  19  21
ATOM     20  N   UNL     1      -1.111  10.472  18.698  0.00  0.00    +0.000 N 
ATOM     21  C   UNL     1      -0.109  11.387  18.994  0.00  0.00    +0.000 C 
ATOM     22  O   UNL     1       0.062  12.492  18.483  0.00  0.00    +0.000 OA
ATOM     23  H   UNL     1      -1.051   9.596  19.207  0.00  0.00    +0.000 HD
BRANCH  20  29
ATOM     24  C   UNL     1      -5.618  12.348  17.414  0.00  0.00    +0.000 C 
ATOM     25  C   UNL     1      -4.378  11.535  17.140  0.00  0.00    +0.000 A 
ATOM     26  C   UNL     1      -4.278  10.905  15.892  0.00  0.00    +0.000 A 
ATOM     27  C   UNL     1      -3.159  10.153  15.581  0.00  0.00    +0.000 A 
ATOM     28  C   UNL     1      -2.125  10.024  16.507  0.00  0.00    +0.000 A 
ATOM     29  C   UNL     1      -2.183  10.628  17.772  0.00  0.00    +0.000 A 
ATOM     30  C   UNL     1      -3.329  11.399  18.099  0.00  0.00    +0.000 A 
ATOM     31  C   UNL     1      -3.512  12.098  19.426  0.00  0.00    +0.000 C 
ENDBRANCH  20  29
ENDBRANCH  19  21
ENDBRANCH   1  19
TORSDOF 6
ENDMDL
MODEL 3
REMARK VINA RESULT:      -8.1      8.359     10.675
REMARK  Name = 
REMARK  8 active torsions:
REMARK  status: ('A' for Active; 'I' for Inactive)
REMARK    1  A    between atoms: C_1  and  C_2
REMARK    2  A    between atoms: C_6  and  N_7
REMARK    3  A    between atoms: C_8  and  C_10
REMARK    4  A    between atoms: C_10  and  N_11
REMARK    5  A    between atoms: C_12  and  C_14
REMARK    6  A    between atoms: C_17  and  N_18
REMARK    7  A    between atoms: C_23  and  N_24
REMARK    8  A    between atoms: C_28  and  C_29
REMARK                            x       y       z     vdW  Elec       q    Type
REMARK                         _______ _______ _______ _____ _____    ______ ____
ROOT
ATOM      1  N   UNL     1       0.049   9.650  21.781  0.00  0.00    +0.000 N 
ATOM      2  C   UNL     1      -0.017  11.019  21.757  0.00  0.00    +0.000 C 
ATOM      3  O   UNL     1       0.980  11.731  21.724  0.00  0.00    +0.000 OA
ATOM      4  H   UNL     1      -0.787   9.080  21.804  0.00  0.00    +0.000 HD
ENDROOT
BRANCH   2   5
ATOM      5  C   UNL     1      -1.367  11.630  21.805  0.00  0.00    +0.000 A 
ATOM      6  C   UNL     1      -1.931  12.082  20.606  0.00  0.00    +0.000 A 
ATOM      7  C   UNL     1      -3.166  12.739  20.604  0.00  0.00    +0.000 A 
ATOM      8  C   UNL     1      -3.865  12.946  21.806  0.00  0.00    +0.000 A 
ATOM      9  C   UNL     1      -3.296  12.469  23.000  0.00  0.00    +0.000 A 
ATOM     10  C   UNL     1      -2.045  11.826  23.009  0.00  0.00    +0.000 A 
BRANCH   8  11
ATOM     11  N   UNL     1      -5.118  13.601  21.764  0.00  0.00    +0.000 N 
ATOM     12  C   UNL     1      -6.371  13.041  21.670  0.00  0.00    +0.000 A 
ATOM     13  N   UNL     1      -7.294  13.973  21.703  0.00  0.00    +0.000 NA
ATOM     14  C   UNL     1      -6.559  15.113  21.823  0.00  0.00    +0.000 A 
ATOM     15  N   UNL     1      -5.238  14.939  21.882  0.00  0.00    +0.000 NA
ENDBRANCH   8  11
BRANCH   9  16
ATOM     16  N   UNL     1      -3.880  12.730  24.307  0.00  0.00    +0.000 N 
ATOM     17  O   UNL     1      -4.741  11.936  24.706  0.00  0.00    +0.000 OA
ATOM     18  O   UNL     1      -3.567  13.802  24.846  0.00  0.00    +0.000 OA
ENDBRANCH   9  16
ENDBRANCH   2   5
BRANCH   1  19
ATOM     19  C   UNL     1       1.326   8.959  21.762  0.00  0.00    +0.000 C 
BRANCH  19  21
ATOM     20  N   UNL     1       2.217   7.012  20.568  0.00  0.00    +0.000 N 
ATOM     21  C   UNL     1       1.555   8.227  20.435  0.00  0.00    +0.000 C 
ATOM     22  O   UNL     1       1.179   8.757  19.392  0.00  0.00    +0.000 OA
ATOM     23  H   UNL     1       2.477   6.772  21.520  0.00  0.00    +0.000 HD
BRANCH  20  29
ATOM     24  C   UNL     1       1.793   2.527  18.292  0.00  0.00    +0.000 C 
ATOM     25  C   UNL     1       2.369   3.915  18.421  0.00  0.00    +0.000 A 
ATOM     26  C   UNL     1       3.299   4.324  17.455  0.00  0.00    +0.000 A 
ATOM     27  C   UNL     1       3.853   5.589  17.518  0.00  0.00    +0.000 A 
ATOM     28  C   UNL     1       3.486   6.464  18.539  0.00  0.00    +0.000 A 
ATOM     29  C   UNL     1       2.567   6.097  19.535  0.00  0.00    +0.000 A 
ATOM     30  C   UNL     1       1.995   4.799  19.478  0.00  0.00    +0.000 A 
ATOM     31  C   UNL     1       0.996   4.284  20.488  0.00  0.00    +0.000 C 
ENDBRANCH  20  29
ENDBRANCH  19  21
ENDBRANCH   1  19
TORSDOF 6
ENDMDL
MODEL 4
REMARK VINA RESULT:      -8.1      5.648      9.267
REMARK  Name = 
REMARK  8 active torsions:
REMARK  status: ('A' for Active; 'I' for Inactive)
REMARK    1  A    between atoms: C_1  and  C_2
REMARK    2  A    between atoms: C_6  and  N_7
REMARK    3  A    between atoms: C_8  and  C_10
REMARK    4  A    between atoms: C_10  and  N_11
REMARK    5  A    between atoms: C_12  and  C_14
REMARK    6  A    between atoms: C_17  and  N_18
REMARK    7  A    between atoms: C_23  and  N_24
REMARK    8  A    between atoms: C_28  and  C_29
REMARK                            x       y       z     vdW  Elec       q    Type
REMARK                         _______ _______ _______ _____ _____    ______ ____
ROOT
ATOM      1  N   UNL     1       1.282   8.997  19.478  0.00  0.00    +0.000 N 
ATOM      2  C   UNL     1       1.764   7.785  19.901  0.00  0.00    +0.000 C 
ATOM      3  O   UNL     1       1.400   7.254  20.944  0.00  0.00    +0.000 OA
ATOM      4  H   UNL     1       1.593   9.417  18.610  0.00  0.00    +0.000 HD
ENDROOT
BRANCH   2   5
ATOM      5  C   UNL     1       2.791   7.134  19.052  0.00  0.00    +0.000 A 
ATOM      6  C   UNL     1       3.158   7.766  17.859  0.00  0.00    +0.000 A 
ATOM      7  C   UNL     1       4.062   7.157  16.980  0.00  0.00    +0.000 A 
ATOM      8  C   UNL     1       4.622   5.906  17.290  0.00  0.00    +0.000 A 
ATOM      9  C   UNL     1       4.259   5.292  18.501  0.00  0.00    +0.000 A 
ATOM     10  C   UNL     1       3.336   5.891  19.377  0.00  0.00    +0.000 A 
BRANCH   8  11
ATOM     11  N   UNL     1       5.543   5.328  16.385  0.00  0.00    +0.000 N 
ATOM     12  C   UNL     1       6.912   5.460  16.360  0.00  0.00    +0.000 A 
ATOM     13  N   UNL     1       7.425   4.735  15.395  0.00  0.00    +0.000 NA
ATOM     14  C   UNL     1       6.324   4.158  14.839  0.00  0.00    +0.000 A 
ATOM     15  N   UNL     1       5.163   4.471  15.415  0.00  0.00    +0.000 NA
ENDBRANCH   8  11
BRANCH   9  16
ATOM     16  N   UNL     1       4.691   3.950  18.862  0.00  0.00    +0.000 N 
ATOM     17  O   UNL     1       5.746   3.853  19.502  0.00  0.00    +0.000 OA
ATOM     18  O   UNL     1       4.041   3.013  18.378  0.00  0.00    +0.000 OA
ENDBRANCH   9  16
ENDBRANCH   2   5
BRANCH   1  19
ATOM     19  C   UNL     1       0.292   9.724  20.252  0.00  0.00    +0.000 C 
BRANCH  19  21
ATOM     20  N   UNL     1       0.277  11.987  19.310  0.00  0.00    +0.000 N 
ATOM     21  C   UNL     1       0.659  11.206  20.394  0.00  0.00    +0.000 C 
ATOM     22  O   UNL     1       1.264  11.574  21.398  0.00  0.00    +0.000 OA
ATOM     23  H   UNL     1      -0.180  11.478  18.560  0.00  0.00    +0.000 HD
BRANCH  20  29
ATOM     24  C   UNL     1       3.069  15.946  17.891  0.00  0.00    +0.000 C 
ATOM     25  C   UNL     1       1.817  15.323  18.456  0.00  0.00    +0.000 A 
ATOM     26  C   UNL     1       0.774  16.183  18.828  0.00  0.00    +0.000 A 
ATOM     27  C   UNL     1      -0.401  15.667  19.343  0.00  0.00    +0.000 A 
ATOM     28  C   UNL     1      -0.554  14.290  19.491  0.00  0.00    +0.000 A 
ATOM     29  C   UNL     1       0.464  13.389  19.142  0.00  0.00    +0.000 A 
ATOM     30  C   UNL     1       1.674  13.911  18.614  0.00  0.00    +0.000 A 
ATOM     31  C   UNL     1       2.844  13.048  18.202  0.00  0.00    +0.000 C 
ENDBRANCH  20  29
ENDBRANCH  19  21
ENDBRANCH   1  19
TORSDOF 6
ENDMDL
MODEL 5
REMARK VINA RESULT:      -8.1      6.103      9.063
REMARK  Name = 
REMARK  8 active torsions:
REMARK  status: ('A' for Active; 'I' for Inactive)
REMARK    1  A    between atoms: C_1  and  C_2
REMARK    2  A    between atoms: C_6  and  N_7
REMARK    3  A    between atoms: C_8  and  C_10
REMARK    4  A    between atoms: C_10  and  N_11
REMARK    5  A    between atoms: C_12  and  C_14
REMARK    6  A    between atoms: C_17  and  N_18
REMARK    7  A    between atoms: C_23  and  N_24
REMARK    8  A    between atoms: C_28  and  C_29
REMARK                            x       y       z     vdW  Elec       q    Type
REMARK                         _______ _______ _______ _____ _____    ______ ____
ROOT
ATOM      1  N   UNL     1       1.453   9.259  19.300  0.00  0.00    +0.000 N 
ATOM      2  C   UNL     1       1.805   8.025  19.780  0.00  0.00    +0.000 C 
ATOM      3  O   UNL     1       1.343   7.559  20.816  0.00  0.00    +0.000 OA
ATOM      4  H   UNL     1       1.843   9.624  18.439  0.00  0.00    +0.000 HD
ENDROOT
BRANCH   2   5
ATOM      5  C   UNL     1       2.814   7.262  19.006  0.00  0.00    +0.000 A 
ATOM      6  C   UNL     1       3.296   7.822  17.818  0.00  0.00    +0.000 A 
ATOM      7  C   UNL     1       4.186   7.112  17.005  0.00  0.00    +0.000 A 
ATOM      8  C   UNL     1       4.619   5.827  17.378  0.00  0.00    +0.000 A 
ATOM      9  C   UNL     1       4.142   5.285  18.584  0.00  0.00    +0.000 A 
ATOM     10  C   UNL     1       3.230   5.987  19.392  0.00  0.00    +0.000 A 
BRANCH   8  11
ATOM     11  N   UNL     1       5.531   5.144  16.540  0.00  0.00    +0.000 N 
ATOM     12  C   UNL     1       6.905   5.208  16.543  0.00  0.00    +0.000 A 
ATOM     13  N   UNL     1       7.405   4.394  15.643  0.00  0.00    +0.000 NA
ATOM     14  C   UNL     1       6.290   3.834  15.099  0.00  0.00    +0.000 A 
ATOM     15  N   UNL     1       5.132   4.242  15.620  0.00  0.00    +0.000 NA
ENDBRANCH   8  11
BRANCH   9  16
ATOM     16  N   UNL     1       4.436   3.923  19.003  0.00  0.00    +0.000 N 
ATOM     17  O   UNL     1       3.570   3.068  18.782  0.00  0.00    +0.000 OA
ATOM     18  O   UNL     1       5.468   3.763  19.672  0.00  0.00    +0.000 OA
ENDBRANCH   9  16
ENDBRANCH   2   5
BRANCH   1  19
ATOM     19  C   UNL     1       0.492  10.093  20.000  0.00  0.00    +0.000 C 
BRANCH  19  21
ATOM     20  N   UNL     1      -1.425  10.048  18.473  0.00  0.00    +0.000 N 
ATOM     21  C   UNL     1      -0.427  10.840  19.026  0.00  0.00    +0.000 C 
ATOM     22  O   UNL     1      -0.205  12.026  18.792  0.00  0.00    +0.000 OA
ATOM     23  H   UNL     1      -1.412   9.077  18.771  0.00  0.00    +0.000 HD
BRANCH  20  29
ATOM     24  C   UNL     1      -5.684  12.516  17.354  0.00  0.00    +0.000 C 
ATOM     25  C   UNL     1      -4.510  11.640  16.996  0.00  0.00    +0.000 A 
ATOM     26  C   UNL     1      -4.408  11.200  15.669  0.00  0.00    +0.000 A 
ATOM     27  C   UNL     1      -3.348  10.402  15.281  0.00  0.00    +0.000 A 
ATOM     28  C   UNL     1      -2.373  10.036  16.208  0.00  0.00    +0.000 A 
ATOM     29  C   UNL     1      -2.435  10.443  17.550  0.00  0.00    +0.000 A 
ATOM     30  C   UNL     1      -3.522  11.261  17.956  0.00  0.00    +0.000 A 
ATOM     31  C   UNL     1      -3.704  11.764  19.369  0.00  0.00    +0.000 C 
ENDBRANCH  20  29
ENDBRANCH  19  21
ENDBRANCH   1  19
TORSDOF 6
ENDMDL
MODEL 6
REMARK VINA RESULT:      -8.0      1.070      1.244
REMARK  Name = 
REMARK  8 active torsions:
REMARK  status: ('A' for Active; 'I' for Inactive)
REMARK    1  A    between atoms: C_1  and  C_2
REMARK    2  A    between atoms: C_6  and  N_7
REMARK    3  A    between atoms: C_8  and  C_10
REMARK    4  A    between atoms: C_10  and  N_11
REMARK    5  A    between atoms: C_12  and  C_14
REMARK    6  A    between atoms: C_17  and  N_18
REMARK    7  A    between atoms: C_23  and  N_24
REMARK    8  A    between atoms: C_28  and  C_29
REMARK                            x       y       z     vdW  Elec       q    Type
REMARK                         _______ _______ _______ _____ _____    ______ ____
ROOT
ATOM      1  N   UNL     1       7.421   7.632  17.090  0.00  0.00    +0.000 N 
ATOM      2  C   UNL     1       8.145   8.001  18.194  0.00  0.00    +0.000 C 
ATOM      3  O   UNL     1       8.512   7.199  19.044  0.00  0.00    +0.000 OA
ATOM      4  H   UNL     1       7.131   8.310  16.396  0.00  0.00    +0.000 HD
ENDROOT
BRANCH   2   5
ATOM      5  C   UNL     1       8.450   9.443  18.349  0.00  0.00    +0.000 A 
ATOM      6  C   UNL     1       7.944  10.332  17.393  0.00  0.00    +0.000 A 
ATOM      7  C   UNL     1       8.268  11.692  17.444  0.00  0.00    +0.000 A 
ATOM      8  C   UNL     1       9.099  12.188  18.464  0.00  0.00    +0.000 A 
ATOM      9  C   UNL     1       9.583  11.288  19.428  0.00  0.00    +0.000 A 
ATOM     10  C   UNL     1       9.277   9.917  19.368  0.00  0.00    +0.000 A 
BRANCH   8  11
ATOM     11  N   UNL     1       9.393  13.572  18.492  0.00  0.00    +0.000 N 
ATOM     12  C   UNL     1      10.452  14.231  17.913  0.00  0.00    +0.000 A 
ATOM     13  N   UNL     1      10.359  15.523  18.123  0.00  0.00    +0.000 NA
ATOM     14  C   UNL     1       9.209  15.624  18.844  0.00  0.00    +0.000 A 
ATOM     15  N   UNL     1       8.578  14.472  19.078  0.00  0.00    +0.000 NA
ENDBRANCH   8  11
BRANCH   9  16
ATOM     16  N   UNL     1      10.539  11.676  20.455  0.00  0.00    +0.000 N 
ATOM     17  O   UNL     1      11.735  11.473  20.214  0.00  0.00    +0.000 OA
ATOM     18  O   UNL     1      10.064  12.046  21.539  0.00  0.00    +0.000 OA
ENDBRANCH   9  16
ENDBRANCH   2   5
BRANCH   1  19
ATOM     19  C   UNL     1       7.052   6.246  16.861  0.00  0.00    +0.000 C 
BRANCH  19  21
ATOM     20  N   UNL     1       5.363   5.767  18.571  0.00  0.00    +0.000 N 
ATOM     21  C   UNL     1       5.584   5.984  17.217  0.00  0.00    +0.000 C 
ATOM     22  O   UNL     1       4.750   5.958  16.314  0.00  0.00    +0.000 OA
ATOM     23  H   UNL     1       6.198   5.794  19.148  0.00  0.00    +0.000 HD
BRANCH  20  29
ATOM     24  C   UNL     1       2.115   2.635  20.834  0.00  0.00    +0.000 C 
ATOM     25  C   UNL     1       2.531   3.989  20.317  0.00  0.00    +0.000 A 
ATOM     26  C   UNL     1       1.637   5.054  20.495  0.00  0.00    +0.000 A 
ATOM     27  C   UNL     1       1.969   6.321  20.050  0.00  0.00    +0.000 A 
ATOM     28  C   UNL     1       3.196   6.543  19.426  0.00  0.00    +0.000 A 
ATOM     29  C   UNL     1       4.120   5.507  19.216  0.00  0.00    +0.000 A 
ATOM     30  C   UNL     1       3.785   4.204  19.669  0.00  0.00    +0.000 A 
ATOM     31  C   UNL     1       4.691   3.006  19.504  0.00  0.00    +0.000 C 
ENDBRANCH  20  29
ENDBRANCH  19  21
ENDBRANCH   1  19
TORSDOF 6
ENDMDL
MODEL 7
REMARK VINA RESULT:      -8.0      2.695     10.085
REMARK  Name = 
REMARK  8 active torsions:
REMARK  status: ('A' for Active; 'I' for Inactive)
REMARK    1  A    between atoms: C_1  and  C_2
REMARK    2  A    between atoms: C_6  and  N_7
REMARK    3  A    between atoms: C_8  and  C_10
REMARK    4  A    between atoms: C_10  and  N_11
REMARK    5  A    between atoms: C_12  and  C_14
REMARK    6  A    between atoms: C_17  and  N_18
REMARK    7  A    between atoms: C_23  and  N_24
REMARK    8  A    between atoms: C_28  and  C_29
REMARK                            x       y       z     vdW  Elec       q    Type
REMARK                         _______ _______ _______ _____ _____    ______ ____
ROOT
ATOM      1  N   UNL     1       7.344   7.310  18.000  0.00  0.00    +0.000 N 
ATOM      2  C   UNL     1       6.846   6.348  17.160  0.00  0.00    +0.000 C 
ATOM      3  O   UNL     1       7.355   6.084  16.077  0.00  0.00    +0.000 OA
ATOM      4  H   UNL     1       6.911   7.510  18.893  0.00  0.00    +0.000 HD
ENDROOT
BRANCH   2   5
ATOM      5  C   UNL     1       5.621   5.639  17.600  0.00  0.00    +0.000 A 
ATOM      6  C   UNL     1       4.405   6.329  17.552  0.00  0.00    +0.000 A 
ATOM      7  C   UNL     1       3.230   5.738  18.031  0.00  0.00    +0.000 A 
ATOM      8  C   UNL     1       3.254   4.435  18.557  0.00  0.00    +0.000 A 
ATOM      9  C   UNL     1       4.478   3.745  18.581  0.00  0.00    +0.000 A 
ATOM     10  C   UNL     1       5.664   4.344  18.120  0.00  0.00    +0.000 A 
BRANCH   8  11
ATOM     11  N   UNL     1       2.045   3.863  19.018  0.00  0.00    +0.000 N 
ATOM     12  C   UNL     1       1.160   3.068  18.328  0.00  0.00    +0.000 A 
ATOM     13  N   UNL     1       0.173   2.694  19.109  0.00  0.00    +0.000 NA
ATOM     14  C   UNL     1       0.492   3.286  20.293  0.00  0.00    +0.000 A 
ATOM     15  N   UNL     1       1.626   3.989  20.294  0.00  0.00    +0.000 NA
ENDBRANCH   8  11
BRANCH   9  16
ATOM     16  N   UNL     1       4.633   2.440  19.207  0.00  0.00    +0.000 N 
ATOM     17  O   UNL     1       4.133   1.473  18.620  0.00  0.00    +0.000 OA
ATOM     18  O   UNL     1       5.129   2.430  20.343  0.00  0.00    +0.000 OA
ENDBRANCH   9  16
ENDBRANCH   2   5
BRANCH   1  19
ATOM     19  C   UNL     1       8.527   8.077  17.648  0.00  0.00    +0.000 C 
BRANCH  19  21
ATOM     20  N   UNL     1       9.405   9.729  19.230  0.00  0.00    +0.000 N 
ATOM     21  C   UNL     1       8.475   9.496  18.225  0.00  0.00    +0.000 C 
ATOM     22  O   UNL     1       7.633  10.281  17.796  0.00  0.00    +0.000 OA
ATOM     23  H   UNL     1       9.987   8.931  19.465  0.00  0.00    +0.000 HD
BRANCH  20  29
ATOM     24  C   UNL     1      11.532  14.279  19.733  0.00  0.00    +0.000 C 
ATOM     25  C   UNL     1      10.649  13.153  20.209  0.00  0.00    +0.000 A 
ATOM     26  C   UNL     1       9.992  13.318  21.435  0.00  0.00    +0.000 A 
ATOM     27  C   UNL     1       9.161  12.323  21.917  0.00  0.00    +0.000 A 
ATOM     28  C   UNL     1       8.973  11.153  21.183  0.00  0.00    +0.000 A 
ATOM     29  C   UNL     1       9.616  10.937  19.954  0.00  0.00    +0.000 A 
ATOM     30  C   UNL     1      10.471  11.954  19.454  0.00  0.00    +0.000 A 
ATOM     31  C   UNL     1      11.221  11.843  18.146  0.00  0.00    +0.000 C 
ENDBRANCH  20  29
ENDBRANCH  19  21
ENDBRANCH   1  19
TORSDOF 6
ENDMDL
MODEL 8
REMARK VINA RESULT:      -8.0      6.183      9.857
REMARK  Name = 
REMARK  8 active torsions:
REMARK  status: ('A' for Active; 'I' for Inactive)
REMARK    1  A    between atoms: C_1  and  C_2
REMARK    2  A    between atoms: C_6  and  N_7
REMARK    3  A    between atoms: C_8  and  C_10
REMARK    4  A    between atoms: C_10  and  N_11
REMARK    5  A    between atoms: C_12  and  C_14
REMARK    6  A    between atoms: C_17  and  N_18
REMARK    7  A    between atoms: C_23  and  N_24
REMARK    8  A    between atoms: C_28  and  C_29
REMARK                            x       y       z     vdW  Elec       q    Type
REMARK                         _______ _______ _______ _____ _____    ______ ____
ROOT
ATOM      1  N   UNL     1       1.378   9.444  19.721  0.00  0.00    +0.000 N 
ATOM      2  C   UNL     1       1.350   8.448  20.662  0.00  0.00    +0.000 C 
ATOM      3  O   UNL     1       0.957   8.629  21.808  0.00  0.00    +0.000 OA
ATOM      4  H   UNL     1       1.702   9.272  18.777  0.00  0.00    +0.000 HD
ENDROOT
BRANCH   2   5
ATOM      5  C   UNL     1       1.853   7.116  20.249  0.00  0.00    +0.000 A 
ATOM      6  C   UNL     1       1.331   5.985  20.886  0.00  0.00    +0.000 A 
ATOM      7  C   UNL     1       1.827   4.710  20.595  0.00  0.00    +0.000 A 
ATOM      8  C   UNL     1       2.853   4.545  19.648  0.00  0.00    +0.000 A 
ATOM      9  C   UNL     1       3.355   5.687  19.000  0.00  0.00    +0.000 A 
ATOM     10  C   UNL     1       2.873   6.973  19.306  0.00  0.00    +0.000 A 
BRANCH   8  11
ATOM     11  N   UNL     1       3.320   3.240  19.368  0.00  0.00    +0.000 N 
ATOM     12  C   UNL     1       2.903   2.378  18.380  0.00  0.00    +0.000 A 
ATOM     13  N   UNL     1       3.606   1.271  18.410  0.00  0.00    +0.000 NA
ATOM     14  C   UNL     1       4.464   1.492  19.444  0.00  0.00    +0.000 A 
ATOM     15  N   UNL     1       4.342   2.677  20.044  0.00  0.00    +0.000 NA
ENDBRANCH   8  11
BRANCH   9  16
ATOM     16  N   UNL     1       4.491   5.640  18.091  0.00  0.00    +0.000 N 
ATOM     17  O   UNL     1       5.618   5.664  18.601  0.00  0.00    +0.000 OA
ATOM     18  O   UNL     1       4.232   5.722  16.882  0.00  0.00    +0.000 OA
ENDBRANCH   9  16
ENDBRANCH   2   5
BRANCH   1  19
ATOM     19  C   UNL     1       0.928  10.789  20.035  0.00  0.00    +0.000 C 
BRANCH  19  21
ATOM     20  N   UNL     1      -1.108  10.420  18.722  0.00  0.00    +0.000 N 
ATOM     21  C   UNL     1      -0.077  11.308  19.001  0.00  0.00    +0.000 C 
ATOM     22  O   UNL     1       0.110  12.411  18.493  0.00  0.00    +0.000 OA
ATOM     23  H   UNL     1      -1.058   9.539  19.225  0.00  0.00    +0.000 HD
BRANCH  20  29
ATOM     24  C   UNL     1      -5.612  12.382  17.565  0.00  0.00    +0.000 C 
ATOM     25  C   UNL     1      -4.390  11.557  17.251  0.00  0.00    +0.000 A 
ATOM     26  C   UNL     1      -4.324  10.949  15.990  0.00  0.00    +0.000 A 
ATOM     27  C   UNL     1      -3.223  10.188  15.643  0.00  0.00    +0.000 A 
ATOM     28  C   UNL     1      -2.173  10.026  16.545  0.00  0.00    +0.000 A 
ATOM     29  C   UNL     1      -2.196  10.607  17.822  0.00  0.00    +0.000 A 
ATOM     30  C   UNL     1      -3.324  11.389  18.186  0.00  0.00    +0.000 A 
ATOM     31  C   UNL     1      -3.470  12.066  19.529  0.00  0.00    +0.000 C 
ENDBRANCH  20  29
ENDBRANCH  19  21
ENDBRANCH   1  19
TORSDOF 6
ENDMDL
MODEL 9
REMARK VINA RESULT:      -7.9      8.205     10.335
REMARK  Name = 
REMARK  8 active torsions:
REMARK  status: ('A' for Active; 'I' for Inactive)
REMARK    1  A    between atoms: C_1  and  C_2
REMARK    2  A    between atoms: C_6  and  N_7
REMARK    3  A    between atoms: C_8  and  C_10
REMARK    4  A    between atoms: C_10  and  N_11
REMARK    5  A    between atoms: C_12  and  C_14
REMARK    6  A    between atoms: C_17  and  N_18
REMARK    7  A    between atoms: C_23  and  N_24
REMARK    8  A    between atoms: C_28  and  C_29
REMARK                            x       y       z     vdW  Elec       q    Type
REMARK                         _______ _______ _______ _____ _____    ______ ____
ROOT
ATOM      1  N   UNL     1       0.333   9.584  21.552  0.00  0.00    +0.000 N 
ATOM      2  C   UNL     1      -0.209  10.205  22.647  0.00  0.00    +0.000 C 
ATOM      3  O   UNL     1       0.151   9.963  23.793  0.00  0.00    +0.000 OA
ATOM      4  H   UNL     1       0.025   9.801  20.613  0.00  0.00    +0.000 HD
ENDROOT
BRANCH   2   5
ATOM      5  C   UNL     1      -1.297  11.180  22.398  0.00  0.00    +0.000 A 
ATOM      6  C   UNL     1      -1.341  11.818  21.153  0.00  0.00    +0.000 A 
ATOM      7  C   UNL     1      -2.297  12.806  20.893  0.00  0.00    +0.000 A 
ATOM      8  C   UNL     1      -3.234  13.166  21.876  0.00  0.00    +0.000 A 
ATOM      9  C   UNL     1      -3.191  12.504  23.115  0.00  0.00    +0.000 A 
ATOM     10  C   UNL     1      -2.219  11.525  23.388  0.00  0.00    +0.000 A 
BRANCH   8  11
ATOM     11  N   UNL     1      -4.195  14.160  21.572  0.00  0.00    +0.000 N 
ATOM     12  C   UNL     1      -4.066  15.526  21.659  0.00  0.00    +0.000 A 
ATOM     13  N   UNL     1      -5.163  16.118  21.248  0.00  0.00    +0.000 NA
ATOM     14  C   UNL     1      -5.957  15.066  20.907  0.00  0.00    +0.000 A 
ATOM     15  N   UNL     1      -5.409  13.860  21.068  0.00  0.00    +0.000 NA
ENDBRANCH   8  11
BRANCH   9  16
ATOM     16  N   UNL     1      -4.040  12.880  24.236  0.00  0.00    +0.000 N 
ATOM     17  O   UNL     1      -5.101  12.258  24.370  0.00  0.00    +0.000 OA
ATOM     18  O   UNL     1      -3.694  13.883  24.877  0.00  0.00    +0.000 OA
ENDBRANCH   9  16
ENDBRANCH   2   5
BRANCH   1  19
ATOM     19  C   UNL     1       1.388   8.595  21.694  0.00  0.00    +0.000 C 
BRANCH  19  21
ATOM     20  N   UNL     1       2.253   6.661  20.462  0.00  0.00    +0.000 N 
ATOM     21  C   UNL     1       1.744   7.949  20.350  0.00  0.00    +0.000 C 
ATOM     22  O   UNL     1       1.588   8.598  19.319  0.00  0.00    +0.000 OA
ATOM     23  H   UNL     1       2.338   6.319  21.414  0.00  0.00    +0.000 HD
BRANCH  20  29
ATOM     24  C   UNL     1       2.016   2.268  17.987  0.00  0.00    +0.000 C 
ATOM     25  C   UNL     1       2.558   3.659  18.198  0.00  0.00    +0.000 A 
ATOM     26  C   UNL     1       3.520   4.126  17.291  0.00  0.00    +0.000 A 
ATOM     27  C   UNL     1       4.046   5.397  17.430  0.00  0.00    +0.000 A 
ATOM     28  C   UNL     1       3.619   6.221  18.470  0.00  0.00    +0.000 A 
ATOM     29  C   UNL     1       2.665   5.796  19.408  0.00  0.00    +0.000 A 
ATOM     30  C   UNL     1       2.122   4.491  19.273  0.00  0.00    +0.000 A 
ATOM     31  C   UNL     1       1.091   3.917  20.217  0.00  0.00    +0.000 C 
ENDBRANCH  20  29
ENDBRANCH  19  21
ENDBRANCH   1  19
TORSDOF 6
ENDMDL
