MODEL 1
REMARK VINA RESULT:      -7.8      0.000      0.000
REMARK  Name = 
REMARK  10 active torsions:
REMARK  status: ('A' for Active; 'I' for Inactive)
REMARK    1  A    between atoms: C_1  and  C_2
REMARK    2  A    between atoms: C_2  and  C_3
REMARK    3  A    between atoms: C_2  and  C_29
REMARK    4  A    between atoms: C_3  and  C_4
REMARK    5  A    between atoms: C_3  and  C_22
REMARK    6  A    between atoms: N_6  and  C_7
REMARK    7  A    between atoms: C_9  and  C_10
REMARK    8  A    between atoms: C_10  and  C_11
REMARK    9  A    between atoms: C_11  and  C_12
REMARK   10  A    between atoms: C_12  and  O_14
REMARK                            x       y       z     vdW  Elec       q    Type
REMARK                         _______ _______ _______ _____ _____    ______ ____
ROOT
ATOM      1  C   UNL     1       1.551   8.743  19.001  0.00  0.00    +0.000 C 
ATOM      2  O   UNL     1       1.911   8.946  17.841  0.00  0.00    +0.000 OA
ATOM      3  N   UNL     1       1.827   7.590  19.716  0.00  0.00    +0.000 N 
ATOM      4  H   UNL     1       1.148   7.323  20.422  0.00  0.00    +0.000 HD
ENDROOT
BRANCH   3   5
ATOM      5  C   UNL     1       2.593   6.526  19.175  0.00  0.00    +0.000 A 
ATOM      6  C   UNL     1       3.699   6.772  18.346  0.00  0.00    +0.000 A 
ATOM      7  C   UNL     1       4.491   5.741  17.790  0.00  0.00    +0.000 A 
ATOM      8  C   UNL     1       4.086   4.425  18.088  0.00  0.00    +0.000 A 
ATOM      9  C   UNL     1       2.987   4.156  18.915  0.00  0.00    +0.000 A 
ATOM     10  C   UNL     1       2.262   5.203  19.478  0.00  0.00    +0.000 A 
ATOM     11 CL   UNL     1       0.908   4.830  20.486  0.00  0.00    +0.000 Cl
BRANCH   7  12
ATOM     12  C   UNL     1       5.771   6.057  16.869  0.00  0.00    +0.000 C 
ATOM     13  C   UNL     1       6.434   7.452  17.044  0.00  0.00    +0.000 C 
ATOM     14  O   UNL     1       7.753   6.856  17.075  0.00  0.00    +0.000 OA
ATOM     15  C   UNL     1       7.164   5.556  17.340  0.00  0.00    +0.000 C 
BRANCH  12  16
ATOM     16  C   UNL     1       5.485   5.793  15.377  0.00  0.00    +0.000 C 
BRANCH  16  17
ATOM     17  C   UNL     1       6.424   4.837  14.687  0.00  0.00    +0.000 C 
ATOM     18  O   UNL     1       6.234   3.643  14.528  0.00  0.00    +0.000 OA
BRANCH  17  19
ATOM     19  O   UNL     1       7.559   5.444  14.266  0.00  0.00    +0.000 OA
ATOM     20  H   UNL     1       8.112   4.898  13.675  0.00  0.00    +0.000 HD
ENDBRANCH  17  19
ENDBRANCH  16  17
ENDBRANCH  12  16
ENDBRANCH   7  12
ENDBRANCH   3   5
BRANCH   1  21
ATOM     21  C   UNL     1       0.767   9.828  19.756  0.00  0.00    +0.000 C 
BRANCH  21  22
ATOM     22  C   UNL     1      -0.401  10.351  18.911  0.00  0.00    +0.000 A 
ATOM     23  C   UNL     1      -1.399   9.431  18.529  0.00  0.00    +0.000 A 
ATOM     24  C   UNL     1      -2.508   9.843  17.786  0.00  0.00    +0.000 A 
ATOM     25  C   UNL     1      -2.637  11.178  17.428  0.00  0.00    +0.000 A 
ATOM     26 CL   UNL     1      -4.011  11.686  16.525  0.00  0.00    +0.000 Cl
ATOM     27  C   UNL     1      -1.661  12.104  17.791  0.00  0.00    +0.000 A 
ATOM     28  C   UNL     1      -0.551  11.701  18.534  0.00  0.00    +0.000 A 
ENDBRANCH  21  22
BRANCH  21  30
ATOM     29  C   UNL     1       1.725   8.962  21.970  0.00  0.00    +0.000 C 
ATOM     30  C   UNL     1       0.462   9.407  21.218  0.00  0.00    +0.000 C 
BRANCH  30  31
ATOM     31  C   UNL     1      -0.215  10.557  21.973  0.00  0.00    +0.000 C 
ATOM     32  F   UNL     1       0.398  11.741  21.755  0.00  0.00    +0.000 F 
ATOM     33  F   UNL     1      -1.511  10.716  21.638  0.00  0.00    +0.000 F 
ATOM     34  F   UNL     1      -0.165  10.331  23.308  0.00  0.00    +0.000 F 
ENDBRANCH  30  31
ENDBRANCH  21  30
ENDBRANCH   1  21
TORSDOF 9
ENDMDL
MODEL 2
REMARK VINA RESULT:      -7.7      0.927      1.789
REMARK  Name = 
REMARK  10 active torsions:
REMARK  status: ('A' for Active; 'I' for Inactive)
REMARK    1  A    between atoms: C_1  and  C_2
REMARK    2  A    between atoms: C_2  and  C_3
REMARK    3  A    between atoms: C_2  and  C_29
REMARK    4  A    between atoms: C_3  and  C_4
REMARK    5  A    between atoms: C_3  and  C_22
REMARK    6  A    between atoms: N_6  and  C_7
REMARK    7  A    between atoms: C_9  and  C_10
REMARK    8  A    between atoms: C_10  and  C_11
REMARK    9  A    between atoms: C_11  and  C_12
REMARK   10  A    between atoms: C_12  and  O_14
REMARK                            x       y       z     vdW  Elec       q    Type
REMARK                         _______ _______ _______ _____ _____    ______ ____
ROOT
ATOM      1  C   UNL     1       1.712   8.727  18.980  0.00  0.00    +0.000 C 
ATOM      2  O   UNL     1       2.377   9.008  17.982  0.00  0.00    +0.000 OA
ATOM      3  N   UNL     1       1.689   7.480  19.580  0.00  0.00    +0.000 N 
ATOM      4  H   UNL     1       0.829   7.223  20.055  0.00  0.00    +0.000 HD
ENDROOT
BRANCH   3   5
ATOM      5  C   UNL     1       2.470   6.394  19.107  0.00  0.00    +0.000 A 
ATOM      6  C   UNL     1       3.543   6.599  18.225  0.00  0.00    +0.000 A 
ATOM      7  C   UNL     1       4.349   5.546  17.734  0.00  0.00    +0.000 A 
ATOM      8  C   UNL     1       3.992   4.249  18.154  0.00  0.00    +0.000 A 
ATOM      9  C   UNL     1       2.926   4.023  19.034  0.00  0.00    +0.000 A 
ATOM     10  C   UNL     1       2.187   5.094  19.530  0.00  0.00    +0.000 A 
ATOM     11 CL   UNL     1       0.875   4.771  20.607  0.00  0.00    +0.000 Cl
BRANCH   7  12
ATOM     12  C   UNL     1       5.592   5.817  16.750  0.00  0.00    +0.000 C 
ATOM     13  C   UNL     1       5.955   4.686  15.748  0.00  0.00    +0.000 C 
ATOM     14  O   UNL     1       6.073   5.639  14.665  0.00  0.00    +0.000 OA
ATOM     15  C   UNL     1       5.341   6.621  15.445  0.00  0.00    +0.000 C 
BRANCH  12  16
ATOM     16  C   UNL     1       6.851   6.261  17.522  0.00  0.00    +0.000 C 
BRANCH  16  17
ATOM     17  C   UNL     1       7.320   5.326  18.608  0.00  0.00    +0.000 C 
ATOM     18  O   UNL     1       7.157   5.488  19.806  0.00  0.00    +0.000 OA
BRANCH  17  19
ATOM     19  O   UNL     1       7.993   4.259  18.114  0.00  0.00    +0.000 OA
ATOM     20  H   UNL     1       8.653   3.881  18.726  0.00  0.00    +0.000 HD
ENDBRANCH  17  19
ENDBRANCH  16  17
ENDBRANCH  12  16
ENDBRANCH   7  12
ENDBRANCH   3   5
BRANCH   1  21
ATOM     21  C   UNL     1       0.860   9.812  19.656  0.00  0.00    +0.000 C 
BRANCH  21  22
ATOM     22  C   UNL     1      -0.234  10.322  18.711  0.00  0.00    +0.000 A 
ATOM     23  C   UNL     1      -0.949   9.367  17.959  0.00  0.00    +0.000 A 
ATOM     24  C   UNL     1      -1.981   9.757  17.101  0.00  0.00    +0.000 A 
ATOM     25  C   UNL     1      -2.316  11.099  16.994  0.00  0.00    +0.000 A 
ATOM     26 CL   UNL     1      -3.596  11.575  15.948  0.00  0.00    +0.000 Cl
ATOM     27  C   UNL     1      -1.620  12.061  17.725  0.00  0.00    +0.000 A 
ATOM     28  C   UNL     1      -0.589  11.681  18.585  0.00  0.00    +0.000 A 
ENDBRANCH  21  22
BRANCH  21  30
ATOM     29  C   UNL     1       1.598   8.803  21.894  0.00  0.00    +0.000 C 
ATOM     30  C   UNL     1       0.434   9.400  21.090  0.00  0.00    +0.000 C 
BRANCH  30  31
ATOM     31  C   UNL     1      -0.152  10.603  21.838  0.00  0.00    +0.000 C 
ATOM     32  F   UNL     1       0.537  11.740  21.596  0.00  0.00    +0.000 F 
ATOM     33  F   UNL     1      -1.439  10.846  21.519  0.00  0.00    +0.000 F 
ATOM     34  F   UNL     1      -0.099  10.391  23.175  0.00  0.00    +0.000 F 
ENDBRANCH  30  31
ENDBRANCH  21  30
ENDBRANCH   1  21
TORSDOF 9
ENDMDL
MODEL 3
REMARK VINA RESULT:      -7.6      1.117      2.221
REMARK  Name = 
REMARK  10 active torsions:
REMARK  status: ('A' for Active; 'I' for Inactive)
REMARK    1  A    between atoms: C_1  and  C_2
REMARK    2  A    between atoms: C_2  and  C_3
REMARK    3  A    between atoms: C_2  and  C_29
REMARK    4  A    between atoms: C_3  and  C_4
REMARK    5  A    between atoms: C_3  and  C_22
REMARK    6  A    between atoms: N_6  and  C_7
REMARK    7  A    between atoms: C_9  and  C_10
REMARK    8  A    between atoms: C_10  and  C_11
REMARK    9  A    between atoms: C_11  and  C_12
REMARK   10  A    between atoms: C_12  and  O_14
REMARK                            x       y       z     vdW  Elec       q    Type
REMARK                         _______ _______ _______ _____ _____    ______ ____
ROOT
ATOM      1  C   UNL     1       1.682   9.032  18.419  0.00  0.00    +0.000 C 
ATOM      2  O   UNL     1       1.873   8.927  17.208  0.00  0.00    +0.000 OA
ATOM      3  N   UNL     1       2.058   8.085  19.356  0.00  0.00    +0.000 N 
ATOM      4  H   UNL     1       1.486   8.025  20.193  0.00  0.00    +0.000 HD
ENDROOT
BRANCH   3   5
ATOM      5  C   UNL     1       2.741   6.894  19.001  0.00  0.00    +0.000 A 
ATOM      6  C   UNL     1       3.772   6.902  18.047  0.00  0.00    +0.000 A 
ATOM      7  C   UNL     1       4.480   5.739  17.668  0.00  0.00    +0.000 A 
ATOM      8  C   UNL     1       4.068   4.539  18.281  0.00  0.00    +0.000 A 
ATOM      9  C   UNL     1       3.044   4.508  19.236  0.00  0.00    +0.000 A 
ATOM     10  C   UNL     1       2.403   5.685  19.614  0.00  0.00    +0.000 A 
ATOM     11 CL   UNL     1       1.138   5.604  20.789  0.00  0.00    +0.000 Cl
BRANCH   7  12
ATOM     12  C   UNL     1       5.678   5.787  16.596  0.00  0.00    +0.000 C 
ATOM     13  C   UNL     1       6.049   4.450  15.895  0.00  0.00    +0.000 C 
ATOM     14  O   UNL     1       6.094   5.101  14.603  0.00  0.00    +0.000 OA
ATOM     15  C   UNL     1       5.352   6.228  15.142  0.00  0.00    +0.000 C 
BRANCH  12  16
ATOM     16  C   UNL     1       6.945   6.446  17.177  0.00  0.00    +0.000 C 
BRANCH  16  17
ATOM     17  C   UNL     1       7.613   5.703  18.307  0.00  0.00    +0.000 C 
ATOM     18  O   UNL     1       7.617   4.493  18.459  0.00  0.00    +0.000 OA
BRANCH  17  19
ATOM     19  O   UNL     1       8.208   6.539  19.191  0.00  0.00    +0.000 OA
ATOM     20  H   UNL     1       9.035   6.192  19.578  0.00  0.00    +0.000 HD
ENDBRANCH  17  19
ENDBRANCH  16  17
ENDBRANCH  12  16
ENDBRANCH   7  12
ENDBRANCH   3   5
BRANCH   1  21
ATOM     21  C   UNL     1       1.011  10.297  18.977  0.00  0.00    +0.000 C 
BRANCH  21  22
ATOM     22  C   UNL     1      -0.375  10.504  18.356  0.00  0.00    +0.000 A 
ATOM     23  C   UNL     1      -0.977  11.772  18.503  0.00  0.00    +0.000 A 
ATOM     24  C   UNL     1      -2.225  12.043  17.936  0.00  0.00    +0.000 A 
ATOM     25  C   UNL     1      -2.878  11.057  17.209  0.00  0.00    +0.000 A 
ATOM     26 CL   UNL     1      -4.409  11.398  16.500  0.00  0.00    +0.000 Cl
ATOM     27  C   UNL     1      -2.304   9.797  17.055  0.00  0.00    +0.000 A 
ATOM     28  C   UNL     1      -1.058   9.518  17.616  0.00  0.00    +0.000 A 
ENDBRANCH  21  22
BRANCH  21  30
ATOM     29  C   UNL     1       1.306  11.816  21.021  0.00  0.00    +0.000 C 
ATOM     30  C   UNL     1       1.123  10.375  20.523  0.00  0.00    +0.000 C 
BRANCH  30  31
ATOM     31  C   UNL     1      -0.114   9.751  21.179  0.00  0.00    +0.000 C 
ATOM     32  F   UNL     1      -0.641   8.756  20.432  0.00  0.00    +0.000 F 
ATOM     33  F   UNL     1       0.141   9.235  22.399  0.00  0.00    +0.000 F 
ATOM     34  F   UNL     1      -1.084  10.685  21.327  0.00  0.00    +0.000 F 
ENDBRANCH  30  31
ENDBRANCH  21  30
ENDBRANCH   1  21
TORSDOF 9
ENDMDL
MODEL 4
REMARK VINA RESULT:      -7.6      4.176      8.398
REMARK  Name = 
REMARK  10 active torsions:
REMARK  status: ('A' for Active; 'I' for Inactive)
REMARK    1  A    between atoms: C_1  and  C_2
REMARK    2  A    between atoms: C_2  and  C_3
REMARK    3  A    between atoms: C_2  and  C_29
REMARK    4  A    between atoms: C_3  and  C_4
REMARK    5  A    between atoms: C_3  and  C_22
REMARK    6  A    between atoms: N_6  and  C_7
REMARK    7  A    between atoms: C_9  and  C_10
REMARK    8  A    between atoms: C_10  and  C_11
REMARK    9  A    between atoms: C_11  and  C_12
REMARK   10  A    between atoms: C_12  and  O_14
REMARK                            x       y       z     vdW  Elec       q    Type
REMARK                         _______ _______ _______ _____ _____    ______ ____
ROOT
ATOM      1  C   UNL     1       3.824   5.347  18.186  0.00  0.00    +0.000 C 
ATOM      2  O   UNL     1       4.739   6.067  18.587  0.00  0.00    +0.000 OA
ATOM      3  N   UNL     1       2.483   5.563  18.454  0.00  0.00    +0.000 N 
ATOM      4  H   UNL     1       1.892   4.738  18.496  0.00  0.00    +0.000 HD
ENDROOT
BRANCH   3   5
ATOM      5  C   UNL     1       2.027   6.676  19.206  0.00  0.00    +0.000 A 
ATOM      6  C   UNL     1       1.806   7.923  18.599  0.00  0.00    +0.000 A 
ATOM      7  C   UNL     1       1.348   9.056  19.311  0.00  0.00    +0.000 A 
ATOM      8  C   UNL     1       1.156   8.877  20.695  0.00  0.00    +0.000 A 
ATOM      9  C   UNL     1       1.368   7.642  21.320  0.00  0.00    +0.000 A 
ATOM     10  C   UNL     1       1.776   6.539  20.573  0.00  0.00    +0.000 A 
ATOM     11 CL   UNL     1       2.036   5.035  21.382  0.00  0.00    +0.000 Cl
BRANCH   7  12
ATOM     12  C   UNL     1       1.074  10.462  18.581  0.00  0.00    +0.000 C 
ATOM     13  C   UNL     1       1.215  11.744  19.448  0.00  0.00    +0.000 C 
ATOM     14  O   UNL     1       1.982  12.401  18.411  0.00  0.00    +0.000 OA
ATOM     15  C   UNL     1       2.231  11.118  17.778  0.00  0.00    +0.000 C 
BRANCH  12  16
ATOM     16  C   UNL     1      -0.280  10.473  17.843  0.00  0.00    +0.000 C 
BRANCH  16  17
ATOM     17  C   UNL     1      -1.244  11.558  18.252  0.00  0.00    +0.000 C 
ATOM     18  O   UNL     1      -2.055  11.485  19.161  0.00  0.00    +0.000 OA
BRANCH  17  19
ATOM     19  O   UNL     1      -1.143  12.658  17.468  0.00  0.00    +0.000 OA
ATOM     20  H   UNL     1      -1.615  12.589  16.616  0.00  0.00    +0.000 HD
ENDBRANCH  17  19
ENDBRANCH  16  17
ENDBRANCH  12  16
ENDBRANCH   7  12
ENDBRANCH   3   5
BRANCH   1  21
ATOM     21  C   UNL     1       4.143   4.132  17.301  0.00  0.00    +0.000 C 
BRANCH  21  22
ATOM     22  C   UNL     1       5.219   4.475  16.264  0.00  0.00    +0.000 A 
ATOM     23  C   UNL     1       5.039   3.996  14.949  0.00  0.00    +0.000 A 
ATOM     24  C   UNL     1       5.962   4.296  13.944  0.00  0.00    +0.000 A 
ATOM     25  C   UNL     1       7.066   5.084  14.238  0.00  0.00    +0.000 A 
ATOM     26 CL   UNL     1       8.194   5.464  12.995  0.00  0.00    +0.000 Cl
ATOM     27  C   UNL     1       7.266   5.564  15.531  0.00  0.00    +0.000 A 
ATOM     28  C   UNL     1       6.348   5.271  16.540  0.00  0.00    +0.000 A 
ENDBRANCH  21  22
BRANCH  21  30
ATOM     29  C   UNL     1       4.829   3.146  19.565  0.00  0.00    +0.000 C 
ATOM     30  C   UNL     1       4.341   2.843  18.141  0.00  0.00    +0.000 C 
BRANCH  30  31
ATOM     31  C   UNL     1       3.037   2.039  18.198  0.00  0.00    +0.000 C 
ATOM     32  F   UNL     1       3.257   0.724  18.417  0.00  0.00    +0.000 F 
ATOM     33  F   UNL     1       2.197   2.465  19.163  0.00  0.00    +0.000 F 
ATOM     34  F   UNL     1       2.380   2.133  17.017  0.00  0.00    +0.000 F 
ENDBRANCH  30  31
ENDBRANCH  21  30
ENDBRANCH   1  21
TORSDOF 9
ENDMDL
MODEL 5
REMARK VINA RESULT:      -7.6      2.707      3.880
REMARK  Name = 
REMARK  10 active torsions:
REMARK  status: ('A' for Active; 'I' for Inactive)
REMARK    1  A    between atoms: C_1  and  C_2
REMARK    2  A    between atoms: C_2  and  C_3
REMARK    3  A    between atoms: C_2  and  C_29
REMARK    4  A    between atoms: C_3  and  C_4
REMARK    5  A    between atoms: C_3  and  C_22
REMARK    6  A    between atoms: N_6  and  C_7
REMARK    7  A    between atoms: C_9  and  C_10
REMARK    8  A    between atoms: C_10  and  C_11
REMARK    9  A    between atoms: C_11  and  C_12
REMARK   10  A    between atoms: C_12  and  O_14
REMARK                            x       y       z     vdW  Elec       q    Type
REMARK                         _______ _______ _______ _____ _____    ______ ____
ROOT
ATOM      1  C   UNL     1       1.488   9.419  18.382  0.00  0.00    +0.000 C 
ATOM      2  O   UNL     1       1.934   9.379  17.235  0.00  0.00    +0.000 OA
ATOM      3  N   UNL     1       1.716   8.451  19.345  0.00  0.00    +0.000 N 
ATOM      4  H   UNL     1       0.987   8.324  20.040  0.00  0.00    +0.000 HD
ENDROOT
BRANCH   3   5
ATOM      5  C   UNL     1       2.528   7.314  19.102  0.00  0.00    +0.000 A 
ATOM      6  C   UNL     1       3.559   7.345  18.150  0.00  0.00    +0.000 A 
ATOM      7  C   UNL     1       4.394   6.236  17.880  0.00  0.00    +0.000 A 
ATOM      8  C   UNL     1       4.111   5.061  18.606  0.00  0.00    +0.000 A 
ATOM      9  C   UNL     1       3.089   5.009  19.561  0.00  0.00    +0.000 A 
ATOM     10  C   UNL     1       2.319   6.139  19.828  0.00  0.00    +0.000 A 
ATOM     11 CL   UNL     1       1.062   6.030  21.009  0.00  0.00    +0.000 Cl
BRANCH   7  12
ATOM     12  C   UNL     1       5.587   6.314  16.805  0.00  0.00    +0.000 C 
ATOM     13  C   UNL     1       6.051   4.973  16.171  0.00  0.00    +0.000 C 
ATOM     14  O   UNL     1       6.054   5.562  14.849  0.00  0.00    +0.000 OA
ATOM     15  C   UNL     1       5.235   6.659  15.332  0.00  0.00    +0.000 C 
BRANCH  12  16
ATOM     16  C   UNL     1       6.805   7.086  17.352  0.00  0.00    +0.000 C 
BRANCH  16  17
ATOM     17  C   UNL     1       7.618   6.374  18.403  0.00  0.00    +0.000 C 
ATOM     18  O   UNL     1       7.498   5.202  18.723  0.00  0.00    +0.000 OA
BRANCH  17  19
ATOM     19  O   UNL     1       8.511   7.193  19.006  0.00  0.00    +0.000 OA
ATOM     20  H   UNL     1       9.429   6.859  19.005  0.00  0.00    +0.000 HD
ENDBRANCH  17  19
ENDBRANCH  16  17
ENDBRANCH  12  16
ENDBRANCH   7  12
ENDBRANCH   3   5
BRANCH   1  21
ATOM     21  C   UNL     1       0.641  10.621  18.828  0.00  0.00    +0.000 C 
BRANCH  21  22
ATOM     22  C   UNL     1       1.529  11.817  19.188  0.00  0.00    +0.000 A 
ATOM     23  C   UNL     1       2.268  12.422  18.149  0.00  0.00    +0.000 A 
ATOM     24  C   UNL     1       3.073  13.536  18.398  0.00  0.00    +0.000 A 
ATOM     25  C   UNL     1       3.141  14.064  19.680  0.00  0.00    +0.000 A 
ATOM     26 CL   UNL     1       4.123  15.445  19.980  0.00  0.00    +0.000 Cl
ATOM     27  C   UNL     1       2.422  13.480  20.722  0.00  0.00    +0.000 A 
ATOM     28  C   UNL     1       1.614  12.368  20.482  0.00  0.00    +0.000 A 
ENDBRANCH  21  22
BRANCH  21  30
ATOM     29  C   UNL     1      -1.368   9.602  17.603  0.00  0.00    +0.000 C 
ATOM     30  C   UNL     1      -0.550  10.875  17.866  0.00  0.00    +0.000 C 
BRANCH  30  31
ATOM     31  C   UNL     1      -1.463  11.972  18.427  0.00  0.00    +0.000 C 
ATOM     32  F   UNL     1      -2.707  11.918  17.904  0.00  0.00    +0.000 F 
ATOM     33  F   UNL     1      -1.595  11.913  19.768  0.00  0.00    +0.000 F 
ATOM     34  F   UNL     1      -0.963  13.194  18.122  0.00  0.00    +0.000 F 
ENDBRANCH  30  31
ENDBRANCH  21  30
ENDBRANCH   1  21
TORSDOF 9
ENDMDL
MODEL 6
REMARK VINA RESULT:      -7.5      2.609      3.429
REMARK  Name = 
REMARK  10 active torsions:
REMARK  status: ('A' for Active; 'I' for Inactive)
REMARK    1  A    between atoms: C_1  and  C_2
REMARK    2  A    between atoms: C_2  and  C_3
REMARK    3  A    between atoms: C_2  and  C_29
REMARK    4  A    between atoms: C_3  and  C_4
REMARK    5  A    between atoms: C_3  and  C_22
REMARK    6  A    between atoms: N_6  and  C_7
REMARK    7  A    between atoms: C_9  and  C_10
REMARK    8  A    between atoms: C_10  and  C_11
REMARK    9  A    between atoms: C_11  and  C_12
REMARK   10  A    between atoms: C_12  and  O_14
REMARK                            x       y       z     vdW  Elec       q    Type
REMARK                         _______ _______ _______ _____ _____    ______ ____
ROOT
ATOM      1  C   UNL     1       1.547   9.453  18.391  0.00  0.00    +0.000 C 
ATOM      2  O   UNL     1       2.019   9.432  17.254  0.00  0.00    +0.000 OA
ATOM      3  N   UNL     1       1.741   8.463  19.338  0.00  0.00    +0.000 N 
ATOM      4  H   UNL     1       0.995   8.330  20.013  0.00  0.00    +0.000 HD
ENDROOT
BRANCH   3   5
ATOM      5  C   UNL     1       2.546   7.321  19.090  0.00  0.00    +0.000 A 
ATOM      6  C   UNL     1       3.646   7.381  18.220  0.00  0.00    +0.000 A 
ATOM      7  C   UNL     1       4.476   6.268  17.949  0.00  0.00    +0.000 A 
ATOM      8  C   UNL     1       4.113   5.061  18.580  0.00  0.00    +0.000 A 
ATOM      9  C   UNL     1       3.021   4.980  19.452  0.00  0.00    +0.000 A 
ATOM     10  C   UNL     1       2.257   6.112  19.727  0.00  0.00    +0.000 A 
ATOM     11 CL   UNL     1       0.912   5.968  20.802  0.00  0.00    +0.000 Cl
BRANCH   7  12
ATOM     12  C   UNL     1       5.749   6.377  16.973  0.00  0.00    +0.000 C 
ATOM     13  C   UNL     1       6.501   7.738  16.948  0.00  0.00    +0.000 C 
ATOM     14  O   UNL     1       7.781   7.068  17.036  0.00  0.00    +0.000 OA
ATOM     15  C   UNL     1       7.120   5.855  17.483  0.00  0.00    +0.000 C 
BRANCH  12  16
ATOM     16  C   UNL     1       5.410   5.937  15.534  0.00  0.00    +0.000 C 
BRANCH  16  17
ATOM     17  C   UNL     1       6.309   4.881  14.941  0.00  0.00    +0.000 C 
ATOM     18  O   UNL     1       6.099   3.679  14.953  0.00  0.00    +0.000 OA
BRANCH  17  19
ATOM     19  O   UNL     1       7.431   5.408  14.396  0.00  0.00    +0.000 OA
ATOM     20  H   UNL     1       7.945   5.974  15.002  0.00  0.00    +0.000 HD
ENDBRANCH  17  19
ENDBRANCH  16  17
ENDBRANCH  12  16
ENDBRANCH   7  12
ENDBRANCH   3   5
BRANCH   1  21
ATOM     21  C   UNL     1       0.704  10.656  18.842  0.00  0.00    +0.000 C 
BRANCH  21  22
ATOM     22  C   UNL     1       1.584  11.889  19.076  0.00  0.00    +0.000 A 
ATOM     23  C   UNL     1       1.670  12.396  20.390  0.00  0.00    +0.000 A 
ATOM     24  C   UNL     1       2.478  13.496  20.683  0.00  0.00    +0.000 A 
ATOM     25  C   UNL     1       3.216  14.096  19.672  0.00  0.00    +0.000 A 
ATOM     26 CL   UNL     1       4.222  15.443  20.037  0.00  0.00    +0.000 Cl
ATOM     27  C   UNL     1       3.144  13.615  18.365  0.00  0.00    +0.000 A 
ATOM     28  C   UNL     1       2.341  12.515  18.064  0.00  0.00    +0.000 A 
ENDBRANCH  21  22
BRANCH  21  30
ATOM     29  C   UNL     1      -1.294   9.507  17.720  0.00  0.00    +0.000 C 
ATOM     30  C   UNL     1      -0.562  10.835  17.964  0.00  0.00    +0.000 C 
BRANCH  30  31
ATOM     31  C   UNL     1      -1.519  11.845  18.608  0.00  0.00    +0.000 C 
ATOM     32  F   UNL     1      -1.561  11.723  19.952  0.00  0.00    +0.000 F 
ATOM     33  F   UNL     1      -1.193  13.126  18.338  0.00  0.00    +0.000 F 
ATOM     34  F   UNL     1      -2.781  11.644  18.157  0.00  0.00    +0.000 F 
ENDBRANCH  30  31
ENDBRANCH  21  30
ENDBRANCH   1  21
TORSDOF 9
ENDMDL
MODEL 7
REMARK VINA RESULT:      -7.5      2.722      3.819
REMARK  Name = 
REMARK  10 active torsions:
REMARK  status: ('A' for Active; 'I' for Inactive)
REMARK    1  A    between atoms: C_1  and  C_2
REMARK    2  A    between atoms: C_2  and  C_3
REMARK    3  A    between atoms: C_2  and  C_29
REMARK    4  A    between atoms: C_3  and  C_4
REMARK    5  A    between atoms: C_3  and  C_22
REMARK    6  A    between atoms: N_6  and  C_7
REMARK    7  A    between atoms: C_9  and  C_10
REMARK    8  A    between atoms: C_10  and  C_11
REMARK    9  A    between atoms: C_11  and  C_12
REMARK   10  A    between atoms: C_12  and  O_14
REMARK                            x       y       z     vdW  Elec       q    Type
REMARK                         _______ _______ _______ _____ _____    ______ ____
ROOT
ATOM      1  C   UNL     1       1.420   9.428  18.333  0.00  0.00    +0.000 C 
ATOM      2  O   UNL     1       1.799   9.324  17.166  0.00  0.00    +0.000 OA
ATOM      3  N   UNL     1       1.712   8.519  19.335  0.00  0.00    +0.000 N 
ATOM      4  H   UNL     1       1.026   8.429  20.078  0.00  0.00    +0.000 HD
ENDROOT
BRANCH   3   5
ATOM      5  C   UNL     1       2.518   7.373  19.111  0.00  0.00    +0.000 A 
ATOM      6  C   UNL     1       3.534   7.376  18.142  0.00  0.00    +0.000 A 
ATOM      7  C   UNL     1       4.362   6.258  17.891  0.00  0.00    +0.000 A 
ATOM      8  C   UNL     1       4.088   5.104  18.652  0.00  0.00    +0.000 A 
ATOM      9  C   UNL     1       3.081   5.080  19.624  0.00  0.00    +0.000 A 
ATOM     10  C   UNL     1       2.318   6.219  19.872  0.00  0.00    +0.000 A 
ATOM     11 CL   UNL     1       1.079   6.146  21.074  0.00  0.00    +0.000 Cl
BRANCH   7  12
ATOM     12  C   UNL     1       5.539   6.304  16.796  0.00  0.00    +0.000 C 
ATOM     13  C   UNL     1       5.907   4.962  16.102  0.00  0.00    +0.000 C 
ATOM     14  O   UNL     1       5.923   5.600  14.803  0.00  0.00    +0.000 OA
ATOM     15  C   UNL     1       5.184   6.727  15.344  0.00  0.00    +0.000 C 
BRANCH  12  16
ATOM     16  C   UNL     1       6.812   6.977  17.347  0.00  0.00    +0.000 C 
BRANCH  16  17
ATOM     17  C   UNL     1       7.600   6.173  18.350  0.00  0.00    +0.000 C 
ATOM     18  O   UNL     1       7.531   4.965  18.506  0.00  0.00    +0.000 OA
BRANCH  17  19
ATOM     19  O   UNL     1       8.403   6.950  19.115  0.00  0.00    +0.000 OA
ATOM     20  H   UNL     1       7.976   7.759  19.455  0.00  0.00    +0.000 HD
ENDBRANCH  17  19
ENDBRANCH  16  17
ENDBRANCH  12  16
ENDBRANCH   7  12
ENDBRANCH   3   5
BRANCH   1  21
ATOM     21  C   UNL     1       0.591  10.650  18.757  0.00  0.00    +0.000 C 
BRANCH  21  22
ATOM     22  C   UNL     1       1.493  11.855  19.044  0.00  0.00    +0.000 A 
ATOM     23  C   UNL     1       1.564  12.321  20.374  0.00  0.00    +0.000 A 
ATOM     24  C   UNL     1       2.390  13.395  20.715  0.00  0.00    +0.000 A 
ATOM     25  C   UNL     1       3.161  14.007  19.736  0.00  0.00    +0.000 A 
ATOM     26 CL   UNL     1       4.188  15.320  20.160  0.00  0.00    +0.000 Cl
ATOM     27  C   UNL     1       3.103  13.566  18.414  0.00  0.00    +0.000 A 
ATOM     28  C   UNL     1       2.282  12.494  18.066  0.00  0.00    +0.000 A 
ENDBRANCH  21  22
BRANCH  21  30
ATOM     29  C   UNL     1      -1.449   9.590  17.622  0.00  0.00    +0.000 C 
ATOM     30  C   UNL     1      -0.628  10.872  17.823  0.00  0.00    +0.000 C 
BRANCH  30  31
ATOM     31  C   UNL     1      -1.527  11.984  18.376  0.00  0.00    +0.000 C 
ATOM     32  F   UNL     1      -1.016  13.214  18.151  0.00  0.00    +0.000 F 
ATOM     33  F   UNL     1      -2.768  11.970  17.849  0.00  0.00    +0.000 F 
ATOM     34  F   UNL     1      -1.656  11.854  19.719  0.00  0.00    +0.000 F 
ENDBRANCH  30  31
ENDBRANCH  21  30
ENDBRANCH   1  21
TORSDOF 9
ENDMDL
MODEL 8
REMARK VINA RESULT:      -7.5      4.197      8.409
REMARK  Name = 
REMARK  10 active torsions:
REMARK  status: ('A' for Active; 'I' for Inactive)
REMARK    1  A    between atoms: C_1  and  C_2
REMARK    2  A    between atoms: C_2  and  C_3
REMARK    3  A    between atoms: C_2  and  C_29
REMARK    4  A    between atoms: C_3  and  C_4
REMARK    5  A    between atoms: C_3  and  C_22
REMARK    6  A    between atoms: N_6  and  C_7
REMARK    7  A    between atoms: C_9  and  C_10
REMARK    8  A    between atoms: C_10  and  C_11
REMARK    9  A    between atoms: C_11  and  C_12
REMARK   10  A    between atoms: C_12  and  O_14
REMARK                            x       y       z     vdW  Elec       q    Type
REMARK                         _______ _______ _______ _____ _____    ______ ____
ROOT
ATOM      1  C   UNL     1       3.801   5.462  17.900  0.00  0.00    +0.000 C 
ATOM      2  O   UNL     1       4.605   6.393  17.949  0.00  0.00    +0.000 OA
ATOM      3  N   UNL     1       2.557   5.469  18.508  0.00  0.00    +0.000 N 
ATOM      4  H   UNL     1       2.193   4.567  18.802  0.00  0.00    +0.000 HD
ENDROOT
BRANCH   3   5
ATOM      5  C   UNL     1       2.072   6.586  19.234  0.00  0.00    +0.000 A 
ATOM      6  C   UNL     1       1.866   7.827  18.609  0.00  0.00    +0.000 A 
ATOM      7  C   UNL     1       1.380   8.964  19.296  0.00  0.00    +0.000 A 
ATOM      8  C   UNL     1       1.141   8.796  20.674  0.00  0.00    +0.000 A 
ATOM      9  C   UNL     1       1.338   7.568  21.317  0.00  0.00    +0.000 A 
ATOM     10  C   UNL     1       1.775   6.460  20.593  0.00  0.00    +0.000 A 
ATOM     11 CL   UNL     1       2.014   4.964  21.425  0.00  0.00    +0.000 Cl
BRANCH   7  12
ATOM     12  C   UNL     1       1.125  10.362  18.544  0.00  0.00    +0.000 C 
ATOM     13  C   UNL     1       1.268  11.655  19.396  0.00  0.00    +0.000 C 
ATOM     14  O   UNL     1       2.050  12.291  18.358  0.00  0.00    +0.000 OA
ATOM     15  C   UNL     1       2.295  10.998  17.745  0.00  0.00    +0.000 C 
BRANCH  12  16
ATOM     16  C   UNL     1      -0.222  10.374  17.792  0.00  0.00    +0.000 C 
BRANCH  16  17
ATOM     17  C   UNL     1      -1.234  11.383  18.272  0.00  0.00    +0.000 C 
ATOM     18  O   UNL     1      -1.932  11.274  19.266  0.00  0.00    +0.000 OA
BRANCH  17  19
ATOM     19  O   UNL     1      -1.323  12.455  17.448  0.00  0.00    +0.000 OA
ATOM     20  H   UNL     1      -2.194  12.563  17.022  0.00  0.00    +0.000 HD
ENDBRANCH  17  19
ENDBRANCH  16  17
ENDBRANCH  12  16
ENDBRANCH   7  12
ENDBRANCH   3   5
BRANCH   1  21
ATOM     21  C   UNL     1       4.147   4.199  17.096  0.00  0.00    +0.000 C 
BRANCH  21  22
ATOM     22  C   UNL     1       5.163   4.511  15.991  0.00  0.00    +0.000 A 
ATOM     23  C   UNL     1       6.468   4.878  16.384  0.00  0.00    +0.000 A 
ATOM     24  C   UNL     1       7.455   5.145  15.432  0.00  0.00    +0.000 A 
ATOM     25  C   UNL     1       7.154   5.038  14.082  0.00  0.00    +0.000 A 
ATOM     26 CL   UNL     1       8.375   5.354  12.911  0.00  0.00    +0.000 Cl
ATOM     27  C   UNL     1       5.870   4.682  13.670  0.00  0.00    +0.000 A 
ATOM     28  C   UNL     1       4.879   4.412  14.614  0.00  0.00    +0.000 A 
ENDBRANCH  21  22
BRANCH  21  30
ATOM     29  C   UNL     1       4.866   3.424  19.431  0.00  0.00    +0.000 C 
ATOM     30  C   UNL     1       4.441   2.989  18.021  0.00  0.00    +0.000 C 
BRANCH  30  31
ATOM     31  C   UNL     1       3.214   2.074  18.107  0.00  0.00    +0.000 C 
ATOM     32  F   UNL     1       2.478   2.308  19.215  0.00  0.00    +0.000 F 
ATOM     33  F   UNL     1       2.386   2.201  17.050  0.00  0.00    +0.000 F 
ATOM     34  F   UNL     1       3.603   0.777  18.162  0.00  0.00    +0.000 F 
ENDBRANCH  30  31
ENDBRANCH  21  30
ENDBRANCH   1  21
TORSDOF 9
ENDMDL
MODEL 9
REMARK VINA RESULT:      -7.4      0.837      1.077
REMARK  Name = 
REMARK  10 active torsions:
REMARK  status: ('A' for Active; 'I' for Inactive)
REMARK    1  A    between atoms: C_1  and  C_2
REMARK    2  A    between atoms: C_2  and  C_3
REMARK    3  A    between atoms: C_2  and  C_29
REMARK    4  A    between atoms: C_3  and  C_4
REMARK    5  A    between atoms: C_3  and  C_22
REMARK    6  A    between atoms: N_6  and  C_7
REMARK    7  A    between atoms: C_9  and  C_10
REMARK    8  A    between atoms: C_10  and  C_11
REMARK    9  A    between atoms: C_11  and  C_12
REMARK   10  A    between atoms: C_12  and  O_14
REMARK                            x       y       z     vdW  Elec       q    Type
REMARK                         _______ _______ _______ _____ _____    ______ ____
ROOT
ATOM      1  C   UNL     1       1.585   9.179  18.504  0.00  0.00    +0.000 C 
ATOM      2  O   UNL     1       1.733   9.053  17.288  0.00  0.00    +0.000 OA
ATOM      3  N   UNL     1       1.990   8.245  19.442  0.00  0.00    +0.000 N 
ATOM      4  H   UNL     1       1.448   8.202  20.300  0.00  0.00    +0.000 HD
ENDROOT
BRANCH   3   5
ATOM      5  C   UNL     1       2.654   7.044  19.083  0.00  0.00    +0.000 A 
ATOM      6  C   UNL     1       3.795   7.060  18.266  0.00  0.00    +0.000 A 
ATOM      7  C   UNL     1       4.489   5.887  17.888  0.00  0.00    +0.000 A 
ATOM      8  C   UNL     1       3.945   4.673  18.352  0.00  0.00    +0.000 A 
ATOM      9  C   UNL     1       2.809   4.634  19.170  0.00  0.00    +0.000 A 
ATOM     10  C   UNL     1       2.183   5.817  19.556  0.00  0.00    +0.000 A 
ATOM     11 CL   UNL     1       0.777   5.726  20.558  0.00  0.00    +0.000 Cl
BRANCH   7  12
ATOM     12  C   UNL     1       5.813   5.942  16.977  0.00  0.00    +0.000 C 
ATOM     13  C   UNL     1       6.743   7.174  17.162  0.00  0.00    +0.000 C 
ATOM     14  O   UNL     1       7.915   6.325  17.199  0.00  0.00    +0.000 OA
ATOM     15  C   UNL     1       7.073   5.169  17.455  0.00  0.00    +0.000 C 
BRANCH  12  16
ATOM     16  C   UNL     1       5.492   5.744  15.482  0.00  0.00    +0.000 C 
BRANCH  16  17
ATOM     17  C   UNL     1       6.399   4.802  14.733  0.00  0.00    +0.000 C 
ATOM     18  O   UNL     1       6.187   3.617  14.534  0.00  0.00    +0.000 OA
BRANCH  17  19
ATOM     19  O   UNL     1       7.532   5.408  14.306  0.00  0.00    +0.000 OA
ATOM     20  H   UNL     1       8.287   4.803  14.176  0.00  0.00    +0.000 HD
ENDBRANCH  17  19
ENDBRANCH  16  17
ENDBRANCH  12  16
ENDBRANCH   7  12
ENDBRANCH   3   5
BRANCH   1  21
ATOM     21  C   UNL     1       0.941  10.456  19.064  0.00  0.00    +0.000 C 
BRANCH  21  22
ATOM     22  C   UNL     1      -0.441  10.694  18.443  0.00  0.00    +0.000 A 
ATOM     23  C   UNL     1      -1.022   9.638  17.709  0.00  0.00    +0.000 A 
ATOM     24  C   UNL     1      -2.291   9.773  17.143  0.00  0.00    +0.000 A 
ATOM     25  C   UNL     1      -2.997  10.955  17.311  0.00  0.00    +0.000 A 
ATOM     26 CL   UNL     1      -4.567  11.114  16.624  0.00  0.00    +0.000 Cl
ATOM     27  C   UNL     1      -2.441  12.013  18.029  0.00  0.00    +0.000 A 
ATOM     28  C   UNL     1      -1.175  11.887  18.599  0.00  0.00    +0.000 A 
ENDBRANCH  21  22
BRANCH  21  30
ATOM     29  C   UNL     1       1.300  11.960  21.108  0.00  0.00    +0.000 C 
ATOM     30  C   UNL     1       1.054  10.529  20.610  0.00  0.00    +0.000 C 
BRANCH  30  31
ATOM     31  C   UNL     1      -0.210   9.960  21.264  0.00  0.00    +0.000 C 
ATOM     32  F   UNL     1       0.017   9.529  22.524  0.00  0.00    +0.000 F 
ATOM     33  F   UNL     1      -1.218  10.854  21.328  0.00  0.00    +0.000 F 
ATOM     34  F   UNL     1      -0.658   8.893  20.561  0.00  0.00    +0.000 F 
ENDBRANCH  30  31
ENDBRANCH  21  30
ENDBRANCH   1  21
TORSDOF 9
ENDMDL
