MODEL 1
REMARK VINA RESULT:      -7.6      0.000      0.000
REMARK  Name = 
REMARK  7 active torsions:
REMARK  status: ('A' for Active; 'I' for Inactive)
REMARK    1  A    between atoms: C_1  and  C_2
REMARK    2  A    between atoms: C_5  and  C_6
REMARK    3  A    between atoms: C_7  and  C_8
REMARK    4  A    between atoms: C_8  and  N_9
REMARK    5  A    between atoms: C_11  and  N_12
REMARK    6  A    between atoms: C_13  and  C_15
REMARK    7  A    between atoms: C_15  and  C_16
REMARK                            x       y       z     vdW  Elec       q    Type
REMARK                         _______ _______ _______ _____ _____    ______ ____
ROOT
ATOM      1  N   UNL     1       5.729   5.080  17.354  0.00  0.00    +0.000 N 
ATOM      2  C   UNL     1       6.053   6.232  17.999  0.00  0.00    +0.000 A 
ATOM      3  C   UNL     1       7.412   6.209  18.219  0.00  0.00    +0.000 A 
ATOM      4  C   UNL     1       7.806   4.942  17.714  0.00  0.00    +0.000 A 
ATOM      5  N   UNL     1       6.794   4.266  17.169  0.00  0.00    +0.000 NA
ENDROOT
BRANCH   3   6
ATOM      6  N   UNL     1       8.205   7.195  18.781  0.00  0.00    +0.000 N 
ATOM      7  C   UNL     1       8.287   8.483  18.278  0.00  0.00    +0.000 C 
ATOM      8  O   UNL     1       7.611   8.939  17.358  0.00  0.00    +0.000 OA
ATOM      9  H   UNL     1       8.720   6.954  19.614  0.00  0.00    +0.000 HD
BRANCH   7  10
ATOM     10  C   UNL     1       9.295   9.380  18.986  0.00  0.00    +0.000 C 
BRANCH  10  11
ATOM     11  C   UNL     1       9.157  10.876  18.640  0.00  0.00    +0.000 C 
ATOM     12  C   UNL     1       9.032  11.758  19.894  0.00  0.00    +0.000 C 
ATOM     13  C   UNL     1      10.331  11.855  20.697  0.00  0.00    +0.000 C 
ATOM     14  C   UNL     1      11.537  12.236  19.840  0.00  0.00    +0.000 C 
ATOM     15  C   UNL     1      11.654  11.387  18.578  0.00  0.00    +0.000 C 
ATOM     16  C   UNL     1      10.340  11.389  17.798  0.00  0.00    +0.000 C 
ENDBRANCH  10  11
ENDBRANCH   7  10
ENDBRANCH   3   6
BRANCH   1  17
ATOM     17  C   UNL     1       4.450   4.797  16.710  0.00  0.00    +0.000 C 
BRANCH  17  24
ATOM     18  C   UNL     1       2.432   6.818  18.230  0.00  0.00    +0.000 C 
ATOM     19  C   UNL     1       2.515   5.345  18.357  0.00  0.00    +0.000 A 
ATOM     20  N   UNL     1       1.707   4.703  19.207  0.00  0.00    +0.000 NA
ATOM     21  O   UNL     1       2.030   3.370  19.101  0.00  0.00    +0.000 OA
ATOM     22  C   UNL     1       3.037   3.211  18.201  0.00  0.00    +0.000 A 
ATOM     23  C   UNL     1       3.489   1.818  18.007  0.00  0.00    +0.000 C 
ATOM     24  C   UNL     1       3.388   4.445  17.685  0.00  0.00    +0.000 A 
ENDBRANCH  17  24
ENDBRANCH   1  17
TORSDOF 5
ENDMDL
MODEL 2
REMARK VINA RESULT:      -7.5      0.427      1.696
REMARK  Name = 
REMARK  7 active torsions:
REMARK  status: ('A' for Active; 'I' for Inactive)
REMARK    1  A    between atoms: C_1  and  C_2
REMARK    2  A    between atoms: C_5  and  C_6
REMARK    3  A    between atoms: C_7  and  C_8
REMARK    4  A    between atoms: C_8  and  N_9
REMARK    5  A    between atoms: C_11  and  N_12
REMARK    6  A    between atoms: C_13  and  C_15
REMARK    7  A    between atoms: C_15  and  C_16
REMARK                            x       y       z     vdW  Elec       q    Type
REMARK                         _______ _______ _______ _____ _____    ______ ____
ROOT
ATOM      1  N   UNL     1       5.756   5.116  17.395  0.00  0.00    +0.000 N 
ATOM      2  C   UNL     1       6.090   6.288  17.998  0.00  0.00    +0.000 A 
ATOM      3  C   UNL     1       7.440   6.238  18.267  0.00  0.00    +0.000 A 
ATOM      4  C   UNL     1       7.815   4.939  17.835  0.00  0.00    +0.000 A 
ATOM      5  N   UNL     1       6.803   4.266  17.287  0.00  0.00    +0.000 NA
ENDROOT
BRANCH   3   6
ATOM      6  N   UNL     1       8.241   7.228  18.810  0.00  0.00    +0.000 N 
ATOM      7  C   UNL     1       8.321   8.511  18.292  0.00  0.00    +0.000 C 
ATOM      8  O   UNL     1       7.637   8.959  17.374  0.00  0.00    +0.000 OA
ATOM      9  H   UNL     1       8.764   6.995  19.640  0.00  0.00    +0.000 HD
BRANCH   7  10
ATOM     10  C   UNL     1       9.339   9.412  18.982  0.00  0.00    +0.000 C 
BRANCH  10  11
ATOM     11  C   UNL     1       9.189  10.907  18.636  0.00  0.00    +0.000 C 
ATOM     12  C   UNL     1       9.087  11.791  19.890  0.00  0.00    +0.000 C 
ATOM     13  C   UNL     1      10.400  11.893  20.667  0.00  0.00    +0.000 C 
ATOM     14  C   UNL     1      11.588  12.277  19.785  0.00  0.00    +0.000 C 
ATOM     15  C   UNL     1      11.682  11.427  18.523  0.00  0.00    +0.000 C 
ATOM     16  C   UNL     1      10.353  11.423  17.769  0.00  0.00    +0.000 C 
ENDBRANCH  10  11
ENDBRANCH   7  10
ENDBRANCH   3   6
BRANCH   1  17
ATOM     17  C   UNL     1       4.492   4.837  16.721  0.00  0.00    +0.000 C 
BRANCH  17  24
ATOM     18  C   UNL     1       3.412   1.997  17.831  0.00  0.00    +0.000 C 
ATOM     19  C   UNL     1       2.902   3.351  18.143  0.00  0.00    +0.000 A 
ATOM     20  N   UNL     1       1.851   3.497  18.955  0.00  0.00    +0.000 NA
ATOM     21  O   UNL     1       1.621   4.851  19.038  0.00  0.00    +0.000 OA
ATOM     22  C   UNL     1       2.524   5.518  18.269  0.00  0.00    +0.000 A 
ATOM     23  C   UNL     1       2.373   6.987  18.260  0.00  0.00    +0.000 C 
ATOM     24  C   UNL     1       3.377   4.608  17.673  0.00  0.00    +0.000 A 
ENDBRANCH  17  24
ENDBRANCH   1  17
TORSDOF 5
ENDMDL
MODEL 3
REMARK VINA RESULT:      -7.5      1.108      2.037
REMARK  Name = 
REMARK  7 active torsions:
REMARK  status: ('A' for Active; 'I' for Inactive)
REMARK    1  A    between atoms: C_1  and  C_2
REMARK    2  A    between atoms: C_5  and  C_6
REMARK    3  A    between atoms: C_7  and  C_8
REMARK    4  A    between atoms: C_8  and  N_9
REMARK    5  A    between atoms: C_11  and  N_12
REMARK    6  A    between atoms: C_13  and  C_15
REMARK    7  A    between atoms: C_15  and  C_16
REMARK                            x       y       z     vdW  Elec       q    Type
REMARK                         _______ _______ _______ _____ _____    ______ ____
ROOT
ATOM      1  N   UNL     1       6.019   4.788  18.710  0.00  0.00    +0.000 N 
ATOM      2  C   UNL     1       6.851   5.617  19.396  0.00  0.00    +0.000 A 
ATOM      3  C   UNL     1       7.521   6.383  18.468  0.00  0.00    +0.000 A 
ATOM      4  C   UNL     1       7.055   5.878  17.225  0.00  0.00    +0.000 A 
ATOM      5  N   UNL     1       6.130   4.929  17.369  0.00  0.00    +0.000 NA
ENDROOT
BRANCH   3   6
ATOM      6  N   UNL     1       8.418   7.412  18.696  0.00  0.00    +0.000 N 
ATOM      7  C   UNL     1       8.253   8.691  18.188  0.00  0.00    +0.000 C 
ATOM      8  O   UNL     1       7.270   9.098  17.574  0.00  0.00    +0.000 OA
ATOM      9  H   UNL     1       9.211   7.211  19.286  0.00  0.00    +0.000 HD
BRANCH   7  10
ATOM     10  C   UNL     1       9.409   9.642  18.475  0.00  0.00    +0.000 C 
BRANCH  10  11
ATOM     11  C   UNL     1       8.968  11.035  18.967  0.00  0.00    +0.000 C 
ATOM     12  C   UNL     1       9.694  11.458  20.255  0.00  0.00    +0.000 C 
ATOM     13  C   UNL     1      11.174  11.779  20.038  0.00  0.00    +0.000 C 
ATOM     14  C   UNL     1      11.410  12.762  18.892  0.00  0.00    +0.000 C 
ATOM     15  C   UNL     1      10.670  12.369  17.618  0.00  0.00    +0.000 C 
ATOM     16  C   UNL     1       9.188  12.125  17.902  0.00  0.00    +0.000 C 
ENDBRANCH  10  11
ENDBRANCH   7  10
ENDBRANCH   3   6
BRANCH   1  17
ATOM     17  C   UNL     1       4.950   3.984  19.293  0.00  0.00    +0.000 C 
BRANCH  17  24
ATOM     18  C   UNL     1       3.131   1.704  17.892  0.00  0.00    +0.000 C 
ATOM     19  C   UNL     1       2.869   3.159  17.972  0.00  0.00    +0.000 A 
ATOM     20  N   UNL     1       1.779   3.673  17.393  0.00  0.00    +0.000 NA
ATOM     21  O   UNL     1       1.825   5.027  17.633  0.00  0.00    +0.000 OA
ATOM     22  C   UNL     1       2.944   5.330  18.344  0.00  0.00    +0.000 A 
ATOM     23  C   UNL     1       3.119   6.763  18.655  0.00  0.00    +0.000 C 
ATOM     24  C   UNL     1       3.653   4.170  18.597  0.00  0.00    +0.000 A 
ENDBRANCH  17  24
ENDBRANCH   1  17
TORSDOF 5
ENDMDL
MODEL 4
REMARK VINA RESULT:      -7.5      3.900      7.352
REMARK  Name = 
REMARK  7 active torsions:
REMARK  status: ('A' for Active; 'I' for Inactive)
REMARK    1  A    between atoms: C_1  and  C_2
REMARK    2  A    between atoms: C_5  and  C_6
REMARK    3  A    between atoms: C_7  and  C_8
REMARK    4  A    between atoms: C_8  and  N_9
REMARK    5  A    between atoms: C_11  and  N_12
REMARK    6  A    between atoms: C_13  and  C_15
REMARK    7  A    between atoms: C_15  and  C_16
REMARK                            x       y       z     vdW  Elec       q    Type
REMARK                         _______ _______ _______ _____ _____    ______ ____
ROOT
ATOM      1  N   UNL     1       4.158   4.564  18.461  0.00  0.00    +0.000 N 
ATOM      2  C   UNL     1       4.045   5.584  19.353  0.00  0.00    +0.000 A 
ATOM      3  C   UNL     1       2.706   5.732  19.638  0.00  0.00    +0.000 A 
ATOM      4  C   UNL     1       2.082   4.773  18.798  0.00  0.00    +0.000 A 
ATOM      5  N   UNL     1       2.959   4.050  18.101  0.00  0.00    +0.000 NA
ENDROOT
BRANCH   3   6
ATOM      6  N   UNL     1       2.115   6.596  20.544  0.00  0.00    +0.000 N 
ATOM      7  C   UNL     1       1.817   7.917  20.252  0.00  0.00    +0.000 C 
ATOM      8  O   UNL     1       1.938   8.454  19.153  0.00  0.00    +0.000 OA
ATOM      9  H   UNL     1       1.869   6.220  21.447  0.00  0.00    +0.000 HD
BRANCH   7  10
ATOM     10  C   UNL     1       1.262   8.718  21.424  0.00  0.00    +0.000 C 
BRANCH  10  11
ATOM     11  C   UNL     1      -0.274   8.855  21.419  0.00  0.00    +0.000 C 
ATOM     12  C   UNL     1      -0.810   9.478  22.719  0.00  0.00    +0.000 C 
ATOM     13  C   UNL     1      -0.474  10.963  22.862  0.00  0.00    +0.000 C 
ATOM     14  C   UNL     1      -0.853  11.784  21.630  0.00  0.00    +0.000 C 
ATOM     15  C   UNL     1      -0.351  11.159  20.332  0.00  0.00    +0.000 C 
ATOM     16  C   UNL     1      -0.778   9.696  20.231  0.00  0.00    +0.000 C 
ENDBRANCH  10  11
ENDBRANCH   7  10
ENDBRANCH   3   6
BRANCH   1  17
ATOM     17  C   UNL     1       5.401   3.906  18.074  0.00  0.00    +0.000 C 
BRANCH  17  24
ATOM     18  C   UNL     1       7.754   5.944  18.955  0.00  0.00    +0.000 C 
ATOM     19  C   UNL     1       7.263   5.654  17.588  0.00  0.00    +0.000 A 
ATOM     20  N   UNL     1       7.790   6.295  16.540  0.00  0.00    +0.000 NA
ATOM     21  O   UNL     1       7.127   5.818  15.433  0.00  0.00    +0.000 OA
ATOM     22  C   UNL     1       6.197   4.902  15.813  0.00  0.00    +0.000 A 
ATOM     23  C   UNL     1       5.402   4.324  14.711  0.00  0.00    +0.000 C 
ATOM     24  C   UNL     1       6.240   4.750  17.187  0.00  0.00    +0.000 A 
ENDBRANCH  17  24
ENDBRANCH   1  17
TORSDOF 5
ENDMDL
MODEL 5
REMARK VINA RESULT:      -7.4      1.118      1.921
REMARK  Name = 
REMARK  7 active torsions:
REMARK  status: ('A' for Active; 'I' for Inactive)
REMARK    1  A    between atoms: C_1  and  C_2
REMARK    2  A    between atoms: C_5  and  C_6
REMARK    3  A    between atoms: C_7  and  C_8
REMARK    4  A    between atoms: C_8  and  N_9
REMARK    5  A    between atoms: C_11  and  N_12
REMARK    6  A    between atoms: C_13  and  C_15
REMARK    7  A    between atoms: C_15  and  C_16
REMARK                            x       y       z     vdW  Elec       q    Type
REMARK                         _______ _______ _______ _____ _____    ______ ____
ROOT
ATOM      1  N   UNL     1       5.681   5.130  17.463  0.00  0.00    +0.000 N 
ATOM      2  C   UNL     1       6.238   5.864  18.463  0.00  0.00    +0.000 A 
ATOM      3  C   UNL     1       7.346   6.493  17.940  0.00  0.00    +0.000 A 
ATOM      4  C   UNL     1       7.403   6.007  16.607  0.00  0.00    +0.000 A 
ATOM      5  N   UNL     1       6.385   5.200  16.309  0.00  0.00    +0.000 NA
ENDROOT
BRANCH   3   6
ATOM      6  N   UNL     1       8.190   7.398  18.562  0.00  0.00    +0.000 N 
ATOM      7  C   UNL     1       8.207   8.750  18.263  0.00  0.00    +0.000 C 
ATOM      8  O   UNL     1       7.431   9.328  17.504  0.00  0.00    +0.000 OA
ATOM      9  H   UNL     1       8.794   7.042  19.287  0.00  0.00    +0.000 HD
BRANCH   7  10
ATOM     10  C   UNL     1       9.282   9.549  18.992  0.00  0.00    +0.000 C 
BRANCH  10  11
ATOM     11  C   UNL     1       9.260  11.059  18.682  0.00  0.00    +0.000 C 
ATOM     12  C   UNL     1       9.225  11.918  19.958  0.00  0.00    +0.000 C 
ATOM     13  C   UNL     1      10.538  11.890  20.742  0.00  0.00    +0.000 C 
ATOM     14  C   UNL     1      11.759  12.194  19.873  0.00  0.00    +0.000 C 
ATOM     15  C   UNL     1      11.788  11.370  18.591  0.00  0.00    +0.000 C 
ATOM     16  C   UNL     1      10.468  11.496  17.832  0.00  0.00    +0.000 C 
ENDBRANCH  10  11
ENDBRANCH   7  10
ENDBRANCH   3   6
BRANCH   1  17
ATOM     17  C   UNL     1       4.364   4.504  17.500  0.00  0.00    +0.000 C 
BRANCH  17  24
ATOM     18  C   UNL     1       3.682   2.781  20.152  0.00  0.00    +0.000 C 
ATOM     19  C   UNL     1       3.257   4.162  19.827  0.00  0.00    +0.000 A 
ATOM     20  N   UNL     1       2.471   4.834  20.674  0.00  0.00    +0.000 NA
ATOM     21  O   UNL     1       2.251   6.061  20.092  0.00  0.00    +0.000 OA
ATOM     22  C   UNL     1       2.893   6.124  18.895  0.00  0.00    +0.000 A 
ATOM     23  C   UNL     1       2.721   7.393  18.160  0.00  0.00    +0.000 C 
ATOM     24  C   UNL     1       3.561   4.935  18.672  0.00  0.00    +0.000 A 
ENDBRANCH  17  24
ENDBRANCH   1  17
TORSDOF 5
ENDMDL
MODEL 6
REMARK VINA RESULT:      -7.3      4.014      7.173
REMARK  Name = 
REMARK  7 active torsions:
REMARK  status: ('A' for Active; 'I' for Inactive)
REMARK    1  A    between atoms: C_1  and  C_2
REMARK    2  A    between atoms: C_5  and  C_6
REMARK    3  A    between atoms: C_7  and  C_8
REMARK    4  A    between atoms: C_8  and  N_9
REMARK    5  A    between atoms: C_11  and  N_12
REMARK    6  A    between atoms: C_13  and  C_15
REMARK    7  A    between atoms: C_15  and  C_16
REMARK                            x       y       z     vdW  Elec       q    Type
REMARK                         _______ _______ _______ _____ _____    ______ ____
ROOT
ATOM      1  N   UNL     1       4.080   4.705  17.990  0.00  0.00    +0.000 N 
ATOM      2  C   UNL     1       3.526   5.902  17.662  0.00  0.00    +0.000 A 
ATOM      3  C   UNL     1       3.013   6.446  18.818  0.00  0.00    +0.000 A 
ATOM      4  C   UNL     1       3.261   5.443  19.792  0.00  0.00    +0.000 A 
ATOM      5  N   UNL     1       3.926   4.398  19.299  0.00  0.00    +0.000 NA
ENDROOT
BRANCH   3   6
ATOM      6  N   UNL     1       2.417   7.684  18.991  0.00  0.00    +0.000 N 
ATOM      7  C   UNL     1       1.610   7.994  20.073  0.00  0.00    +0.000 C 
ATOM      8  O   UNL     1       1.403   7.271  21.046  0.00  0.00    +0.000 OA
ATOM      9  H   UNL     1       2.615   8.391  18.301  0.00  0.00    +0.000 HD
BRANCH   7  10
ATOM     10  C   UNL     1       0.974   9.378  20.015  0.00  0.00    +0.000 C 
BRANCH  10  11
ATOM     11  C   UNL     1       1.004  10.025  18.616  0.00  0.00    +0.000 C 
ATOM     12  C   UNL     1      -0.324   9.848  17.861  0.00  0.00    +0.000 C 
ATOM     13  C   UNL     1      -1.467  10.680  18.444  0.00  0.00    +0.000 C 
ATOM     14  C   UNL     1      -1.100  12.152  18.631  0.00  0.00    +0.000 C 
ATOM     15  C   UNL     1       0.231  12.339  19.352  0.00  0.00    +0.000 C 
ATOM     16  C   UNL     1       1.335  11.528  18.676  0.00  0.00    +0.000 C 
ENDBRANCH  10  11
ENDBRANCH   7  10
ENDBRANCH   3   6
BRANCH   1  17
ATOM     17  C   UNL     1       4.947   3.905  17.130  0.00  0.00    +0.000 C 
BRANCH  17  24
ATOM     18  C   UNL     1       5.590   4.078  13.964  0.00  0.00    +0.000 C 
ATOM     19  C   UNL     1       6.280   4.774  15.074  0.00  0.00    +0.000 A 
ATOM     20  N   UNL     1       7.324   5.568  14.817  0.00  0.00    +0.000 NA
ATOM     21  O   UNL     1       7.741   6.051  16.036  0.00  0.00    +0.000 OA
ATOM     22  C   UNL     1       6.959   5.542  17.025  0.00  0.00    +0.000 A 
ATOM     23  C   UNL     1       7.317   5.974  18.390  0.00  0.00    +0.000 C 
ATOM     24  C   UNL     1       5.998   4.717  16.468  0.00  0.00    +0.000 A 
ENDBRANCH  17  24
ENDBRANCH   1  17
TORSDOF 5
ENDMDL
MODEL 7
REMARK VINA RESULT:      -7.3      3.858      7.259
REMARK  Name = 
REMARK  7 active torsions:
REMARK  status: ('A' for Active; 'I' for Inactive)
REMARK    1  A    between atoms: C_1  and  C_2
REMARK    2  A    between atoms: C_5  and  C_6
REMARK    3  A    between atoms: C_7  and  C_8
REMARK    4  A    between atoms: C_8  and  N_9
REMARK    5  A    between atoms: C_11  and  N_12
REMARK    6  A    between atoms: C_13  and  C_15
REMARK    7  A    between atoms: C_15  and  C_16
REMARK                            x       y       z     vdW  Elec       q    Type
REMARK                         _______ _______ _______ _____ _____    ______ ____
ROOT
ATOM      1  N   UNL     1       3.953   4.838  17.910  0.00  0.00    +0.000 N 
ATOM      2  C   UNL     1       3.878   6.161  18.214  0.00  0.00    +0.000 A 
ATOM      3  C   UNL     1       2.602   6.404  18.672  0.00  0.00    +0.000 A 
ATOM      4  C   UNL     1       1.959   5.145  18.538  0.00  0.00    +0.000 A 
ATOM      5  N   UNL     1       2.780   4.191  18.098  0.00  0.00    +0.000 NA
ENDROOT
BRANCH   3   6
ATOM      6  N   UNL     1       2.080   7.588  19.164  0.00  0.00    +0.000 N 
ATOM      7  C   UNL     1       1.944   8.734  18.399  0.00  0.00    +0.000 C 
ATOM      8  O   UNL     1       2.165   8.823  17.192  0.00  0.00    +0.000 OA
ATOM      9  H   UNL     1       1.762   7.590  20.121  0.00  0.00    +0.000 HD
BRANCH   7  10
ATOM     10  C   UNL     1       1.442   9.953  19.164  0.00  0.00    +0.000 C 
BRANCH  10  11
ATOM     11  C   UNL     1       0.035   9.778  19.769  0.00  0.00    +0.000 C 
ATOM     12  C   UNL     1      -0.085  10.414  21.165  0.00  0.00    +0.000 C 
ATOM     13  C   UNL     1      -0.066  11.943  21.136  0.00  0.00    +0.000 C 
ATOM     14  C   UNL     1      -1.066  12.535  20.143  0.00  0.00    +0.000 C 
ATOM     15  C   UNL     1      -0.976  11.891  18.764  0.00  0.00    +0.000 C 
ATOM     16  C   UNL     1      -1.065  10.369  18.867  0.00  0.00    +0.000 C 
ENDBRANCH  10  11
ENDBRANCH   7  10
ENDBRANCH   3   6
BRANCH   1  17
ATOM     17  C   UNL     1       5.179   4.099  17.626  0.00  0.00    +0.000 C 
BRANCH  17  24
ATOM     18  C   UNL     1       5.497   4.020  14.408  0.00  0.00    +0.000 C 
ATOM     19  C   UNL     1       6.273   4.822  15.382  0.00  0.00    +0.000 A 
ATOM     20  N   UNL     1       7.261   5.614  14.956  0.00  0.00    +0.000 NA
ATOM     21  O   UNL     1       7.783   6.207  16.083  0.00  0.00    +0.000 OA
ATOM     22  C   UNL     1       7.119   5.765  17.184  0.00  0.00    +0.000 A 
ATOM     23  C   UNL     1       7.598   6.317  18.467  0.00  0.00    +0.000 C 
ATOM     24  C   UNL     1       6.133   4.876  16.797  0.00  0.00    +0.000 A 
ENDBRANCH  17  24
ENDBRANCH   1  17
TORSDOF 5
ENDMDL
MODEL 8
REMARK VINA RESULT:      -7.2      4.154      6.961
REMARK  Name = 
REMARK  7 active torsions:
REMARK  status: ('A' for Active; 'I' for Inactive)
REMARK    1  A    between atoms: C_1  and  C_2
REMARK    2  A    between atoms: C_5  and  C_6
REMARK    3  A    between atoms: C_7  and  C_8
REMARK    4  A    between atoms: C_8  and  N_9
REMARK    5  A    between atoms: C_11  and  N_12
REMARK    6  A    between atoms: C_13  and  C_15
REMARK    7  A    between atoms: C_15  and  C_16
REMARK                            x       y       z     vdW  Elec       q    Type
REMARK                         _______ _______ _______ _____ _____    ______ ____
ROOT
ATOM      1  N   UNL     1       3.882   4.346  17.208  0.00  0.00    +0.000 N 
ATOM      2  C   UNL     1       3.820   5.609  17.709  0.00  0.00    +0.000 A 
ATOM      3  C   UNL     1       2.542   5.797  18.187  0.00  0.00    +0.000 A 
ATOM      4  C   UNL     1       1.885   4.582  17.858  0.00  0.00    +0.000 A 
ATOM      5  N   UNL     1       2.698   3.694  17.287  0.00  0.00    +0.000 NA
ENDROOT
BRANCH   3   6
ATOM      6  N   UNL     1       2.030   6.900  18.848  0.00  0.00    +0.000 N 
ATOM      7  C   UNL     1       2.062   8.182  18.324  0.00  0.00    +0.000 C 
ATOM      8  O   UNL     1       2.444   8.488  17.196  0.00  0.00    +0.000 OA
ATOM      9  H   UNL     1       1.589   6.740  19.740  0.00  0.00    +0.000 HD
BRANCH   7  10
ATOM     10  C   UNL     1       1.535   9.264  19.259  0.00  0.00    +0.000 C 
BRANCH  10  11
ATOM     11  C   UNL     1       0.856  10.444  18.535  0.00  0.00    +0.000 C 
ATOM     12  C   UNL     1      -0.653  10.517  18.821  0.00  0.00    +0.000 C 
ATOM     13  C   UNL     1      -0.977  10.945  20.253  0.00  0.00    +0.000 C 
ATOM     14  C   UNL     1      -0.247  12.219  20.676  0.00  0.00    +0.000 C 
ATOM     15  C   UNL     1       1.247  12.170  20.369  0.00  0.00    +0.000 C 
ATOM     16  C   UNL     1       1.490  11.798  18.908  0.00  0.00    +0.000 C 
ENDBRANCH  10  11
ENDBRANCH   7  10
ENDBRANCH   3   6
BRANCH   1  17
ATOM     17  C   UNL     1       5.101   3.641  16.827  0.00  0.00    +0.000 C 
BRANCH  17  24
ATOM     18  C   UNL     1       5.665   3.877  13.650  0.00  0.00    +0.000 C 
ATOM     19  C   UNL     1       6.330   4.610  14.751  0.00  0.00    +0.000 A 
ATOM     20  N   UNL     1       7.314   5.472  14.479  0.00  0.00    +0.000 NA
ATOM     21  O   UNL     1       7.724   5.974  15.693  0.00  0.00    +0.000 OA
ATOM     22  C   UNL     1       6.998   5.408  16.693  0.00  0.00    +0.000 A 
ATOM     23  C   UNL     1       7.355   5.854  18.055  0.00  0.00    +0.000 C 
ATOM     24  C   UNL     1       6.082   4.525  16.150  0.00  0.00    +0.000 A 
ENDBRANCH  17  24
ENDBRANCH   1  17
TORSDOF 5
ENDMDL
MODEL 9
REMARK VINA RESULT:      -7.2      1.356      2.447
REMARK  Name = 
REMARK  7 active torsions:
REMARK  status: ('A' for Active; 'I' for Inactive)
REMARK    1  A    between atoms: C_1  and  C_2
REMARK    2  A    between atoms: C_5  and  C_6
REMARK    3  A    between atoms: C_7  and  C_8
REMARK    4  A    between atoms: C_8  and  N_9
REMARK    5  A    between atoms: C_11  and  N_12
REMARK    6  A    between atoms: C_13  and  C_15
REMARK    7  A    between atoms: C_15  and  C_16
REMARK                            x       y       z     vdW  Elec       q    Type
REMARK                         _______ _______ _______ _____ _____    ______ ____
ROOT
ATOM      1  N   UNL     1       5.723   5.118  18.026  0.00  0.00    +0.000 N 
ATOM      2  C   UNL     1       6.277   6.285  18.451  0.00  0.00    +0.000 A 
ATOM      3  C   UNL     1       6.656   6.989  17.330  0.00  0.00    +0.000 A 
ATOM      4  C   UNL     1       6.336   6.108  16.263  0.00  0.00    +0.000 A 
ATOM      5  N   UNL     1       5.751   4.985  16.679  0.00  0.00    +0.000 NA
ENDROOT
BRANCH   3   6
ATOM      6  N   UNL     1       7.199   8.261  17.261  0.00  0.00    +0.000 N 
ATOM      7  C   UNL     1       8.194   8.708  18.115  0.00  0.00    +0.000 C 
ATOM      8  O   UNL     1       8.782   8.028  18.953  0.00  0.00    +0.000 OA
ATOM      9  H   UNL     1       6.863   8.867  16.530  0.00  0.00    +0.000 HD
BRANCH   7  10
ATOM     10  C   UNL     1       8.577  10.172  17.931  0.00  0.00    +0.000 C 
BRANCH  10  11
ATOM     11  C   UNL     1       9.902  10.565  18.615  0.00  0.00    +0.000 C 
ATOM     12  C   UNL     1      10.761  11.493  17.739  0.00  0.00    +0.000 C 
ATOM     13  C   UNL     1      10.180  12.901  17.599  0.00  0.00    +0.000 C 
ATOM     14  C   UNL     1       9.827  13.538  18.942  0.00  0.00    +0.000 C 
ATOM     15  C   UNL     1       9.001  12.615  19.832  0.00  0.00    +0.000 C 
ATOM     16  C   UNL     1       9.674  11.251  19.975  0.00  0.00    +0.000 C 
ENDBRANCH  10  11
ENDBRANCH   7  10
ENDBRANCH   3   6
BRANCH   1  17
ATOM     17  C   UNL     1       4.967   4.184  18.855  0.00  0.00    +0.000 C 
BRANCH  17  24
ATOM     18  C   UNL     1       3.293   1.470  18.311  0.00  0.00    +0.000 C 
ATOM     19  C   UNL     1       2.826   2.870  18.187  0.00  0.00    +0.000 A 
ATOM     20  N   UNL     1       1.579   3.123  17.779  0.00  0.00    +0.000 NA
ATOM     21  O   UNL     1       1.459   4.494  17.760  0.00  0.00    +0.000 OA
ATOM     22  C   UNL     1       2.632   5.064  18.144  0.00  0.00    +0.000 A 
ATOM     23  C   UNL     1       2.637   6.540  18.150  0.00  0.00    +0.000 C 
ATOM     24  C   UNL     1       3.548   4.071  18.437  0.00  0.00    +0.000 A 
ENDBRANCH  17  24
ENDBRANCH   1  17
TORSDOF 5
ENDMDL
