MODEL 1
REMARK VINA RESULT:      -8.1      0.000      0.000
REMARK  Name = 
REMARK  10 active torsions:
REMARK  status: ('A' for Active; 'I' for Inactive)
REMARK    1  A    between atoms: C_6  and  C_7
REMARK    2  A    between atoms: C_10  and  O_11
REMARK    3  A    between atoms: C_12  and  C_13
REMARK    4  A    between atoms: C_12  and  C_14
REMARK    5  A    between atoms: C_14  and  O_15
REMARK    6  A    between atoms: C_16  and  C_17
REMARK    7  A    between atoms: C_17  and  C_18
REMARK    8  A    between atoms: C_18  and  O_19
REMARK    9  A    between atoms: C_18  and  C_20
REMARK   10  A    between atoms: C_25  and  O_26
REMARK                            x       y       z     vdW  Elec       q    Type
REMARK                         _______ _______ _______ _____ _____    ______ ____
ROOT
ATOM      1  C   UNL     1       4.785   6.800  16.241  0.00  0.00    +0.000 C 
ATOM      2  C   UNL     1       4.621   6.376  17.505  0.00  0.00    +0.000 C 
ATOM      3  C   UNL     1       5.685   5.503  18.142  0.00  0.00    +0.000 C 
ATOM      4  C   UNL     1       5.151   4.145  18.642  0.00  0.00    +0.000 C 
ATOM      5  C   UNL     1       3.869   4.283  19.489  0.00  0.00    +0.000 C 
ATOM      6  C   UNL     1       2.786   5.173  18.776  0.00  0.00    +0.000 C 
ATOM      7  C   UNL     1       2.310   4.513  17.445  0.00  0.00    +0.000 C 
ATOM      8  C   UNL     1       1.609   5.410  19.778  0.00  0.00    +0.000 C 
ATOM      9  C   UNL     1       1.184   4.283  20.711  0.00  0.00    +0.000 C 
ATOM     10  C   UNL     1       2.325   3.435  21.269  0.00  0.00    +0.000 C 
ATOM     11  C   UNL     1       3.275   2.942  20.139  0.00  0.00    +0.000 C 
ATOM     12  C   UNL     1       4.398   2.069  20.751  0.00  0.00    +0.000 C 
ATOM     13  C   UNL     1       3.392   6.609  18.387  0.00  0.00    +0.000 C 
ENDROOT
BRANCH  10  14
ATOM     14  O   UNL     1       1.796   2.339  22.024  0.00  0.00    +0.000 OA
ATOM     15  H   UNL     1       1.612   2.636  22.931  0.00  0.00    +0.000 HD
ENDBRANCH  10  14
BRANCH  11  16
ATOM     16  C   UNL     1       2.454   1.983  19.229  0.00  0.00    +0.000 C 
BRANCH  16  17
ATOM     17  O   UNL     1       3.287   1.170  18.415  0.00  0.00    +0.000 OA
ATOM     18  H   UNL     1       3.834   1.771  17.880  0.00  0.00    +0.000 HD
ENDBRANCH  16  17
ENDBRANCH  11  16
BRANCH  13  19
ATOM     19  C   UNL     1       2.251   7.548  17.858  0.00  0.00    +0.000 C 
BRANCH  19  20
ATOM     20  C   UNL     1       1.997   8.926  18.485  0.00  0.00    +0.000 C 
BRANCH  20  21
ATOM     21  C   UNL     1       0.724   9.102  19.307  0.00  0.00    +0.000 C 
ATOM     22  C   UNL     1      -0.171  10.155  18.721  0.00  0.00    +0.000 C 
ATOM     23  O   UNL     1      -0.816  10.039  17.693  0.00  0.00    +0.000 OA
ATOM     24  O   UNL     1      -0.133  11.306  19.458  0.00  0.00    +0.000 OA
ATOM     25  C   UNL     1       0.864  11.186  20.477  0.00  0.00    +0.000 C 
ATOM     26  C   UNL     1       1.021   9.695  20.676  0.00  0.00    +0.000 C 
BRANCH  26  27
ATOM     27  O   UNL     1       0.063   9.214  21.627  0.00  0.00    +0.000 OA
ATOM     28  H   UNL     1      -0.333   8.389  21.291  0.00  0.00    +0.000 HD
ENDBRANCH  26  27
ENDBRANCH  20  21
BRANCH  20  29
ATOM     29  O   UNL     1       2.062   9.910  17.437  0.00  0.00    +0.000 OA
ATOM     30  H   UNL     1       1.487  10.663  17.672  0.00  0.00    +0.000 HD
ENDBRANCH  20  29
ENDBRANCH  19  20
ENDBRANCH  13  19
TORSDOF 8
ENDMDL
MODEL 2
REMARK VINA RESULT:      -7.8      2.309      4.115
REMARK  Name = 
REMARK  10 active torsions:
REMARK  status: ('A' for Active; 'I' for Inactive)
REMARK    1  A    between atoms: C_6  and  C_7
REMARK    2  A    between atoms: C_10  and  O_11
REMARK    3  A    between atoms: C_12  and  C_13
REMARK    4  A    between atoms: C_12  and  C_14
REMARK    5  A    between atoms: C_14  and  O_15
REMARK    6  A    between atoms: C_16  and  C_17
REMARK    7  A    between atoms: C_17  and  C_18
REMARK    8  A    between atoms: C_18  and  O_19
REMARK    9  A    between atoms: C_18  and  C_20
REMARK   10  A    between atoms: C_25  and  O_26
REMARK                            x       y       z     vdW  Elec       q    Type
REMARK                         _______ _______ _______ _____ _____    ______ ____
ROOT
ATOM      1  C   UNL     1       1.190   4.207  19.866  0.00  0.00    +0.000 C 
ATOM      2  C   UNL     1       1.836   4.594  18.754  0.00  0.00    +0.000 C 
ATOM      3  C   UNL     1       2.024   3.607  17.619  0.00  0.00    +0.000 C 
ATOM      4  C   UNL     1       3.501   3.382  17.234  0.00  0.00    +0.000 C 
ATOM      5  C   UNL     1       4.276   4.703  17.046  0.00  0.00    +0.000 C 
ATOM      6  C   UNL     1       4.073   5.682  18.259  0.00  0.00    +0.000 C 
ATOM      7  C   UNL     1       4.651   5.070  19.573  0.00  0.00    +0.000 C 
ATOM      8  C   UNL     1       4.734   7.053  17.900  0.00  0.00    +0.000 C 
ATOM      9  C   UNL     1       6.036   7.070  17.109  0.00  0.00    +0.000 C 
ATOM     10  C   UNL     1       6.146   6.010  16.015  0.00  0.00    +0.000 C 
ATOM     11  C   UNL     1       5.799   4.593  16.555  0.00  0.00    +0.000 C 
ATOM     12  C   UNL     1       5.948   3.554  15.416  0.00  0.00    +0.000 C 
ATOM     13  C   UNL     1       2.511   5.949  18.524  0.00  0.00    +0.000 C 
ENDROOT
BRANCH  10  14
ATOM     14  O   UNL     1       7.454   6.043  15.432  0.00  0.00    +0.000 OA
ATOM     15  H   UNL     1       7.840   5.151  15.465  0.00  0.00    +0.000 HD
ENDBRANCH  10  14
BRANCH  11  16
ATOM     16  C   UNL     1       6.886   4.218  17.603  0.00  0.00    +0.000 C 
BRANCH  16  17
ATOM     17  O   UNL     1       8.171   4.068  17.016  0.00  0.00    +0.000 OA
ATOM     18  H   UNL     1       8.612   4.933  17.077  0.00  0.00    +0.000 HD
ENDBRANCH  16  17
ENDBRANCH  11  16
BRANCH  13  19
ATOM     19  C   UNL     1       2.333   7.074  19.604  0.00  0.00    +0.000 C 
BRANCH  19  20
ATOM     20  C   UNL     1       1.799   8.463  19.229  0.00  0.00    +0.000 C 
BRANCH  20  21
ATOM     21  C   UNL     1       0.619   9.005  20.029  0.00  0.00    +0.000 C 
ATOM     22  C   UNL     1       0.814  10.449  20.392  0.00  0.00    +0.000 C 
ATOM     23  O   UNL     1       0.754  11.385  19.614  0.00  0.00    +0.000 OA
ATOM     24  O   UNL     1       1.130  10.590  21.714  0.00  0.00    +0.000 OA
ATOM     25  C   UNL     1       1.319   9.298  22.300  0.00  0.00    +0.000 C 
ATOM     26  C   UNL     1       0.535   8.363  21.406  0.00  0.00    +0.000 C 
BRANCH  26  27
ATOM     27  O   UNL     1      -0.833   8.299  21.825  0.00  0.00    +0.000 OA
ATOM     28  H   UNL     1      -1.308   9.078  21.483  0.00  0.00    +0.000 HD
ENDBRANCH  26  27
ENDBRANCH  20  21
BRANCH  20  29
ATOM     29  O   UNL     1       1.496   8.457  17.822  0.00  0.00    +0.000 OA
ATOM     30  H   UNL     1       0.830   7.766  17.644  0.00  0.00    +0.000 HD
ENDBRANCH  20  29
ENDBRANCH  19  20
ENDBRANCH  13  19
TORSDOF 8
ENDMDL
MODEL 3
REMARK VINA RESULT:      -7.7      2.329      3.947
REMARK  Name = 
REMARK  10 active torsions:
REMARK  status: ('A' for Active; 'I' for Inactive)
REMARK    1  A    between atoms: C_6  and  C_7
REMARK    2  A    between atoms: C_10  and  O_11
REMARK    3  A    between atoms: C_12  and  C_13
REMARK    4  A    between atoms: C_12  and  C_14
REMARK    5  A    between atoms: C_14  and  O_15
REMARK    6  A    between atoms: C_16  and  C_17
REMARK    7  A    between atoms: C_17  and  C_18
REMARK    8  A    between atoms: C_18  and  O_19
REMARK    9  A    between atoms: C_18  and  C_20
REMARK   10  A    between atoms: C_25  and  O_26
REMARK                            x       y       z     vdW  Elec       q    Type
REMARK                         _______ _______ _______ _____ _____    ______ ____
ROOT
ATOM      1  C   UNL     1       1.113   4.393  19.858  0.00  0.00    +0.000 C 
ATOM      2  C   UNL     1       1.781   4.728  18.741  0.00  0.00    +0.000 C 
ATOM      3  C   UNL     1       1.994   3.686  17.659  0.00  0.00    +0.000 C 
ATOM      4  C   UNL     1       3.478   3.448  17.316  0.00  0.00    +0.000 C 
ATOM      5  C   UNL     1       4.255   4.760  17.080  0.00  0.00    +0.000 C 
ATOM      6  C   UNL     1       4.025   5.796  18.239  0.00  0.00    +0.000 C 
ATOM      7  C   UNL     1       4.577   5.251  19.593  0.00  0.00    +0.000 C 
ATOM      8  C   UNL     1       4.692   7.150  17.827  0.00  0.00    +0.000 C 
ATOM      9  C   UNL     1       6.010   7.131  17.063  0.00  0.00    +0.000 C 
ATOM     10  C   UNL     1       6.144   6.020  16.024  0.00  0.00    +0.000 C 
ATOM     11  C   UNL     1       5.788   4.630  16.626  0.00  0.00    +0.000 C 
ATOM     12  C   UNL     1       5.962   3.537  15.543  0.00  0.00    +0.000 C 
ATOM     13  C   UNL     1       2.458   6.072  18.459  0.00  0.00    +0.000 C 
ENDROOT
BRANCH  10  14
ATOM     14  O   UNL     1       7.463   6.028  15.468  0.00  0.00    +0.000 OA
ATOM     15  H   UNL     1       8.112   5.924  16.184  0.00  0.00    +0.000 HD
ENDBRANCH  10  14
BRANCH  11  16
ATOM     16  C   UNL     1       6.854   4.309  17.713  0.00  0.00    +0.000 C 
BRANCH  16  17
ATOM     17  O   UNL     1       8.128   4.027  17.151  0.00  0.00    +0.000 OA
ATOM     18  H   UNL     1       8.384   3.142  17.463  0.00  0.00    +0.000 HD
ENDBRANCH  16  17
ENDBRANCH  11  16
BRANCH  13  19
ATOM     19  C   UNL     1       2.256   7.247  19.479  0.00  0.00    +0.000 C 
BRANCH  19  20
ATOM     20  C   UNL     1       1.759   8.625  19.021  0.00  0.00    +0.000 C 
BRANCH  20  21
ATOM     21  C   UNL     1       0.506   9.181  19.691  0.00  0.00    +0.000 C 
ATOM     22  C   UNL     1      -0.156  10.227  18.842  0.00  0.00    +0.000 C 
ATOM     23  O   UNL     1      -0.767  10.013  17.810  0.00  0.00    +0.000 OA
ATOM     24  O   UNL     1       0.061  11.481  19.341  0.00  0.00    +0.000 OA
ATOM     25  C   UNL     1       0.976  11.407  20.438  0.00  0.00    +0.000 C 
ATOM     26  C   UNL     1       0.849   9.984  20.937  0.00  0.00    +0.000 C 
BRANCH  26  27
ATOM     27  O   UNL     1      -0.220   9.880  21.886  0.00  0.00    +0.000 OA
ATOM     28  H   UNL     1      -0.578  10.770  22.060  0.00  0.00    +0.000 HD
ENDBRANCH  26  27
ENDBRANCH  20  21
BRANCH  20  29
ATOM     29  O   UNL     1       1.592   8.584  17.592  0.00  0.00    +0.000 OA
ATOM     30  H   UNL     1       0.661   8.781  17.375  0.00  0.00    +0.000 HD
ENDBRANCH  20  29
ENDBRANCH  19  20
ENDBRANCH  13  19
TORSDOF 8
ENDMDL
MODEL 4
REMARK VINA RESULT:      -7.7      2.141      4.302
REMARK  Name = 
REMARK  10 active torsions:
REMARK  status: ('A' for Active; 'I' for Inactive)
REMARK    1  A    between atoms: C_6  and  C_7
REMARK    2  A    between atoms: C_10  and  O_11
REMARK    3  A    between atoms: C_12  and  C_13
REMARK    4  A    between atoms: C_12  and  C_14
REMARK    5  A    between atoms: C_14  and  O_15
REMARK    6  A    between atoms: C_16  and  C_17
REMARK    7  A    between atoms: C_17  and  C_18
REMARK    8  A    between atoms: C_18  and  O_19
REMARK    9  A    between atoms: C_18  and  C_20
REMARK   10  A    between atoms: C_25  and  O_26
REMARK                            x       y       z     vdW  Elec       q    Type
REMARK                         _______ _______ _______ _____ _____    ______ ____
ROOT
ATOM      1  C   UNL     1       1.315   3.922  20.473  0.00  0.00    +0.000 C 
ATOM      2  C   UNL     1       1.765   4.344  19.279  0.00  0.00    +0.000 C 
ATOM      3  C   UNL     1       1.840   3.366  18.122  0.00  0.00    +0.000 C 
ATOM      4  C   UNL     1       3.254   3.229  17.522  0.00  0.00    +0.000 C 
ATOM      5  C   UNL     1       3.913   4.593  17.228  0.00  0.00    +0.000 C 
ATOM      6  C   UNL     1       3.834   5.562  18.463  0.00  0.00    +0.000 C 
ATOM      7  C   UNL     1       4.636   4.990  19.673  0.00  0.00    +0.000 C 
ATOM      8  C   UNL     1       4.352   6.969  18.018  0.00  0.00    +0.000 C 
ATOM      9  C   UNL     1       5.519   7.061  17.043  0.00  0.00    +0.000 C 
ATOM     10  C   UNL     1       5.528   6.006  15.938  0.00  0.00    +0.000 C 
ATOM     11  C   UNL     1       5.349   4.572  16.516  0.00  0.00    +0.000 C 
ATOM     12  C   UNL     1       5.390   3.540  15.362  0.00  0.00    +0.000 C 
ATOM     13  C   UNL     1       2.315   5.736  18.959  0.00  0.00    +0.000 C 
ENDROOT
BRANCH  10  14
ATOM     14  O   UNL     1       6.730   6.115  15.168  0.00  0.00    +0.000 OA
ATOM     15  H   UNL     1       6.597   5.686  14.306  0.00  0.00    +0.000 HD
ENDBRANCH  10  14
BRANCH  11  16
ATOM     16  C   UNL     1       6.600   4.266  17.389  0.00  0.00    +0.000 C 
BRANCH  16  17
ATOM     17  O   UNL     1       7.769   4.070  16.605  0.00  0.00    +0.000 OA
ATOM     18  H   UNL     1       8.080   3.165  16.784  0.00  0.00    +0.000 HD
ENDBRANCH  16  17
ENDBRANCH  11  16
BRANCH  13  19
ATOM     19  C   UNL     1       2.234   6.852  20.060  0.00  0.00    +0.000 C 
BRANCH  19  20
ATOM     20  C   UNL     1       1.152   7.940  20.015  0.00  0.00    +0.000 C 
BRANCH  20  21
ATOM     21  C   UNL     1       1.551   9.309  19.474  0.00  0.00    +0.000 C 
ATOM     22  C   UNL     1       0.855  10.417  20.209  0.00  0.00    +0.000 C 
ATOM     23  O   UNL     1       1.097  10.765  21.352  0.00  0.00    +0.000 OA
ATOM     24  O   UNL     1      -0.143  10.965  19.452  0.00  0.00    +0.000 OA
ATOM     25  C   UNL     1      -0.302  10.206  18.250  0.00  0.00    +0.000 C 
ATOM     26  C   UNL     1       1.035   9.523  18.059  0.00  0.00    +0.000 C 
BRANCH  26  27
ATOM     27  O   UNL     1       1.935  10.376  17.342  0.00  0.00    +0.000 OA
ATOM     28  H   UNL     1       1.807  11.296  17.640  0.00  0.00    +0.000 HD
ENDBRANCH  26  27
ENDBRANCH  20  21
BRANCH  20  29
ATOM     29  O   UNL     1       0.589   8.061  21.334  0.00  0.00    +0.000 OA
ATOM     30  H   UNL     1      -0.374   8.205  21.256  0.00  0.00    +0.000 HD
ENDBRANCH  20  29
ENDBRANCH  19  20
ENDBRANCH  13  19
TORSDOF 8
ENDMDL
MODEL 5
REMARK VINA RESULT:      -7.1      0.928      1.784
REMARK  Name = 
REMARK  10 active torsions:
REMARK  status: ('A' for Active; 'I' for Inactive)
REMARK    1  A    between atoms: C_6  and  C_7
REMARK    2  A    between atoms: C_10  and  O_11
REMARK    3  A    between atoms: C_12  and  C_13
REMARK    4  A    between atoms: C_12  and  C_14
REMARK    5  A    between atoms: C_14  and  O_15
REMARK    6  A    between atoms: C_16  and  C_17
REMARK    7  A    between atoms: C_17  and  C_18
REMARK    8  A    between atoms: C_18  and  O_19
REMARK    9  A    between atoms: C_18  and  C_20
REMARK   10  A    between atoms: C_25  and  O_26
REMARK                            x       y       z     vdW  Elec       q    Type
REMARK                         _______ _______ _______ _____ _____    ______ ____
ROOT
ATOM      1  C   UNL     1       4.437   7.214  16.709  0.00  0.00    +0.000 C 
ATOM      2  C   UNL     1       4.403   6.594  17.901  0.00  0.00    +0.000 C 
ATOM      3  C   UNL     1       5.527   5.651  18.282  0.00  0.00    +0.000 C 
ATOM      4  C   UNL     1       5.049   4.222  18.612  0.00  0.00    +0.000 C 
ATOM      5  C   UNL     1       3.859   4.203  19.594  0.00  0.00    +0.000 C 
ATOM      6  C   UNL     1       2.708   5.174  19.143  0.00  0.00    +0.000 C 
ATOM      7  C   UNL     1       2.100   4.724  17.779  0.00  0.00    +0.000 C 
ATOM      8  C   UNL     1       1.638   5.231  20.282  0.00  0.00    +0.000 C 
ATOM      9  C   UNL     1       1.312   3.964  21.063  0.00  0.00    +0.000 C 
ATOM     10  C   UNL     1       2.505   3.059  21.363  0.00  0.00    +0.000 C 
ATOM     11  C   UNL     1       3.336   2.767  20.080  0.00  0.00    +0.000 C 
ATOM     12  C   UNL     1       4.517   1.828  20.431  0.00  0.00    +0.000 C 
ATOM     13  C   UNL     1       3.269   6.665  18.927  0.00  0.00    +0.000 C 
ENDROOT
BRANCH  10  14
ATOM     14  O   UNL     1       2.057   1.849  21.984  0.00  0.00    +0.000 OA
ATOM     15  H   UNL     1       2.362   1.090  21.459  0.00  0.00    +0.000 HD
ENDBRANCH  10  14
BRANCH  11  16
ATOM     16  C   UNL     1       2.429   1.948  19.117  0.00  0.00    +0.000 C 
BRANCH  16  17
ATOM     17  O   UNL     1       3.182   1.211  18.164  0.00  0.00    +0.000 OA
ATOM     18  H   UNL     1       4.120   1.418  18.325  0.00  0.00    +0.000 HD
ENDBRANCH  16  17
ENDBRANCH  11  16
BRANCH  13  19
ATOM     19  C   UNL     1       2.079   7.655  18.669  0.00  0.00    +0.000 C 
BRANCH  19  20
ATOM     20  C   UNL     1       1.394   8.397  19.825  0.00  0.00    +0.000 C 
BRANCH  20  21
ATOM     21  C   UNL     1       1.229   9.908  19.694  0.00  0.00    +0.000 C 
ATOM     22  C   UNL     1       0.521  10.492  20.881  0.00  0.00    +0.000 C 
ATOM     23  O   UNL     1       0.997  10.612  21.997  0.00  0.00    +0.000 OA
ATOM     24  O   UNL     1      -0.768  10.828  20.574  0.00  0.00    +0.000 OA
ATOM     25  C   UNL     1      -1.076  10.379  19.251  0.00  0.00    +0.000 C 
ATOM     26  C   UNL     1       0.270  10.269  18.570  0.00  0.00    +0.000 C 
BRANCH  26  27
ATOM     27  O   UNL     1       0.647  11.529  18.001  0.00  0.00    +0.000 OA
ATOM     28  H   UNL     1      -0.158  12.040  17.798  0.00  0.00    +0.000 HD
ENDBRANCH  26  27
ENDBRANCH  20  21
BRANCH  20  29
ATOM     29  O   UNL     1       2.094   8.069  21.040  0.00  0.00    +0.000 OA
ATOM     30  H   UNL     1       1.690   8.559  21.781  0.00  0.00    +0.000 HD
ENDBRANCH  20  29
ENDBRANCH  19  20
ENDBRANCH  13  19
TORSDOF 8
ENDMDL
MODEL 6
REMARK VINA RESULT:      -7.0      3.814      6.817
REMARK  Name = 
REMARK  10 active torsions:
REMARK  status: ('A' for Active; 'I' for Inactive)
REMARK    1  A    between atoms: C_6  and  C_7
REMARK    2  A    between atoms: C_10  and  O_11
REMARK    3  A    between atoms: C_12  and  C_13
REMARK    4  A    between atoms: C_12  and  C_14
REMARK    5  A    between atoms: C_14  and  O_15
REMARK    6  A    between atoms: C_16  and  C_17
REMARK    7  A    between atoms: C_17  and  C_18
REMARK    8  A    between atoms: C_18  and  O_19
REMARK    9  A    between atoms: C_18  and  C_20
REMARK   10  A    between atoms: C_25  and  O_26
REMARK                            x       y       z     vdW  Elec       q    Type
REMARK                         _______ _______ _______ _____ _____    ______ ____
ROOT
ATOM      1  C   UNL     1       6.054   6.915  17.414  0.00  0.00    +0.000 C 
ATOM      2  C   UNL     1       4.799   6.436  17.435  0.00  0.00    +0.000 C 
ATOM      3  C   UNL     1       3.734   7.169  18.227  0.00  0.00    +0.000 C 
ATOM      4  C   UNL     1       3.053   6.296  19.300  0.00  0.00    +0.000 C 
ATOM      5  C   UNL     1       2.592   4.929  18.753  0.00  0.00    +0.000 C 
ATOM      6  C   UNL     1       3.737   4.195  17.964  0.00  0.00    +0.000 C 
ATOM      7  C   UNL     1       4.936   3.859  18.903  0.00  0.00    +0.000 C 
ATOM      8  C   UNL     1       3.131   2.919  17.293  0.00  0.00    +0.000 C 
ATOM      9  C   UNL     1       2.074   2.114  18.038  0.00  0.00    +0.000 C 
ATOM     10  C   UNL     1       1.072   2.941  18.840  0.00  0.00    +0.000 C 
ATOM     11  C   UNL     1       1.789   3.973  19.759  0.00  0.00    +0.000 C 
ATOM     12  C   UNL     1       0.733   4.767  20.567  0.00  0.00    +0.000 C 
ATOM     13  C   UNL     1       4.317   5.132  16.794  0.00  0.00    +0.000 C 
ENDROOT
BRANCH  10  14
ATOM     14  O   UNL     1       0.214   2.076  19.593  0.00  0.00    +0.000 OA
ATOM     15  H   UNL     1       0.759   1.482  20.137  0.00  0.00    +0.000 HD
ENDBRANCH  10  14
BRANCH  11  16
ATOM     16  C   UNL     1       2.598   3.167  20.816  0.00  0.00    +0.000 C 
BRANCH  16  17
ATOM     17  O   UNL     1       1.845   2.916  21.994  0.00  0.00    +0.000 OA
ATOM     18  H   UNL     1       1.442   3.762  22.257  0.00  0.00    +0.000 HD
ENDBRANCH  16  17
ENDBRANCH  11  16
BRANCH  13  19
ATOM     19  C   UNL     1       5.315   4.317  15.898  0.00  0.00    +0.000 C 
BRANCH  19  20
ATOM     20  C   UNL     1       5.444   4.594  14.394  0.00  0.00    +0.000 C 
BRANCH  20  21
ATOM     21  C   UNL     1       6.597   3.927  13.650  0.00  0.00    +0.000 C 
ATOM     22  C   UNL     1       7.611   4.933  13.187  0.00  0.00    +0.000 C 
ATOM     23  O   UNL     1       8.386   5.535  13.909  0.00  0.00    +0.000 OA
ATOM     24  O   UNL     1       7.522   5.141  11.839  0.00  0.00    +0.000 OA
ATOM     25  C   UNL     1       6.389   4.438  11.321  0.00  0.00    +0.000 C 
ATOM     26  C   UNL     1       6.140   3.335  12.326  0.00  0.00    +0.000 C 
BRANCH  26  27
ATOM     27  O   UNL     1       6.934   2.185  12.012  0.00  0.00    +0.000 OA
ATOM     28  H   UNL     1       6.370   1.390  12.044  0.00  0.00    +0.000 HD
ENDBRANCH  26  27
ENDBRANCH  20  21
BRANCH  20  29
ATOM     29  O   UNL     1       5.479   6.020  14.206  0.00  0.00    +0.000 OA
ATOM     30  H   UNL     1       4.718   6.287  13.655  0.00  0.00    +0.000 HD
ENDBRANCH  20  29
ENDBRANCH  19  20
ENDBRANCH  13  19
TORSDOF 8
ENDMDL
MODEL 7
REMARK VINA RESULT:      -6.9      0.936      1.529
REMARK  Name = 
REMARK  10 active torsions:
REMARK  status: ('A' for Active; 'I' for Inactive)
REMARK    1  A    between atoms: C_6  and  C_7
REMARK    2  A    between atoms: C_10  and  O_11
REMARK    3  A    between atoms: C_12  and  C_13
REMARK    4  A    between atoms: C_12  and  C_14
REMARK    5  A    between atoms: C_14  and  O_15
REMARK    6  A    between atoms: C_16  and  C_17
REMARK    7  A    between atoms: C_17  and  C_18
REMARK    8  A    between atoms: C_18  and  O_19
REMARK    9  A    between atoms: C_18  and  C_20
REMARK   10  A    between atoms: C_25  and  O_26
REMARK                            x       y       z     vdW  Elec       q    Type
REMARK                         _______ _______ _______ _____ _____    ______ ____
ROOT
ATOM      1  C   UNL     1       4.832   6.818  16.325  0.00  0.00    +0.000 C 
ATOM      2  C   UNL     1       4.610   6.398  17.582  0.00  0.00    +0.000 C 
ATOM      3  C   UNL     1       5.671   5.578  18.292  0.00  0.00    +0.000 C 
ATOM      4  C   UNL     1       5.167   4.202  18.773  0.00  0.00    +0.000 C 
ATOM      5  C   UNL     1       3.831   4.290  19.539  0.00  0.00    +0.000 C 
ATOM      6  C   UNL     1       2.756   5.125  18.753  0.00  0.00    +0.000 C 
ATOM      7  C   UNL     1       2.391   4.434  17.402  0.00  0.00    +0.000 C 
ATOM      8  C   UNL     1       1.510   5.318  19.678  0.00  0.00    +0.000 C 
ATOM      9  C   UNL     1       1.079   4.181  20.597  0.00  0.00    +0.000 C 
ATOM     10  C   UNL     1       2.220   3.389  21.231  0.00  0.00    +0.000 C 
ATOM     11  C   UNL     1       3.257   2.930  20.166  0.00  0.00    +0.000 C 
ATOM     12  C   UNL     1       4.378   2.112  20.855  0.00  0.00    +0.000 C 
ATOM     13  C   UNL     1       3.320   6.584  18.385  0.00  0.00    +0.000 C 
ENDROOT
BRANCH  10  14
ATOM     14  O   UNL     1       1.694   2.277  21.965  0.00  0.00    +0.000 OA
ATOM     15  H   UNL     1       1.912   2.385  22.906  0.00  0.00    +0.000 HD
ENDBRANCH  10  14
BRANCH  11  16
ATOM     16  C   UNL     1       2.536   1.928  19.219  0.00  0.00    +0.000 C 
BRANCH  16  17
ATOM     17  O   UNL     1       3.452   1.139  18.473  0.00  0.00    +0.000 OA
ATOM     18  H   UNL     1       3.234   1.267  17.533  0.00  0.00    +0.000 HD
ENDBRANCH  16  17
ENDBRANCH  11  16
BRANCH  13  19
ATOM     19  C   UNL     1       2.174   7.466  17.777  0.00  0.00    +0.000 C 
BRANCH  19  20
ATOM     20  C   UNL     1       1.384   8.456  18.645  0.00  0.00    +0.000 C 
BRANCH  20  21
ATOM     21  C   UNL     1       0.814   9.695  17.962  0.00  0.00    +0.000 C 
ATOM     22  C   UNL     1       1.495  10.947  18.433  0.00  0.00    +0.000 C 
ATOM     23  O   UNL     1       2.633  11.279  18.150  0.00  0.00    +0.000 OA
ATOM     24  O   UNL     1       0.692  11.660  19.279  0.00  0.00    +0.000 OA
ATOM     25  C   UNL     1      -0.491  10.906  19.562  0.00  0.00    +0.000 C 
ATOM     26  C   UNL     1      -0.621   9.959  18.390  0.00  0.00    +0.000 C 
BRANCH  26  27
ATOM     27  O   UNL     1      -1.336  10.585  17.318  0.00  0.00    +0.000 OA
ATOM     28  H   UNL     1      -1.868  11.320  17.676  0.00  0.00    +0.000 HD
ENDBRANCH  26  27
ENDBRANCH  20  21
BRANCH  20  29
ATOM     29  O   UNL     1       2.214   8.829  19.760  0.00  0.00    +0.000 OA
ATOM     30  H   UNL     1       3.102   8.442  19.639  0.00  0.00    +0.000 HD
ENDBRANCH  20  29
ENDBRANCH  19  20
ENDBRANCH  13  19
TORSDOF 8
ENDMDL
MODEL 8
REMARK VINA RESULT:      -6.9      0.834      1.498
REMARK  Name = 
REMARK  10 active torsions:
REMARK  status: ('A' for Active; 'I' for Inactive)
REMARK    1  A    between atoms: C_6  and  C_7
REMARK    2  A    between atoms: C_10  and  O_11
REMARK    3  A    between atoms: C_12  and  C_13
REMARK    4  A    between atoms: C_12  and  C_14
REMARK    5  A    between atoms: C_14  and  O_15
REMARK    6  A    between atoms: C_16  and  C_17
REMARK    7  A    between atoms: C_17  and  C_18
REMARK    8  A    between atoms: C_18  and  O_19
REMARK    9  A    between atoms: C_18  and  C_20
REMARK   10  A    between atoms: C_25  and  O_26
REMARK                            x       y       z     vdW  Elec       q    Type
REMARK                         _______ _______ _______ _____ _____    ______ ____
ROOT
ATOM      1  C   UNL     1       4.330   7.194  16.492  0.00  0.00    +0.000 C 
ATOM      2  C   UNL     1       4.311   6.628  17.710  0.00  0.00    +0.000 C 
ATOM      3  C   UNL     1       5.433   5.691  18.114  0.00  0.00    +0.000 C 
ATOM      4  C   UNL     1       4.948   4.284  18.516  0.00  0.00    +0.000 C 
ATOM      5  C   UNL     1       3.775   4.320  19.518  0.00  0.00    +0.000 C 
ATOM      6  C   UNL     1       2.625   5.282  19.043  0.00  0.00    +0.000 C 
ATOM      7  C   UNL     1       1.990   4.776  17.711  0.00  0.00    +0.000 C 
ATOM      8  C   UNL     1       1.576   5.399  20.197  0.00  0.00    +0.000 C 
ATOM      9  C   UNL     1       1.252   4.172  21.040  0.00  0.00    +0.000 C 
ATOM     10  C   UNL     1       2.442   3.270  21.359  0.00  0.00    +0.000 C 
ATOM     11  C   UNL     1       3.248   2.912  20.077  0.00  0.00    +0.000 C 
ATOM     12  C   UNL     1       4.426   1.978  20.449  0.00  0.00    +0.000 C 
ATOM     13  C   UNL     1       3.196   6.755  18.751  0.00  0.00    +0.000 C 
ENDROOT
BRANCH  10  14
ATOM     14  O   UNL     1       1.994   2.093  22.042  0.00  0.00    +0.000 OA
ATOM     15  H   UNL     1       1.792   2.318  22.966  0.00  0.00    +0.000 HD
ENDBRANCH  10  14
BRANCH  11  16
ATOM     16  C   UNL     1       2.316   2.060  19.167  0.00  0.00    +0.000 C 
BRANCH  16  17
ATOM     17  O   UNL     1       3.040   1.344  18.176  0.00  0.00    +0.000 OA
ATOM     18  H   UNL     1       3.862   1.839  18.014  0.00  0.00    +0.000 HD
ENDBRANCH  16  17
ENDBRANCH  11  16
BRANCH  13  19
ATOM     19  C   UNL     1       2.010   7.744  18.470  0.00  0.00    +0.000 C 
BRANCH  19  20
ATOM     20  C   UNL     1       2.231   9.263  18.432  0.00  0.00    +0.000 C 
BRANCH  20  21
ATOM     21  C   UNL     1       1.577  10.099  19.528  0.00  0.00    +0.000 C 
ATOM     22  C   UNL     1       0.882   9.235  20.540  0.00  0.00    +0.000 C 
ATOM     23  O   UNL     1       1.437   8.531  21.366  0.00  0.00    +0.000 OA
ATOM     24  O   UNL     1      -0.476   9.286  20.386  0.00  0.00    +0.000 OA
ATOM     25  C   UNL     1      -0.795  10.036  19.211  0.00  0.00    +0.000 C 
ATOM     26  C   UNL     1       0.414  10.917  18.988  0.00  0.00    +0.000 C 
BRANCH  26  27
ATOM     27  O   UNL     1       0.292  12.132  19.737  0.00  0.00    +0.000 OA
ATOM     28  H   UNL     1      -0.622  12.463  19.660  0.00  0.00    +0.000 HD
ENDBRANCH  26  27
ENDBRANCH  20  21
BRANCH  20  29
ATOM     29  O   UNL     1       1.835   9.736  17.131  0.00  0.00    +0.000 OA
ATOM     30  H   UNL     1       1.655  10.695  17.183  0.00  0.00    +0.000 HD
ENDBRANCH  20  29
ENDBRANCH  19  20
ENDBRANCH  13  19
TORSDOF 8
ENDMDL
MODEL 9
REMARK VINA RESULT:      -6.8      2.262      4.133
REMARK  Name = 
REMARK  10 active torsions:
REMARK  status: ('A' for Active; 'I' for Inactive)
REMARK    1  A    between atoms: C_6  and  C_7
REMARK    2  A    between atoms: C_10  and  O_11
REMARK    3  A    between atoms: C_12  and  C_13
REMARK    4  A    between atoms: C_12  and  C_14
REMARK    5  A    between atoms: C_14  and  O_15
REMARK    6  A    between atoms: C_16  and  C_17
REMARK    7  A    between atoms: C_17  and  C_18
REMARK    8  A    between atoms: C_18  and  O_19
REMARK    9  A    between atoms: C_18  and  C_20
REMARK   10  A    between atoms: C_25  and  O_26
REMARK                            x       y       z     vdW  Elec       q    Type
REMARK                         _______ _______ _______ _____ _____    ______ ____
ROOT
ATOM      1  C   UNL     1       1.296   4.459  20.379  0.00  0.00    +0.000 C 
ATOM      2  C   UNL     1       1.789   4.669  19.147  0.00  0.00    +0.000 C 
ATOM      3  C   UNL     1       1.931   3.499  18.192  0.00  0.00    +0.000 C 
ATOM      4  C   UNL     1       3.372   3.291  17.682  0.00  0.00    +0.000 C 
ATOM      5  C   UNL     1       4.018   4.596  17.171  0.00  0.00    +0.000 C 
ATOM      6  C   UNL     1       3.869   5.771  18.204  0.00  0.00    +0.000 C 
ATOM      7  C   UNL     1       4.628   5.449  19.529  0.00  0.00    +0.000 C 
ATOM      8  C   UNL     1       4.380   7.086  17.530  0.00  0.00    +0.000 C 
ATOM      9  C   UNL     1       5.586   7.029  16.601  0.00  0.00    +0.000 C 
ATOM     10  C   UNL     1       5.662   5.792  15.709  0.00  0.00    +0.000 C 
ATOM     11  C   UNL     1       5.485   4.483  16.531  0.00  0.00    +0.000 C 
ATOM     12  C   UNL     1       5.593   3.260  15.587  0.00  0.00    +0.000 C 
ATOM     13  C   UNL     1       2.327   5.993  18.600  0.00  0.00    +0.000 C 
ENDROOT
BRANCH  10  14
ATOM     14  O   UNL     1       6.894   5.790  14.979  0.00  0.00    +0.000 OA
ATOM     15  H   UNL     1       7.423   6.562  15.243  0.00  0.00    +0.000 HD
ENDBRANCH  10  14
BRANCH  11  16
ATOM     16  C   UNL     1       6.702   4.372  17.494  0.00  0.00    +0.000 C 
BRANCH  16  17
ATOM     17  O   UNL     1       7.909   4.078  16.804  0.00  0.00    +0.000 OA
ATOM     18  H   UNL     1       7.716   3.338  16.201  0.00  0.00    +0.000 HD
ENDBRANCH  16  17
ENDBRANCH  11  16
BRANCH  13  19
ATOM     19  C   UNL     1       2.178   7.287  19.475  0.00  0.00    +0.000 C 
BRANCH  19  20
ATOM     20  C   UNL     1       1.866   8.649  18.838  0.00  0.00    +0.000 C 
BRANCH  20  21
ATOM     21  C   UNL     1       1.401   9.770  19.763  0.00  0.00    +0.000 C 
ATOM     22  C   UNL     1       0.028   9.502  20.307  0.00  0.00    +0.000 C 
ATOM     23  O   UNL     1      -0.246   8.659  21.143  0.00  0.00    +0.000 OA
ATOM     24  O   UNL     1      -0.908  10.293  19.702  0.00  0.00    +0.000 OA
ATOM     25  C   UNL     1      -0.297  11.023  18.634  0.00  0.00    +0.000 C 
ATOM     26  C   UNL     1       1.170  11.064  18.999  0.00  0.00    +0.000 C 
BRANCH  26  27
ATOM     27  O   UNL     1       1.442  12.182  19.852  0.00  0.00    +0.000 OA
ATOM     28  H   UNL     1       0.653  12.755  19.889  0.00  0.00    +0.000 HD
ENDBRANCH  26  27
ENDBRANCH  20  21
BRANCH  20  29
ATOM     29  O   UNL     1       0.913   8.437  17.782  0.00  0.00    +0.000 OA
ATOM     30  H   UNL     1       1.103   7.582  17.349  0.00  0.00    +0.000 HD
ENDBRANCH  20  29
ENDBRANCH  19  20
ENDBRANCH  13  19
TORSDOF 8
ENDMDL
