MODEL 1
REMARK VINA RESULT:      -2.9      0.000      0.000
REMARK  Name = 
REMARK  0 active torsions:
REMARK  status: ('A' for Active; 'I' for Inactive)
REMARK                            x       y       z     vdW  Elec       q    Type
REMARK                         _______ _______ _______ _____ _____    ______ ____
ROOT
ATOM      1 CL   UNL     1       1.136   4.528  20.589  0.00  0.00    +0.000 Cl
ATOM      2  C   UNL     1       1.738   3.662  19.162  0.00  0.00    +0.000 C 
ATOM      3 CL   UNL     1       0.662   2.306  18.768  0.00  0.00    +0.000 Cl
ATOM      4 CL   UNL     1       1.862   4.769  17.780  0.00  0.00    +0.000 Cl
ATOM      5 BR   UNL     1       3.514   2.958  19.559  0.00  0.00    +0.000 Br
ENDROOT
TORSDOF 0
ENDMDL
MODEL 2
REMARK VINA RESULT:      -2.9      0.018      2.251
REMARK  Name = 
REMARK  0 active torsions:
REMARK  status: ('A' for Active; 'I' for Inactive)
REMARK                            x       y       z     vdW  Elec       q    Type
REMARK                         _______ _______ _______ _____ _____    ______ ____
ROOT
ATOM      1 CL   UNL     1       1.856   4.777  17.781  0.00  0.00    +0.000 Cl
ATOM      2  C   UNL     1       1.746   3.662  19.157  0.00  0.00    +0.000 C 
ATOM      3 CL   UNL     1       1.137   4.514  20.590  0.00  0.00    +0.000 Cl
ATOM      4 CL   UNL     1       0.685   2.297  18.757  0.00  0.00    +0.000 Cl
ATOM      5 BR   UNL     1       3.529   2.973  19.548  0.00  0.00    +0.000 Br
ENDROOT
TORSDOF 0
ENDMDL
MODEL 3
REMARK VINA RESULT:      -2.9      1.309      1.650
REMARK  Name = 
REMARK  0 active torsions:
REMARK  status: ('A' for Active; 'I' for Inactive)
REMARK                            x       y       z     vdW  Elec       q    Type
REMARK                         _______ _______ _______ _____ _____    ______ ____
ROOT
ATOM      1 CL   UNL     1       1.465   2.521  21.797  0.00  0.00    +0.000 Cl
ATOM      2  C   UNL     1       1.822   3.258  20.223  0.00  0.00    +0.000 C 
ATOM      3 CL   UNL     1       0.761   2.580  18.973  0.00  0.00    +0.000 Cl
ATOM      4 CL   UNL     1       1.620   5.019  20.311  0.00  0.00    +0.000 Cl
ATOM      5 BR   UNL     1       3.675   2.865  19.754  0.00  0.00    +0.000 Br
ENDROOT
TORSDOF 0
ENDMDL
MODEL 4
REMARK VINA RESULT:      -2.9      1.340      2.836
REMARK  Name = 
REMARK  0 active torsions:
REMARK  status: ('A' for Active; 'I' for Inactive)
REMARK                            x       y       z     vdW  Elec       q    Type
REMARK                         _______ _______ _______ _____ _____    ______ ____
ROOT
ATOM      1 CL   UNL     1       0.733   2.616  19.002  0.00  0.00    +0.000 Cl
ATOM      2  C   UNL     1       1.806   3.273  20.253  0.00  0.00    +0.000 C 
ATOM      3 CL   UNL     1       1.597   5.031  20.382  0.00  0.00    +0.000 Cl
ATOM      4 CL   UNL     1       1.474   2.499  21.815  0.00  0.00    +0.000 Cl
ATOM      5 BR   UNL     1       3.655   2.897  19.752  0.00  0.00    +0.000 Br
ENDROOT
TORSDOF 0
ENDMDL
MODEL 5
REMARK VINA RESULT:      -2.9      2.226      2.522
REMARK  Name = 
REMARK  0 active torsions:
REMARK  status: ('A' for Active; 'I' for Inactive)
REMARK                            x       y       z     vdW  Elec       q    Type
REMARK                         _______ _______ _______ _____ _____    ______ ____
ROOT
ATOM      1 CL   UNL     1       1.455   2.479  21.814  0.00  0.00    +0.000 Cl
ATOM      2  C   UNL     1       1.935   3.138  20.238  0.00  0.00    +0.000 C 
ATOM      3 CL   UNL     1       3.574   2.600  19.821  0.00  0.00    +0.000 Cl
ATOM      4 CL   UNL     1       0.785   2.630  18.984  0.00  0.00    +0.000 Cl
ATOM      5 BR   UNL     1       1.922   5.086  20.343  0.00  0.00    +0.000 Br
ENDROOT
TORSDOF 0
ENDMDL
MODEL 6
REMARK VINA RESULT:      -2.9      0.196      2.270
REMARK  Name = 
REMARK  0 active torsions:
REMARK  status: ('A' for Active; 'I' for Inactive)
REMARK                            x       y       z     vdW  Elec       q    Type
REMARK                         _______ _______ _______ _____ _____    ______ ____
ROOT
ATOM      1 CL   UNL     1       0.592   2.203  18.646  0.00  0.00    +0.000 Cl
ATOM      2  C   UNL     1       1.710   3.505  19.097  0.00  0.00    +0.000 C 
ATOM      3 CL   UNL     1       1.952   4.608  17.728  0.00  0.00    +0.000 Cl
ATOM      4 CL   UNL     1       1.082   4.394  20.499  0.00  0.00    +0.000 Cl
ATOM      5 BR   UNL     1       3.429   2.715  19.577  0.00  0.00    +0.000 Br
ENDROOT
TORSDOF 0
ENDMDL
MODEL 7
REMARK VINA RESULT:      -2.9      2.223      2.867
REMARK  Name = 
REMARK  0 active torsions:
REMARK  status: ('A' for Active; 'I' for Inactive)
REMARK                            x       y       z     vdW  Elec       q    Type
REMARK                         _______ _______ _______ _____ _____    ______ ____
ROOT
ATOM      1 CL   UNL     1       3.580   2.585  19.887  0.00  0.00    +0.000 Cl
ATOM      2  C   UNL     1       1.935   3.146  20.247  0.00  0.00    +0.000 C 
ATOM      3 CL   UNL     1       0.814   2.617  18.977  0.00  0.00    +0.000 Cl
ATOM      4 CL   UNL     1       1.409   2.530  21.826  0.00  0.00    +0.000 Cl
ATOM      5 BR   UNL     1       1.938   5.096  20.307  0.00  0.00    +0.000 Br
ENDROOT
TORSDOF 0
ENDMDL
MODEL 8
REMARK VINA RESULT:      -2.9      1.741      2.166
REMARK  Name = 
REMARK  0 active torsions:
REMARK  status: ('A' for Active; 'I' for Inactive)
REMARK                            x       y       z     vdW  Elec       q    Type
REMARK                         _______ _______ _______ _____ _____    ______ ____
ROOT
ATOM      1 CL   UNL     1       1.789   4.728  17.745  0.00  0.00    +0.000 Cl
ATOM      2  C   UNL     1       1.895   3.458  18.979  0.00  0.00    +0.000 C 
ATOM      3 CL   UNL     1       0.601   2.265  18.745  0.00  0.00    +0.000 Cl
ATOM      4 CL   UNL     1       3.480   2.664  18.909  0.00  0.00    +0.000 Cl
ATOM      5 BR   UNL     1       1.683   4.275  20.738  0.00  0.00    +0.000 Br
ENDROOT
TORSDOF 0
ENDMDL
MODEL 9
REMARK VINA RESULT:      -2.9      1.236      1.950
REMARK  Name = 
REMARK  0 active torsions:
REMARK  status: ('A' for Active; 'I' for Inactive)
REMARK                            x       y       z     vdW  Elec       q    Type
REMARK                         _______ _______ _______ _____ _____    ______ ____
ROOT
ATOM      1 CL   UNL     1       1.755   4.983  20.105  0.00  0.00    +0.000 Cl
ATOM      2  C   UNL     1       1.870   3.213  20.124  0.00  0.00    +0.000 C 
ATOM      3 CL   UNL     1       1.448   2.587  21.730  0.00  0.00    +0.000 Cl
ATOM      4 CL   UNL     1       0.798   2.515  18.892  0.00  0.00    +0.000 Cl
ATOM      5 BR   UNL     1       3.707   2.700  19.714  0.00  0.00    +0.000 Br
ENDROOT
TORSDOF 0
ENDMDL
