MODEL 1
REMARK VINA RESULT:      -7.1      0.000      0.000
REMARK  Name = 
REMARK  6 active torsions:
REMARK  status: ('A' for Active; 'I' for Inactive)
REMARK    1  A    between atoms: C_2  and  C_3
REMARK    2  A    between atoms: C_8  and  N_9
REMARK    3  A    between atoms: C_12  and  C_13
REMARK    4  A    between atoms: C_13  and  O_14
REMARK    5  A    between atoms: O_14  and  C_15
REMARK    6  A    between atoms: C_15  and  C_16
REMARK                            x       y       z     vdW  Elec       q    Type
REMARK                         _______ _______ _______ _____ _____    ______ ____
ROOT
ATOM      1  N   UNL     1       4.210   4.347  18.174  0.00  0.00    +0.000 N 
ATOM      2  C   UNL     1       4.203   3.150  19.009  0.00  0.00    +0.000 C 
ATOM      3  C   UNL     1       2.740   2.733  19.090  0.00  0.00    +0.000 C 
ATOM      4  C   UNL     1       1.964   4.034  18.906  0.00  0.00    +0.000 C 
ATOM      5  C   UNL     1       2.843   4.832  17.929  0.00  0.00    +0.000 C 
ENDROOT
BRANCH   1  11
ATOM      6  C   UNL     1       6.492   4.925  17.461  0.00  0.00    +0.000 A 
ATOM      7  N   UNL     1       7.479   5.000  16.521  0.00  0.00    +0.000 NA
ATOM      8  C   UNL     1       7.130   4.623  15.276  0.00  0.00    +0.000 A 
ATOM      9  C   UNL     1       5.848   4.205  14.978  0.00  0.00    +0.000 A 
ATOM     10  N   UNL     1       4.866   4.126  15.912  0.00  0.00    +0.000 NA
ATOM     11  C   UNL     1       5.175   4.491  17.188  0.00  0.00    +0.000 A 
BRANCH   6  13
ATOM     12  N   UNL     1       7.279   5.487  19.874  0.00  0.00    +0.000 NA
ATOM     13  C   UNL     1       6.923   5.232  18.793  0.00  0.00    +0.000 C 
ENDBRANCH   6  13
ENDBRANCH   1  11
BRANCH   4  14
ATOM     14  C   UNL     1       1.747   4.787  20.221  0.00  0.00    +0.000 C 
BRANCH  14  15
ATOM     15  O   UNL     1       2.354   6.073  20.106  0.00  0.00    +0.000 OA
BRANCH  15  16
ATOM     16  C   UNL     1       1.647   7.069  20.845  0.00  0.00    +0.000 C 
BRANCH  16  17
ATOM     17  C   UNL     1       1.504   8.301  19.988  0.00  0.00    +0.000 A 
ATOM     18  C   UNL     1       2.019   8.330  18.685  0.00  0.00    +0.000 A 
ATOM     19  C   UNL     1       1.906   9.481  17.902  0.00  0.00    +0.000 A 
ATOM     20  C   UNL     1       1.271  10.612  18.412  0.00  0.00    +0.000 A 
ATOM     21  C   UNL     1       0.739  10.589  19.700  0.00  0.00    +0.000 A 
ATOM     22  C   UNL     1       0.852   9.439  20.485  0.00  0.00    +0.000 A 
ENDBRANCH  16  17
ENDBRANCH  15  16
ENDBRANCH  14  15
ENDBRANCH   4  14
TORSDOF 6
ENDMDL
MODEL 2
REMARK VINA RESULT:      -6.9      0.771      1.310
REMARK  Name = 
REMARK  6 active torsions:
REMARK  status: ('A' for Active; 'I' for Inactive)
REMARK    1  A    between atoms: C_2  and  C_3
REMARK    2  A    between atoms: C_8  and  N_9
REMARK    3  A    between atoms: C_12  and  C_13
REMARK    4  A    between atoms: C_13  and  O_14
REMARK    5  A    between atoms: O_14  and  C_15
REMARK    6  A    between atoms: C_15  and  C_16
REMARK                            x       y       z     vdW  Elec       q    Type
REMARK                         _______ _______ _______ _____ _____    ______ ____
ROOT
ATOM      1  N   UNL     1       4.210   3.987  17.640  0.00  0.00    +0.000 N 
ATOM      2  C   UNL     1       3.818   2.588  17.780  0.00  0.00    +0.000 C 
ATOM      3  C   UNL     1       2.295   2.604  17.793  0.00  0.00    +0.000 C 
ATOM      4  C   UNL     1       1.934   3.980  18.346  0.00  0.00    +0.000 C 
ATOM      5  C   UNL     1       3.053   4.883  17.801  0.00  0.00    +0.000 C 
ENDROOT
BRANCH   1  11
ATOM      6  C   UNL     1       6.446   4.902  17.180  0.00  0.00    +0.000 A 
ATOM      7  N   UNL     1       7.488   5.177  16.342  0.00  0.00    +0.000 NA
ATOM      8  C   UNL     1       7.293   4.863  15.047  0.00  0.00    +0.000 A 
ATOM      9  C   UNL     1       6.107   4.315  14.603  0.00  0.00    +0.000 A 
ATOM     10  N   UNL     1       5.071   4.038  15.437  0.00  0.00    +0.000 NA
ATOM     11  C   UNL     1       5.225   4.332  16.758  0.00  0.00    +0.000 A 
BRANCH   6  13
ATOM     12  N   UNL     1       6.947   5.342  19.693  0.00  0.00    +0.000 NA
ATOM     13  C   UNL     1       6.723   5.150  18.565  0.00  0.00    +0.000 C 
ENDBRANCH   6  13
ENDBRANCH   1  11
BRANCH   4  14
ATOM     14  C   UNL     1       1.876   4.008  19.876  0.00  0.00    +0.000 C 
BRANCH  14  15
ATOM     15  O   UNL     1       1.203   5.202  20.277  0.00  0.00    +0.000 OA
BRANCH  15  16
ATOM     16  C   UNL     1       2.106   6.180  20.791  0.00  0.00    +0.000 C 
BRANCH  16  17
ATOM     17  C   UNL     1       1.707   7.535  20.265  0.00  0.00    +0.000 A 
ATOM     18  C   UNL     1       0.988   8.431  21.068  0.00  0.00    +0.000 A 
ATOM     19  C   UNL     1       0.598   9.676  20.569  0.00  0.00    +0.000 A 
ATOM     20  C   UNL     1       0.930  10.041  19.265  0.00  0.00    +0.000 A 
ATOM     21  C   UNL     1       1.660   9.165  18.463  0.00  0.00    +0.000 A 
ATOM     22  C   UNL     1       2.049   7.919  18.960  0.00  0.00    +0.000 A 
ENDBRANCH  16  17
ENDBRANCH  15  16
ENDBRANCH  14  15
ENDBRANCH   4  14
TORSDOF 6
ENDMDL
MODEL 3
REMARK VINA RESULT:      -6.9      1.319      2.074
REMARK  Name = 
REMARK  6 active torsions:
REMARK  status: ('A' for Active; 'I' for Inactive)
REMARK    1  A    between atoms: C_2  and  C_3
REMARK    2  A    between atoms: C_8  and  N_9
REMARK    3  A    between atoms: C_12  and  C_13
REMARK    4  A    between atoms: C_13  and  O_14
REMARK    5  A    between atoms: O_14  and  C_15
REMARK    6  A    between atoms: C_15  and  C_16
REMARK                            x       y       z     vdW  Elec       q    Type
REMARK                         _______ _______ _______ _____ _____    ______ ____
ROOT
ATOM      1  N   UNL     1       4.337   4.876  17.589  0.00  0.00    +0.000 N 
ATOM      2  C   UNL     1       3.393   3.783  17.798  0.00  0.00    +0.000 C 
ATOM      3  C   UNL     1       2.042   4.460  17.995  0.00  0.00    +0.000 C 
ATOM      4  C   UNL     1       2.386   5.833  18.566  0.00  0.00    +0.000 C 
ATOM      5  C   UNL     1       3.715   6.179  17.875  0.00  0.00    +0.000 C 
ENDROOT
BRANCH   1  11
ATOM      6  C   UNL     1       6.679   4.864  16.836  0.00  0.00    +0.000 A 
ATOM      7  N   UNL     1       7.637   4.693  15.880  0.00  0.00    +0.000 NA
ATOM      8  C   UNL     1       7.183   4.426  14.640  0.00  0.00    +0.000 A 
ATOM      9  C   UNL     1       5.833   4.347  14.363  0.00  0.00    +0.000 A 
ATOM     10  N   UNL     1       4.879   4.513  15.315  0.00  0.00    +0.000 NA
ATOM     11  C   UNL     1       5.291   4.779  16.586  0.00  0.00    +0.000 A 
BRANCH   6  13
ATOM     12  N   UNL     1       7.610   5.195  19.241  0.00  0.00    +0.000 NA
ATOM     13  C   UNL     1       7.195   5.043  18.162  0.00  0.00    +0.000 C 
ENDBRANCH   6  13
ENDBRANCH   1  11
BRANCH   4  14
ATOM     14  C   UNL     1       2.523   5.823  20.091  0.00  0.00    +0.000 C 
BRANCH  14  15
ATOM     15  O   UNL     1       1.571   6.739  20.632  0.00  0.00    +0.000 OA
BRANCH  15  16
ATOM     16  C   UNL     1       1.771   8.068  20.152  0.00  0.00    +0.000 C 
BRANCH  16  17
ATOM     17  C   UNL     1       0.919   9.011  20.962  0.00  0.00    +0.000 A 
ATOM     18  C   UNL     1       0.580   8.710  22.288  0.00  0.00    +0.000 A 
ATOM     19  C   UNL     1      -0.229   9.574  23.028  0.00  0.00    +0.000 A 
ATOM     20  C   UNL     1      -0.702  10.753  22.452  0.00  0.00    +0.000 A 
ATOM     21  C   UNL     1      -0.357  11.072  21.140  0.00  0.00    +0.000 A 
ATOM     22  C   UNL     1       0.452  10.208  20.398  0.00  0.00    +0.000 A 
ENDBRANCH  16  17
ENDBRANCH  15  16
ENDBRANCH  14  15
ENDBRANCH   4  14
TORSDOF 6
ENDMDL
MODEL 4
REMARK VINA RESULT:      -6.9      0.694      1.257
REMARK  Name = 
REMARK  6 active torsions:
REMARK  status: ('A' for Active; 'I' for Inactive)
REMARK    1  A    between atoms: C_2  and  C_3
REMARK    2  A    between atoms: C_8  and  N_9
REMARK    3  A    between atoms: C_12  and  C_13
REMARK    4  A    between atoms: C_13  and  O_14
REMARK    5  A    between atoms: O_14  and  C_15
REMARK    6  A    between atoms: C_15  and  C_16
REMARK                            x       y       z     vdW  Elec       q    Type
REMARK                         _______ _______ _______ _____ _____    ______ ____
ROOT
ATOM      1  N   UNL     1       4.210   4.707  18.320  0.00  0.00    +0.000 N 
ATOM      2  C   UNL     1       4.087   3.530  19.175  0.00  0.00    +0.000 C 
ATOM      3  C   UNL     1       2.587   3.298  19.313  0.00  0.00    +0.000 C 
ATOM      4  C   UNL     1       1.970   4.683  19.135  0.00  0.00    +0.000 C 
ATOM      5  C   UNL     1       2.905   5.355  18.114  0.00  0.00    +0.000 C 
ENDROOT
BRANCH   1  11
ATOM      6  C   UNL     1       6.519   4.984  17.519  0.00  0.00    +0.000 A 
ATOM      7  N   UNL     1       7.472   4.925  16.544  0.00  0.00    +0.000 NA
ATOM      8  C   UNL     1       7.032   4.585  15.317  0.00  0.00    +0.000 A 
ATOM      9  C   UNL     1       5.699   4.331  15.069  0.00  0.00    +0.000 A 
ATOM     10  N   UNL     1       4.749   4.385  16.039  0.00  0.00    +0.000 NA
ATOM     11  C   UNL     1       5.149   4.719  17.298  0.00  0.00    +0.000 A 
BRANCH   6  13
ATOM     12  N   UNL     1       7.445   5.454  19.902  0.00  0.00    +0.000 NA
ATOM     13  C   UNL     1       7.034   5.246  18.831  0.00  0.00    +0.000 C 
ENDBRANCH   6  13
ENDBRANCH   1  11
BRANCH   4  14
ATOM     14  C   UNL     1       1.897   5.473  20.444  0.00  0.00    +0.000 C 
BRANCH  14  15
ATOM     15  O   UNL     1       2.195   6.840  20.160  0.00  0.00    +0.000 OA
BRANCH  15  16
ATOM     16  C   UNL     1       1.508   7.732  21.036  0.00  0.00    +0.000 C 
BRANCH  16  17
ATOM     17  C   UNL     1       0.917   8.855  20.222  0.00  0.00    +0.000 A 
ATOM     18  C   UNL     1      -0.126   9.639  20.735  0.00  0.00    +0.000 A 
ATOM     19  C   UNL     1      -0.687  10.662  19.968  0.00  0.00    +0.000 A 
ATOM     20  C   UNL     1      -0.208  10.916  18.684  0.00  0.00    +0.000 A 
ATOM     21  C   UNL     1       0.840  10.155  18.170  0.00  0.00    +0.000 A 
ATOM     22  C   UNL     1       1.402   9.130  18.935  0.00  0.00    +0.000 A 
ENDBRANCH  16  17
ENDBRANCH  15  16
ENDBRANCH  14  15
ENDBRANCH   4  14
TORSDOF 6
ENDMDL
MODEL 5
REMARK VINA RESULT:      -6.8      1.446      2.060
REMARK  Name = 
REMARK  6 active torsions:
REMARK  status: ('A' for Active; 'I' for Inactive)
REMARK    1  A    between atoms: C_2  and  C_3
REMARK    2  A    between atoms: C_8  and  N_9
REMARK    3  A    between atoms: C_12  and  C_13
REMARK    4  A    between atoms: C_13  and  O_14
REMARK    5  A    between atoms: O_14  and  C_15
REMARK    6  A    between atoms: C_15  and  C_16
REMARK                            x       y       z     vdW  Elec       q    Type
REMARK                         _______ _______ _______ _____ _____    ______ ____
ROOT
ATOM      1  N   UNL     1       4.578   4.985  17.383  0.00  0.00    +0.000 N 
ATOM      2  C   UNL     1       3.965   3.750  17.862  0.00  0.00    +0.000 C 
ATOM      3  C   UNL     1       2.511   4.113  18.140  0.00  0.00    +0.000 C 
ATOM      4  C   UNL     1       2.548   5.603  18.467  0.00  0.00    +0.000 C 
ATOM      5  C   UNL     1       3.676   6.134  17.566  0.00  0.00    +0.000 C 
ENDROOT
BRANCH   1  11
ATOM      6  C   UNL     1       6.722   5.513  16.301  0.00  0.00    +0.000 A 
ATOM      7  N   UNL     1       7.604   5.424  15.263  0.00  0.00    +0.000 NA
ATOM      8  C   UNL     1       7.168   4.745  14.184  0.00  0.00    +0.000 A 
ATOM      9  C   UNL     1       5.903   4.194  14.136  0.00  0.00    +0.000 A 
ATOM     10  N   UNL     1       5.027   4.279  15.170  0.00  0.00    +0.000 NA
ATOM     11  C   UNL     1       5.427   4.951  16.286  0.00  0.00    +0.000 A 
BRANCH   6  13
ATOM     12  N   UNL     1       7.694   6.665  18.419  0.00  0.00    +0.000 NA
ATOM     13  C   UNL     1       7.254   6.149  17.471  0.00  0.00    +0.000 C 
ENDBRANCH   6  13
ENDBRANCH   1  11
BRANCH   4  14
ATOM     14  C   UNL     1       2.825   5.879  19.947  0.00  0.00    +0.000 C 
BRANCH  14  15
ATOM     15  O   UNL     1       1.766   6.689  20.458  0.00  0.00    +0.000 OA
BRANCH  15  16
ATOM     16  C   UNL     1       1.819   8.024  19.954  0.00  0.00    +0.000 C 
BRANCH  16  17
ATOM     17  C   UNL     1       0.966   8.908  20.826  0.00  0.00    +0.000 A 
ATOM     18  C   UNL     1       0.174   9.918  20.263  0.00  0.00    +0.000 A 
ATOM     19  C   UNL     1      -0.597  10.751  21.076  0.00  0.00    +0.000 A 
ATOM     20  C   UNL     1      -0.590  10.578  22.460  0.00  0.00    +0.000 A 
ATOM     21  C   UNL     1       0.179   9.565  23.029  0.00  0.00    +0.000 A 
ATOM     22  C   UNL     1       0.953   8.732  22.218  0.00  0.00    +0.000 A 
ENDBRANCH  16  17
ENDBRANCH  15  16
ENDBRANCH  14  15
ENDBRANCH   4  14
TORSDOF 6
ENDMDL
MODEL 6
REMARK VINA RESULT:      -6.8      1.297      1.942
REMARK  Name = 
REMARK  6 active torsions:
REMARK  status: ('A' for Active; 'I' for Inactive)
REMARK    1  A    between atoms: C_2  and  C_3
REMARK    2  A    between atoms: C_8  and  N_9
REMARK    3  A    between atoms: C_12  and  C_13
REMARK    4  A    between atoms: C_13  and  O_14
REMARK    5  A    between atoms: O_14  and  C_15
REMARK    6  A    between atoms: C_15  and  C_16
REMARK                            x       y       z     vdW  Elec       q    Type
REMARK                         _______ _______ _______ _____ _____    ______ ____
ROOT
ATOM      1  N   UNL     1       4.196   4.815  18.386  0.00  0.00    +0.000 N 
ATOM      2  C   UNL     1       3.629   3.588  18.935  0.00  0.00    +0.000 C 
ATOM      3  C   UNL     1       2.133   3.860  19.048  0.00  0.00    +0.000 C 
ATOM      4  C   UNL     1       2.035   5.373  19.222  0.00  0.00    +0.000 C 
ATOM      5  C   UNL     1       3.202   5.901  18.372  0.00  0.00    +0.000 C 
ENDROOT
BRANCH   1  11
ATOM      6  C   UNL     1       6.523   4.947  17.602  0.00  0.00    +0.000 A 
ATOM      7  N   UNL     1       7.482   4.803  16.641  0.00  0.00    +0.000 NA
ATOM      8  C   UNL     1       7.038   4.441  15.423  0.00  0.00    +0.000 A 
ATOM      9  C   UNL     1       5.695   4.246  15.169  0.00  0.00    +0.000 A 
ATOM     10  N   UNL     1       4.741   4.384  16.124  0.00  0.00    +0.000 NA
ATOM     11  C   UNL     1       5.144   4.743  17.375  0.00  0.00    +0.000 A 
BRANCH   6  13
ATOM     12  N   UNL     1       7.453   5.468  19.973  0.00  0.00    +0.000 NA
ATOM     13  C   UNL     1       7.038   5.230  18.910  0.00  0.00    +0.000 C 
ENDBRANCH   6  13
ENDBRANCH   1  11
BRANCH   4  14
ATOM     14  C   UNL     1       2.152   5.811  20.684  0.00  0.00    +0.000 C 
BRANCH  14  15
ATOM     15  O   UNL     1       1.170   6.817  20.931  0.00  0.00    +0.000 OA
BRANCH  15  16
ATOM     16  C   UNL     1       1.602   8.107  20.496  0.00  0.00    +0.000 C 
BRANCH  16  17
ATOM     17  C   UNL     1       0.774   9.157  21.192  0.00  0.00    +0.000 A 
ATOM     18  C   UNL     1       0.529  10.395  20.583  0.00  0.00    +0.000 A 
ATOM     19  C   UNL     1      -0.217  11.374  21.241  0.00  0.00    +0.000 A 
ATOM     20  C   UNL     1      -0.733  11.123  22.512  0.00  0.00    +0.000 A 
ATOM     21  C   UNL     1      -0.511   9.889  23.120  0.00  0.00    +0.000 A 
ATOM     22  C   UNL     1       0.237   8.909  22.464  0.00  0.00    +0.000 A 
ENDBRANCH  16  17
ENDBRANCH  15  16
ENDBRANCH  14  15
ENDBRANCH   4  14
TORSDOF 6
ENDMDL
MODEL 7
REMARK VINA RESULT:      -6.8      4.445      6.605
REMARK  Name = 
REMARK  6 active torsions:
REMARK  status: ('A' for Active; 'I' for Inactive)
REMARK    1  A    between atoms: C_2  and  C_3
REMARK    2  A    between atoms: C_8  and  N_9
REMARK    3  A    between atoms: C_12  and  C_13
REMARK    4  A    between atoms: C_13  and  O_14
REMARK    5  A    between atoms: O_14  and  C_15
REMARK    6  A    between atoms: C_15  and  C_16
REMARK                            x       y       z     vdW  Elec       q    Type
REMARK                         _______ _______ _______ _____ _____    ______ ____
ROOT
ATOM      1  N   UNL     1       5.169   5.618  17.498  0.00  0.00    +0.000 N 
ATOM      2  C   UNL     1       5.828   5.389  16.216  0.00  0.00    +0.000 C 
ATOM      3  C   UNL     1       7.318   5.521  16.508  0.00  0.00    +0.000 C 
ATOM      4  C   UNL     1       7.388   6.464  17.706  0.00  0.00    +0.000 C 
ATOM      5  C   UNL     1       6.122   6.111  18.505  0.00  0.00    +0.000 C 
ENDROOT
BRANCH   1  11
ATOM      6  C   UNL     1       2.845   5.290  18.232  0.00  0.00    +0.000 A 
ATOM      7  N   UNL     1       1.780   4.496  18.545  0.00  0.00    +0.000 NA
ATOM      8  C   UNL     1       2.010   3.169  18.507  0.00  0.00    +0.000 A 
ATOM      9  C   UNL     1       3.251   2.657  18.186  0.00  0.00    +0.000 A 
ATOM     10  N   UNL     1       4.310   3.446  17.871  0.00  0.00    +0.000 NA
ATOM     11  C   UNL     1       4.123   4.795  17.890  0.00  0.00    +0.000 A 
BRANCH   6  13
ATOM     12  N   UNL     1       2.295   7.829  18.129  0.00  0.00    +0.000 NA
ATOM     13  C   UNL     1       2.541   6.690  18.180  0.00  0.00    +0.000 C 
ENDBRANCH   6  13
ENDBRANCH   1  11
BRANCH   4  14
ATOM     14  C   UNL     1       7.410   7.940  17.299  0.00  0.00    +0.000 C 
BRANCH  14  15
ATOM     15  O   UNL     1       8.335   8.624  18.144  0.00  0.00    +0.000 OA
BRANCH  15  16
ATOM     16  C   UNL     1       8.127  10.036  18.136  0.00  0.00    +0.000 C 
BRANCH  16  17
ATOM     17  C   UNL     1       9.346  10.711  18.709  0.00  0.00    +0.000 A 
ATOM     18  C   UNL     1      10.423  11.064  17.884  0.00  0.00    +0.000 A 
ATOM     19  C   UNL     1      11.562  11.667  18.422  0.00  0.00    +0.000 A 
ATOM     20  C   UNL     1      11.633  11.929  19.789  0.00  0.00    +0.000 A 
ATOM     21  C   UNL     1      10.562  11.599  20.617  0.00  0.00    +0.000 A 
ATOM     22  C   UNL     1       9.422  10.995  20.081  0.00  0.00    +0.000 A 
ENDBRANCH  16  17
ENDBRANCH  15  16
ENDBRANCH  14  15
ENDBRANCH   4  14
TORSDOF 6
ENDMDL
MODEL 8
REMARK VINA RESULT:      -6.7      4.401      6.479
REMARK  Name = 
REMARK  6 active torsions:
REMARK  status: ('A' for Active; 'I' for Inactive)
REMARK    1  A    between atoms: C_2  and  C_3
REMARK    2  A    between atoms: C_8  and  N_9
REMARK    3  A    between atoms: C_12  and  C_13
REMARK    4  A    between atoms: C_13  and  O_14
REMARK    5  A    between atoms: O_14  and  C_15
REMARK    6  A    between atoms: C_15  and  C_16
REMARK                            x       y       z     vdW  Elec       q    Type
REMARK                         _______ _______ _______ _____ _____    ______ ____
ROOT
ATOM      1  N   UNL     1       5.403   5.356  18.440  0.00  0.00    +0.000 N 
ATOM      2  C   UNL     1       5.476   5.184  16.993  0.00  0.00    +0.000 C 
ATOM      3  C   UNL     1       6.946   5.384  16.645  0.00  0.00    +0.000 C 
ATOM      4  C   UNL     1       7.473   6.308  17.741  0.00  0.00    +0.000 C 
ATOM      5  C   UNL     1       6.670   5.877  18.979  0.00  0.00    +0.000 C 
ENDROOT
BRANCH   1  11
ATOM      6  C   UNL     1       3.397   4.820  19.758  0.00  0.00    +0.000 A 
ATOM      7  N   UNL     1       2.600   3.948  20.441  0.00  0.00    +0.000 NA
ATOM      8  C   UNL     1       3.076   2.694  20.561  0.00  0.00    +0.000 A 
ATOM      9  C   UNL     1       4.300   2.330  20.037  0.00  0.00    +0.000 A 
ATOM     10  N   UNL     1       5.092   3.196  19.353  0.00  0.00    +0.000 NA
ATOM     11  C   UNL     1       4.648   4.474  19.201  0.00  0.00    +0.000 A 
BRANCH   6  13
ATOM     12  N   UNL     1       2.347   7.172  19.401  0.00  0.00    +0.000 NA
ATOM     13  C   UNL     1       2.815   6.116  19.557  0.00  0.00    +0.000 C 
ENDBRANCH   6  13
ENDBRANCH   1  11
BRANCH   4  14
ATOM     14  C   UNL     1       7.268   7.790  17.417  0.00  0.00    +0.000 C 
BRANCH  14  15
ATOM     15  O   UNL     1       8.220   8.547  18.163  0.00  0.00    +0.000 OA
BRANCH  15  16
ATOM     16  C   UNL     1       8.585   9.756  17.498  0.00  0.00    +0.000 C 
BRANCH  16  17
ATOM     17  C   UNL     1       9.210  10.693  18.499  0.00  0.00    +0.000 A 
ATOM     18  C   UNL     1       9.753  11.919  18.091  0.00  0.00    +0.000 A 
ATOM     19  C   UNL     1      10.353  12.773  19.018  0.00  0.00    +0.000 A 
ATOM     20  C   UNL     1      10.410  12.415  20.364  0.00  0.00    +0.000 A 
ATOM     21  C   UNL     1       9.858  11.206  20.785  0.00  0.00    +0.000 A 
ATOM     22  C   UNL     1       9.259  10.350  19.859  0.00  0.00    +0.000 A 
ENDBRANCH  16  17
ENDBRANCH  15  16
ENDBRANCH  14  15
ENDBRANCH   4  14
TORSDOF 6
ENDMDL
MODEL 9
REMARK VINA RESULT:      -6.6      4.570      6.581
REMARK  Name = 
REMARK  6 active torsions:
REMARK  status: ('A' for Active; 'I' for Inactive)
REMARK    1  A    between atoms: C_2  and  C_3
REMARK    2  A    between atoms: C_8  and  N_9
REMARK    3  A    between atoms: C_12  and  C_13
REMARK    4  A    between atoms: C_13  and  O_14
REMARK    5  A    between atoms: O_14  and  C_15
REMARK    6  A    between atoms: C_15  and  C_16
REMARK                            x       y       z     vdW  Elec       q    Type
REMARK                         _______ _______ _______ _____ _____    ______ ____
ROOT
ATOM      1  N   UNL     1       5.480   5.629  18.501  0.00  0.00    +0.000 N 
ATOM      2  C   UNL     1       5.485   5.581  17.042  0.00  0.00    +0.000 C 
ATOM      3  C   UNL     1       6.943   5.775  16.645  0.00  0.00    +0.000 C 
ATOM      4  C   UNL     1       7.543   6.588  17.790  0.00  0.00    +0.000 C 
ATOM      5  C   UNL     1       6.783   6.072  19.023  0.00  0.00    +0.000 C 
ENDROOT
BRANCH   1  11
ATOM      6  C   UNL     1       3.449   4.987  19.731  0.00  0.00    +0.000 A 
ATOM      7  N   UNL     1       2.665   4.070  20.369  0.00  0.00    +0.000 NA
ATOM      8  C   UNL     1       3.190   2.836  20.488  0.00  0.00    +0.000 A 
ATOM      9  C   UNL     1       4.447   2.532  20.006  0.00  0.00    +0.000 A 
ATOM     10  N   UNL     1       5.227   3.443  19.367  0.00  0.00    +0.000 NA
ATOM     11  C   UNL     1       4.734   4.704  19.217  0.00  0.00    +0.000 A 
BRANCH   6  13
ATOM     12  N   UNL     1       2.317   7.299  19.365  0.00  0.00    +0.000 NA
ATOM     13  C   UNL     1       2.821   6.260  19.527  0.00  0.00    +0.000 C 
ENDBRANCH   6  13
ENDBRANCH   1  11
BRANCH   4  14
ATOM     14  C   UNL     1       7.365   8.097  17.603  0.00  0.00    +0.000 C 
BRANCH  14  15
ATOM     15  O   UNL     1       8.402   8.763  18.323  0.00  0.00    +0.000 OA
BRANCH  15  16
ATOM     16  C   UNL     1       8.823   9.962  17.673  0.00  0.00    +0.000 C 
BRANCH  16  17
ATOM     17  C   UNL     1       9.352  10.918  18.711  0.00  0.00    +0.000 A 
ATOM     18  C   UNL     1       9.379  10.561  20.066  0.00  0.00    +0.000 A 
ATOM     19  C   UNL     1       9.846  11.458  21.028  0.00  0.00    +0.000 A 
ATOM     20  C   UNL     1      10.299  12.720  20.644  0.00  0.00    +0.000 A 
ATOM     21  C   UNL     1      10.294  13.080  19.297  0.00  0.00    +0.000 A 
ATOM     22  C   UNL     1       9.825  12.184  18.334  0.00  0.00    +0.000 A 
ENDBRANCH  16  17
ENDBRANCH  15  16
ENDBRANCH  14  15
ENDBRANCH   4  14
TORSDOF 6
ENDMDL
