MODEL 1
REMARK VINA RESULT:      -6.0      0.000      0.000
REMARK  Name = 
REMARK  19 active torsions:
REMARK  status: ('A' for Active; 'I' for Inactive)
REMARK    1  A    between atoms: C_1  and  C_2
REMARK    2  A    between atoms: C_2  and  C_3
REMARK    3  A    between atoms: C_3  and  C_4
REMARK    4  A    between atoms: C_4  and  C_5
REMARK    5  A    between atoms: C_5  and  C_6
REMARK    6  A    between atoms: C_6  and  O_7
REMARK    7  A    between atoms: C_6  and  C_8
REMARK    8  A    between atoms: C_9  and  C_10
REMARK    9  A    between atoms: C_11  and  C_12
REMARK   10  A    between atoms: C_12  and  C_13
REMARK   11  A    between atoms: C_13  and  C_14
REMARK   12  A    between atoms: C_14  and  C_15
REMARK   13  A    between atoms: C_15  and  C_16
REMARK   14  A    between atoms: C_16  and  C_17
REMARK   15  A    between atoms: C_17  and  C_18
REMARK   16  A    between atoms: C_18  and  C_19
REMARK   17  A    between atoms: C_19  and  C_20
REMARK   18  A    between atoms: C_20  and  C_21
REMARK   19  A    between atoms: C_21  and  O_23
REMARK                            x       y       z     vdW  Elec       q    Type
REMARK                         _______ _______ _______ _____ _____    ______ ____
ROOT
ATOM      1  C   UNL     1       1.457   3.214  20.306  0.00  0.00    +0.000 C 
ENDROOT
BRANCH   1   3
ATOM      2  C   UNL     1       1.998   5.620  20.488  0.00  0.00    +0.000 C 
ATOM      3  C   UNL     1       1.103   4.636  20.604  0.00  0.00    +0.000 C 
BRANCH   2   5
ATOM      4  C   UNL     1       1.280   8.293  21.051  0.00  0.00    +0.000 C 
ATOM      5  C   UNL     1       1.612   7.059  20.791  0.00  0.00    +0.000 C 
BRANCH   4   6
ATOM      6  C   UNL     1       0.915   9.685  21.342  0.00  0.00    +0.000 C 
BRANCH   6   7
ATOM      7  O   UNL     1       0.631   9.830  22.732  0.00  0.00    +0.000 OA
ATOM      8  H   UNL     1      -0.335   9.882  22.822  0.00  0.00    +0.000 HD
ENDBRANCH   6   7
BRANCH   6   9
ATOM      9  C   UNL     1      -0.304  10.102  20.522  0.00  0.00    +0.000 C 
BRANCH   9  10
ATOM     10  C   UNL     1       0.030  10.195  19.035  0.00  0.00    +0.000 C 
BRANCH  10  11
ATOM     11  C   UNL     1      -1.092  10.893  18.279  0.00  0.00    +0.000 C 
BRANCH  11  13
ATOM     12  C   UNL     1      -3.304  10.056  17.481  0.00  0.00    +0.000 C 
ATOM     13  C   UNL     1      -1.800   9.919  17.345  0.00  0.00    +0.000 C 
ENDBRANCH  11  13
ENDBRANCH  10  11
ENDBRANCH   9  10
ENDBRANCH   6   9
ENDBRANCH   4   6
ENDBRANCH   2   5
ENDBRANCH   1   3
BRANCH   1  14
ATOM     14  C   UNL     1       0.865   2.773  18.976  0.00  0.00    +0.000 C 
BRANCH  14  15
ATOM     15  C   UNL     1       1.635   3.401  17.823  0.00  0.00    +0.000 C 
BRANCH  15  16
ATOM     16  C   UNL     1       2.921   2.631  17.572  0.00  0.00    +0.000 C 
BRANCH  16  17
ATOM     17  C   UNL     1       4.123   3.543  17.759  0.00  0.00    +0.000 C 
BRANCH  17  18
ATOM     18  C   UNL     1       3.793   4.953  17.295  0.00  0.00    +0.000 C 
BRANCH  18  19
ATOM     19  C   UNL     1       4.850   5.932  17.792  0.00  0.00    +0.000 C 
BRANCH  19  20
ATOM     20  C   UNL     1       5.661   6.475  16.624  0.00  0.00    +0.000 C 
BRANCH  20  21
ATOM     21  C   UNL     1       5.288   5.799  15.303  0.00  0.00    +0.000 C 
BRANCH  21  22
ATOM     22  C   UNL     1       6.421   4.916  14.838  0.00  0.00    +0.000 C 
ATOM     23  O   UNL     1       6.285   3.755  14.472  0.00  0.00    +0.000 OA
BRANCH  22  24
ATOM     24  O   UNL     1       7.645   5.506  14.849  0.00  0.00    +0.000 OA
ATOM     25  H   UNL     1       8.399   4.902  14.936  0.00  0.00    +0.000 HD
ENDBRANCH  22  24
ENDBRANCH  21  22
ENDBRANCH  20  21
ENDBRANCH  19  20
ENDBRANCH  18  19
ENDBRANCH  17  18
ENDBRANCH  16  17
ENDBRANCH  15  16
ENDBRANCH  14  15
ENDBRANCH   1  14
TORSDOF 18
ENDMDL
MODEL 2
REMARK VINA RESULT:      -5.7      2.092      7.507
REMARK  Name = 
REMARK  19 active torsions:
REMARK  status: ('A' for Active; 'I' for Inactive)
REMARK    1  A    between atoms: C_1  and  C_2
REMARK    2  A    between atoms: C_2  and  C_3
REMARK    3  A    between atoms: C_3  and  C_4
REMARK    4  A    between atoms: C_4  and  C_5
REMARK    5  A    between atoms: C_5  and  C_6
REMARK    6  A    between atoms: C_6  and  O_7
REMARK    7  A    between atoms: C_6  and  C_8
REMARK    8  A    between atoms: C_9  and  C_10
REMARK    9  A    between atoms: C_11  and  C_12
REMARK   10  A    between atoms: C_12  and  C_13
REMARK   11  A    between atoms: C_13  and  C_14
REMARK   12  A    between atoms: C_14  and  C_15
REMARK   13  A    between atoms: C_15  and  C_16
REMARK   14  A    between atoms: C_16  and  C_17
REMARK   15  A    between atoms: C_17  and  C_18
REMARK   16  A    between atoms: C_18  and  C_19
REMARK   17  A    between atoms: C_19  and  C_20
REMARK   18  A    between atoms: C_20  and  C_21
REMARK   19  A    between atoms: C_21  and  O_23
REMARK                            x       y       z     vdW  Elec       q    Type
REMARK                         _______ _______ _______ _____ _____    ______ ____
ROOT
ATOM      1  C   UNL     1       2.131   1.867  19.356  0.00  0.00    +0.000 C 
ENDROOT
BRANCH   1   3
ATOM      2  C   UNL     1       3.003   3.310  17.548  0.00  0.00    +0.000 C 
ATOM      3  C   UNL     1       3.180   2.276  18.374  0.00  0.00    +0.000 C 
BRANCH   2   5
ATOM      4  C   UNL     1       5.020   4.051  15.714  0.00  0.00    +0.000 C 
ATOM      5  C   UNL     1       4.088   3.709  16.560  0.00  0.00    +0.000 C 
BRANCH   4   6
ATOM      6  C   UNL     1       6.062   4.441  14.757  0.00  0.00    +0.000 C 
BRANCH   6   7
ATOM      7  O   UNL     1       6.354   3.349  13.888  0.00  0.00    +0.000 OA
ATOM      8  H   UNL     1       7.304   3.162  13.975  0.00  0.00    +0.000 HD
ENDBRANCH   6   7
BRANCH   6   9
ATOM      9  C   UNL     1       7.331   4.868  15.492  0.00  0.00    +0.000 C 
BRANCH   9  10
ATOM     10  C   UNL     1       7.004   5.615  16.782  0.00  0.00    +0.000 C 
BRANCH  10  11
ATOM     11  C   UNL     1       7.749   5.001  17.958  0.00  0.00    +0.000 C 
BRANCH  11  13
ATOM     12  C   UNL     1       5.757   5.129  19.457  0.00  0.00    +0.000 C 
ATOM     13  C   UNL     1       7.207   5.535  19.278  0.00  0.00    +0.000 C 
ENDBRANCH  11  13
ENDBRANCH  10  11
ENDBRANCH   9  10
ENDBRANCH   6   9
ENDBRANCH   4   6
ENDBRANCH   2   5
ENDBRANCH   1   3
BRANCH   1  14
ATOM     14  C   UNL     1       1.123   2.986  19.571  0.00  0.00    +0.000 C 
BRANCH  14  15
ATOM     15  C   UNL     1       1.203   3.499  21.003  0.00  0.00    +0.000 C 
BRANCH  15  16
ATOM     16  C   UNL     1       2.243   4.603  21.106  0.00  0.00    +0.000 C 
BRANCH  16  17
ATOM     17  C   UNL     1       1.743   5.859  20.412  0.00  0.00    +0.000 C 
BRANCH  17  18
ATOM     18  C   UNL     1       2.788   6.373  19.433  0.00  0.00    +0.000 C 
BRANCH  18  19
ATOM     19  C   UNL     1       2.110   7.039  18.241  0.00  0.00    +0.000 C 
BRANCH  19  20
ATOM     20  C   UNL     1       2.289   8.549  18.307  0.00  0.00    +0.000 C 
BRANCH  20  21
ATOM     21  C   UNL     1       1.276   9.208  19.246  0.00  0.00    +0.000 C 
BRANCH  21  22
ATOM     22  C   UNL     1       0.751  10.480  18.626  0.00  0.00    +0.000 C 
ATOM     23  O   UNL     1       1.429  11.478  18.420  0.00  0.00    +0.000 OA
BRANCH  22  24
ATOM     24  O   UNL     1      -0.568  10.451  18.296  0.00  0.00    +0.000 OA
ATOM     25  H   UNL     1      -1.124  11.110  18.739  0.00  0.00    +0.000 HD
ENDBRANCH  22  24
ENDBRANCH  21  22
ENDBRANCH  20  21
ENDBRANCH  19  20
ENDBRANCH  18  19
ENDBRANCH  17  18
ENDBRANCH  16  17
ENDBRANCH  15  16
ENDBRANCH  14  15
ENDBRANCH   1  14
TORSDOF 18
ENDMDL
MODEL 3
REMARK VINA RESULT:      -5.7      2.032      2.960
REMARK  Name = 
REMARK  19 active torsions:
REMARK  status: ('A' for Active; 'I' for Inactive)
REMARK    1  A    between atoms: C_1  and  C_2
REMARK    2  A    between atoms: C_2  and  C_3
REMARK    3  A    between atoms: C_3  and  C_4
REMARK    4  A    between atoms: C_4  and  C_5
REMARK    5  A    between atoms: C_5  and  C_6
REMARK    6  A    between atoms: C_6  and  O_7
REMARK    7  A    between atoms: C_6  and  C_8
REMARK    8  A    between atoms: C_9  and  C_10
REMARK    9  A    between atoms: C_11  and  C_12
REMARK   10  A    between atoms: C_12  and  C_13
REMARK   11  A    between atoms: C_13  and  C_14
REMARK   12  A    between atoms: C_14  and  C_15
REMARK   13  A    between atoms: C_15  and  C_16
REMARK   14  A    between atoms: C_16  and  C_17
REMARK   15  A    between atoms: C_17  and  C_18
REMARK   16  A    between atoms: C_18  and  C_19
REMARK   17  A    between atoms: C_19  and  C_20
REMARK   18  A    between atoms: C_20  and  C_21
REMARK   19  A    between atoms: C_21  and  O_23
REMARK                            x       y       z     vdW  Elec       q    Type
REMARK                         _______ _______ _______ _____ _____    ______ ____
ROOT
ATOM      1  C   UNL     1       2.380   5.098  20.231  0.00  0.00    +0.000 C 
ENDROOT
BRANCH   1   3
ATOM      2  C   UNL     1       2.387   7.056  18.721  0.00  0.00    +0.000 C 
ATOM      3  C   UNL     1       2.090   6.529  19.912  0.00  0.00    +0.000 C 
BRANCH   2   5
ATOM      4  C   UNL     1       1.813   9.763  18.158  0.00  0.00    +0.000 C 
ATOM      5  C   UNL     1       2.077   8.513  18.418  0.00  0.00    +0.000 C 
BRANCH   4   6
ATOM      6  C   UNL     1       1.507  11.170  17.871  0.00  0.00    +0.000 C 
BRANCH   6   7
ATOM      7  O   UNL     1       2.718  11.900  17.682  0.00  0.00    +0.000 OA
ATOM      8  H   UNL     1       2.810  12.057  16.728  0.00  0.00    +0.000 HD
ENDBRANCH   6   7
BRANCH   6   9
ATOM      9  C   UNL     1       0.706  11.789  19.015  0.00  0.00    +0.000 C 
BRANCH   9  10
ATOM     10  C   UNL     1       1.002  11.094  20.342  0.00  0.00    +0.000 C 
BRANCH  10  11
ATOM     11  C   UNL     1      -0.292  10.775  21.077  0.00  0.00    +0.000 C 
BRANCH  11  13
ATOM     12  C   UNL     1      -0.340   8.378  21.770  0.00  0.00    +0.000 C 
ATOM     13  C   UNL     1      -0.037   9.796  22.216  0.00  0.00    +0.000 C 
ENDBRANCH  11  13
ENDBRANCH  10  11
ENDBRANCH   9  10
ENDBRANCH   6   9
ENDBRANCH   4   6
ENDBRANCH   2   5
ENDBRANCH   1   3
BRANCH   1  14
ATOM     14  C   UNL     1       1.097   4.334  20.521  0.00  0.00    +0.000 C 
BRANCH  14  15
ATOM     15  C   UNL     1       1.095   3.006  19.776  0.00  0.00    +0.000 C 
BRANCH  15  16
ATOM     16  C   UNL     1       1.700   3.181  18.393  0.00  0.00    +0.000 C 
BRANCH  16  17
ATOM     17  C   UNL     1       2.792   2.149  18.164  0.00  0.00    +0.000 C 
BRANCH  17  18
ATOM     18  C   UNL     1       4.024   2.808  17.564  0.00  0.00    +0.000 C 
BRANCH  18  19
ATOM     19  C   UNL     1       3.643   4.115  16.878  0.00  0.00    +0.000 C 
BRANCH  19  20
ATOM     20  C   UNL     1       4.835   5.059  16.839  0.00  0.00    +0.000 C 
BRANCH  20  21
ATOM     21  C   UNL     1       6.162   4.305  16.728  0.00  0.00    +0.000 C 
BRANCH  21  22
ATOM     22  C   UNL     1       6.733   4.467  15.340  0.00  0.00    +0.000 C 
ATOM     23  O   UNL     1       7.523   5.345  15.017  0.00  0.00    +0.000 OA
BRANCH  22  24
ATOM     24  O   UNL     1       6.304   3.547  14.436  0.00  0.00    +0.000 OA
ATOM     25  H   UNL     1       5.908   2.746  14.811  0.00  0.00    +0.000 HD
ENDBRANCH  22  24
ENDBRANCH  21  22
ENDBRANCH  20  21
ENDBRANCH  19  20
ENDBRANCH  18  19
ENDBRANCH  17  18
ENDBRANCH  16  17
ENDBRANCH  15  16
ENDBRANCH  14  15
ENDBRANCH   1  14
TORSDOF 18
ENDMDL
MODEL 4
REMARK VINA RESULT:      -5.7      3.567      7.426
REMARK  Name = 
REMARK  19 active torsions:
REMARK  status: ('A' for Active; 'I' for Inactive)
REMARK    1  A    between atoms: C_1  and  C_2
REMARK    2  A    between atoms: C_2  and  C_3
REMARK    3  A    between atoms: C_3  and  C_4
REMARK    4  A    between atoms: C_4  and  C_5
REMARK    5  A    between atoms: C_5  and  C_6
REMARK    6  A    between atoms: C_6  and  O_7
REMARK    7  A    between atoms: C_6  and  C_8
REMARK    8  A    between atoms: C_9  and  C_10
REMARK    9  A    between atoms: C_11  and  C_12
REMARK   10  A    between atoms: C_12  and  C_13
REMARK   11  A    between atoms: C_13  and  C_14
REMARK   12  A    between atoms: C_14  and  C_15
REMARK   13  A    between atoms: C_15  and  C_16
REMARK   14  A    between atoms: C_16  and  C_17
REMARK   15  A    between atoms: C_17  and  C_18
REMARK   16  A    between atoms: C_18  and  C_19
REMARK   17  A    between atoms: C_19  and  C_20
REMARK   18  A    between atoms: C_20  and  C_21
REMARK   19  A    between atoms: C_21  and  O_23
REMARK                            x       y       z     vdW  Elec       q    Type
REMARK                         _______ _______ _______ _____ _____    ______ ____
ROOT
ATOM      1  C   UNL     1       3.716   2.708  18.596  0.00  0.00    +0.000 C 
ENDROOT
BRANCH   1   3
ATOM      2  C   UNL     1       4.451   3.778  16.491  0.00  0.00    +0.000 C 
ATOM      3  C   UNL     1       4.680   2.898  17.469  0.00  0.00    +0.000 C 
BRANCH   2   5
ATOM      4  C   UNL     1       6.307   4.109  14.388  0.00  0.00    +0.000 C 
ATOM      5  C   UNL     1       5.450   3.956  15.358  0.00  0.00    +0.000 C 
BRANCH   4   6
ATOM      6  C   UNL     1       7.265   4.281  13.289  0.00  0.00    +0.000 C 
BRANCH   6   7
ATOM      7  O   UNL     1       7.874   5.567  13.375  0.00  0.00    +0.000 OA
ATOM      8  H   UNL     1       8.339   5.606  14.228  0.00  0.00    +0.000 HD
ENDBRANCH   6   7
BRANCH   6   9
ATOM      9  C   UNL     1       6.565   4.132  11.940  0.00  0.00    +0.000 C 
BRANCH   9  10
ATOM     10  C   UNL     1       5.573   2.971  11.952  0.00  0.00    +0.000 C 
BRANCH  10  11
ATOM     11  C   UNL     1       4.149   3.486  11.804  0.00  0.00    +0.000 C 
BRANCH  11  13
ATOM     12  C   UNL     1       2.960   4.176   9.720  0.00  0.00    +0.000 C 
ATOM     13  C   UNL     1       3.535   3.005  10.495  0.00  0.00    +0.000 C 
ENDBRANCH  11  13
ENDBRANCH  10  11
ENDBRANCH   9  10
ENDBRANCH   6   9
ENDBRANCH   4   6
ENDBRANCH   2   5
ENDBRANCH   1   3
BRANCH   1  14
ATOM     14  C   UNL     1       2.620   1.725  18.213  0.00  0.00    +0.000 C 
BRANCH  14  15
ATOM     15  C   UNL     1       1.271   2.217  18.720  0.00  0.00    +0.000 C 
BRANCH  15  16
ATOM     16  C   UNL     1       1.186   3.729  18.597  0.00  0.00    +0.000 C 
BRANCH  16  17
ATOM     17  C   UNL     1       1.087   4.362  19.975  0.00  0.00    +0.000 C 
BRANCH  17  18
ATOM     18  C   UNL     1       2.055   5.530  20.091  0.00  0.00    +0.000 C 
BRANCH  18  19
ATOM     19  C   UNL     1       2.426   6.046  18.705  0.00  0.00    +0.000 C 
BRANCH  19  20
ATOM     20  C   UNL     1       3.740   6.811  18.760  0.00  0.00    +0.000 C 
BRANCH  20  21
ATOM     21  C   UNL     1       4.369   6.975  17.375  0.00  0.00    +0.000 C 
BRANCH  21  22
ATOM     22  C   UNL     1       5.867   6.821  17.467  0.00  0.00    +0.000 C 
ATOM     23  O   UNL     1       6.666   7.395  16.738  0.00  0.00    +0.000 OA
BRANCH  22  24
ATOM     24  O   UNL     1       6.295   5.977  18.444  0.00  0.00    +0.000 OA
ATOM     25  H   UNL     1       7.098   6.254  18.912  0.00  0.00    +0.000 HD
ENDBRANCH  22  24
ENDBRANCH  21  22
ENDBRANCH  20  21
ENDBRANCH  19  20
ENDBRANCH  18  19
ENDBRANCH  17  18
ENDBRANCH  16  17
ENDBRANCH  15  16
ENDBRANCH  14  15
ENDBRANCH   1  14
TORSDOF 18
ENDMDL
MODEL 5
REMARK VINA RESULT:      -5.7      5.653      8.312
REMARK  Name = 
REMARK  19 active torsions:
REMARK  status: ('A' for Active; 'I' for Inactive)
REMARK    1  A    between atoms: C_1  and  C_2
REMARK    2  A    between atoms: C_2  and  C_3
REMARK    3  A    between atoms: C_3  and  C_4
REMARK    4  A    between atoms: C_4  and  C_5
REMARK    5  A    between atoms: C_5  and  C_6
REMARK    6  A    between atoms: C_6  and  O_7
REMARK    7  A    between atoms: C_6  and  C_8
REMARK    8  A    between atoms: C_9  and  C_10
REMARK    9  A    between atoms: C_11  and  C_12
REMARK   10  A    between atoms: C_12  and  C_13
REMARK   11  A    between atoms: C_13  and  C_14
REMARK   12  A    between atoms: C_14  and  C_15
REMARK   13  A    between atoms: C_15  and  C_16
REMARK   14  A    between atoms: C_16  and  C_17
REMARK   15  A    between atoms: C_17  and  C_18
REMARK   16  A    between atoms: C_18  and  C_19
REMARK   17  A    between atoms: C_19  and  C_20
REMARK   18  A    between atoms: C_20  and  C_21
REMARK   19  A    between atoms: C_21  and  O_23
REMARK                            x       y       z     vdW  Elec       q    Type
REMARK                         _______ _______ _______ _____ _____    ______ ____
ROOT
ATOM      1  C   UNL     1       6.875   6.443  17.140  0.00  0.00    +0.000 C 
ENDROOT
BRANCH   1   3
ATOM      2  C   UNL     1       7.697   8.717  17.657  0.00  0.00    +0.000 C 
ATOM      3  C   UNL     1       7.812   7.395  17.810  0.00  0.00    +0.000 C 
BRANCH   2   5
ATOM      4  C   UNL     1       9.487  10.478  18.950  0.00  0.00    +0.000 C 
ATOM      5  C   UNL     1       8.660   9.665  18.353  0.00  0.00    +0.000 C 
BRANCH   4   6
ATOM      6  C   UNL     1      10.411  11.398  19.624  0.00  0.00    +0.000 C 
BRANCH   6   7
ATOM      7  O   UNL     1       9.717  12.128  20.633  0.00  0.00    +0.000 OA
ATOM      8  H   UNL     1      10.264  12.901  20.852  0.00  0.00    +0.000 HD
ENDBRANCH   6   7
BRANCH   6   9
ATOM      9  C   UNL     1      11.029  12.368  18.620  0.00  0.00    +0.000 C 
BRANCH   9  10
ATOM     10  C   UNL     1       9.955  13.135  17.852  0.00  0.00    +0.000 C 
BRANCH  10  11
ATOM     11  C   UNL     1      10.025  14.620  18.176  0.00  0.00    +0.000 C 
BRANCH  11  13
ATOM     12  C   UNL     1       8.709  16.740  18.105  0.00  0.00    +0.000 C 
ATOM     13  C   UNL     1       8.629  15.229  18.220  0.00  0.00    +0.000 C 
ENDBRANCH  11  13
ENDBRANCH  10  11
ENDBRANCH   9  10
ENDBRANCH   6   9
ENDBRANCH   4   6
ENDBRANCH   2   5
ENDBRANCH   1   3
BRANCH   1  14
ATOM     14  C   UNL     1       7.384   5.013  17.248  0.00  0.00    +0.000 C 
BRANCH  14  15
ATOM     15  C   UNL     1       6.226   4.032  17.122  0.00  0.00    +0.000 C 
BRANCH  15  16
ATOM     16  C   UNL     1       4.969   4.624  17.737  0.00  0.00    +0.000 C 
BRANCH  16  17
ATOM     17  C   UNL     1       3.982   3.519  18.078  0.00  0.00    +0.000 C 
BRANCH  17  18
ATOM     18  C   UNL     1       2.755   3.613  17.186  0.00  0.00    +0.000 C 
BRANCH  18  19
ATOM     19  C   UNL     1       1.516   3.912  18.023  0.00  0.00    +0.000 C 
BRANCH  19  20
ATOM     20  C   UNL     1       1.347   2.861  19.110  0.00  0.00    +0.000 C 
BRANCH  20  21
ATOM     21  C   UNL     1       0.846   3.468  20.423  0.00  0.00    +0.000 C 
BRANCH  21  22
ATOM     22  C   UNL     1       2.015   3.774  21.328  0.00  0.00    +0.000 C 
ATOM     23  O   UNL     1       2.464   2.997  22.161  0.00  0.00    +0.000 OA
BRANCH  22  24
ATOM     24  O   UNL     1       2.562   5.007  21.157  0.00  0.00    +0.000 OA
ATOM     25  H   UNL     1       1.928   5.733  21.049  0.00  0.00    +0.000 HD
ENDBRANCH  22  24
ENDBRANCH  21  22
ENDBRANCH  20  21
ENDBRANCH  19  20
ENDBRANCH  18  19
ENDBRANCH  17  18
ENDBRANCH  16  17
ENDBRANCH  15  16
ENDBRANCH  14  15
ENDBRANCH   1  14
TORSDOF 18
ENDMDL
MODEL 6
REMARK VINA RESULT:      -5.7      3.018      4.749
REMARK  Name = 
REMARK  19 active torsions:
REMARK  status: ('A' for Active; 'I' for Inactive)
REMARK    1  A    between atoms: C_1  and  C_2
REMARK    2  A    between atoms: C_2  and  C_3
REMARK    3  A    between atoms: C_3  and  C_4
REMARK    4  A    between atoms: C_4  and  C_5
REMARK    5  A    between atoms: C_5  and  C_6
REMARK    6  A    between atoms: C_6  and  O_7
REMARK    7  A    between atoms: C_6  and  C_8
REMARK    8  A    between atoms: C_9  and  C_10
REMARK    9  A    between atoms: C_11  and  C_12
REMARK   10  A    between atoms: C_12  and  C_13
REMARK   11  A    between atoms: C_13  and  C_14
REMARK   12  A    between atoms: C_14  and  C_15
REMARK   13  A    between atoms: C_15  and  C_16
REMARK   14  A    between atoms: C_16  and  C_17
REMARK   15  A    between atoms: C_17  and  C_18
REMARK   16  A    between atoms: C_18  and  C_19
REMARK   17  A    between atoms: C_19  and  C_20
REMARK   18  A    between atoms: C_20  and  C_21
REMARK   19  A    between atoms: C_21  and  O_23
REMARK                            x       y       z     vdW  Elec       q    Type
REMARK                         _______ _______ _______ _____ _____    ______ ____
ROOT
ATOM      1  C   UNL     1       4.660   6.112  17.439  0.00  0.00    +0.000 C 
ENDROOT
BRANCH   1   3
ATOM      2  C   UNL     1       2.727   7.323  18.394  0.00  0.00    +0.000 C 
ATOM      3  C   UNL     1       3.708   7.262  17.489  0.00  0.00    +0.000 C 
BRANCH   2   5
ATOM      4  C   UNL     1       0.956   9.522  18.455  0.00  0.00    +0.000 C 
ATOM      5  C   UNL     1       1.774   8.507  18.428  0.00  0.00    +0.000 C 
BRANCH   4   6
ATOM      6  C   UNL     1       0.039  10.667  18.495  0.00  0.00    +0.000 C 
BRANCH   6   7
ATOM      7  O   UNL     1      -0.046  11.174  19.825  0.00  0.00    +0.000 OA
ATOM      8  H   UNL     1       0.765  11.686  19.986  0.00  0.00    +0.000 HD
ENDBRANCH   6   7
BRANCH   6   9
ATOM      9  C   UNL     1      -1.351  10.257  18.011  0.00  0.00    +0.000 C 
BRANCH   9  10
ATOM     10  C   UNL     1      -2.265  11.469  17.847  0.00  0.00    +0.000 C 
BRANCH  10  11
ATOM     11  C   UNL     1      -3.182  11.287  16.647  0.00  0.00    +0.000 C 
BRANCH  11  13
ATOM     12  C   UNL     1      -3.498  10.111  14.467  0.00  0.00    +0.000 C 
ATOM     13  C   UNL     1      -2.647  10.202  15.720  0.00  0.00    +0.000 C 
ENDBRANCH  11  13
ENDBRANCH  10  11
ENDBRANCH   9  10
ENDBRANCH   6   9
ENDBRANCH   4   6
ENDBRANCH   2   5
ENDBRANCH   1   3
BRANCH   1  14
ATOM     14  C   UNL     1       3.915   4.797  17.262  0.00  0.00    +0.000 C 
BRANCH  14  15
ATOM     15  C   UNL     1       4.805   3.629  17.663  0.00  0.00    +0.000 C 
BRANCH  15  16
ATOM     16  C   UNL     1       3.954   2.436  18.066  0.00  0.00    +0.000 C 
BRANCH  16  17
ATOM     17  C   UNL     1       2.594   2.511  17.392  0.00  0.00    +0.000 C 
BRANCH  17  18
ATOM     18  C   UNL     1       1.487   2.522  18.434  0.00  0.00    +0.000 C 
BRANCH  18  19
ATOM     19  C   UNL     1       1.057   3.953  18.732  0.00  0.00    +0.000 C 
BRANCH  19  20
ATOM     20  C   UNL     1       0.893   4.156  20.231  0.00  0.00    +0.000 C 
BRANCH  20  21
ATOM     21  C   UNL     1       2.236   4.136  20.964  0.00  0.00    +0.000 C 
BRANCH  21  22
ATOM     22  C   UNL     1       2.375   2.855  21.750  0.00  0.00    +0.000 C 
ATOM     23  O   UNL     1       3.413   2.211  21.841  0.00  0.00    +0.000 OA
BRANCH  22  24
ATOM     24  O   UNL     1       1.240   2.442  22.374  0.00  0.00    +0.000 OA
ATOM     25  H   UNL     1       0.803   1.672  21.979  0.00  0.00    +0.000 HD
ENDBRANCH  22  24
ENDBRANCH  21  22
ENDBRANCH  20  21
ENDBRANCH  19  20
ENDBRANCH  18  19
ENDBRANCH  17  18
ENDBRANCH  16  17
ENDBRANCH  15  16
ENDBRANCH  14  15
ENDBRANCH   1  14
TORSDOF 18
ENDMDL
MODEL 7
REMARK VINA RESULT:      -5.6      5.141      8.257
REMARK  Name = 
REMARK  19 active torsions:
REMARK  status: ('A' for Active; 'I' for Inactive)
REMARK    1  A    between atoms: C_1  and  C_2
REMARK    2  A    between atoms: C_2  and  C_3
REMARK    3  A    between atoms: C_3  and  C_4
REMARK    4  A    between atoms: C_4  and  C_5
REMARK    5  A    between atoms: C_5  and  C_6
REMARK    6  A    between atoms: C_6  and  O_7
REMARK    7  A    between atoms: C_6  and  C_8
REMARK    8  A    between atoms: C_9  and  C_10
REMARK    9  A    between atoms: C_11  and  C_12
REMARK   10  A    between atoms: C_12  and  C_13
REMARK   11  A    between atoms: C_13  and  C_14
REMARK   12  A    between atoms: C_14  and  C_15
REMARK   13  A    between atoms: C_15  and  C_16
REMARK   14  A    between atoms: C_16  and  C_17
REMARK   15  A    between atoms: C_17  and  C_18
REMARK   16  A    between atoms: C_18  and  C_19
REMARK   17  A    between atoms: C_19  and  C_20
REMARK   18  A    between atoms: C_20  and  C_21
REMARK   19  A    between atoms: C_21  and  O_23
REMARK                            x       y       z     vdW  Elec       q    Type
REMARK                         _______ _______ _______ _____ _____    ______ ____
ROOT
ATOM      1  C   UNL     1       7.115   5.676  18.247  0.00  0.00    +0.000 C 
ENDROOT
BRANCH   1   3
ATOM      2  C   UNL     1       7.673   8.043  17.802  0.00  0.00    +0.000 C 
ATOM      3  C   UNL     1       7.934   6.908  18.456  0.00  0.00    +0.000 C 
BRANCH   2   5
ATOM      4  C   UNL     1       9.242  10.351  18.237  0.00  0.00    +0.000 C 
ATOM      5  C   UNL     1       8.518   9.286  18.036  0.00  0.00    +0.000 C 
BRANCH   4   6
ATOM      6  C   UNL     1      10.059  11.551  18.455  0.00  0.00    +0.000 C 
BRANCH   6   7
ATOM      7  O   UNL     1      11.087  11.622  17.469  0.00  0.00    +0.000 OA
ATOM      8  H   UNL     1      10.648  11.682  16.604  0.00  0.00    +0.000 HD
ENDBRANCH   6   7
BRANCH   6   9
ATOM      9  C   UNL     1      10.683  11.528  19.849  0.00  0.00    +0.000 C 
BRANCH   9  10
ATOM     10  C   UNL     1       9.958  12.478  20.800  0.00  0.00    +0.000 C 
BRANCH  10  11
ATOM     11  C   UNL     1       8.915  11.724  21.612  0.00  0.00    +0.000 C 
BRANCH  11  13
ATOM     12  C   UNL     1       8.884  13.884  22.863  0.00  0.00    +0.000 C 
ATOM     13  C   UNL     1       8.057  12.693  22.418  0.00  0.00    +0.000 C 
ENDBRANCH  11  13
ENDBRANCH  10  11
ENDBRANCH   9  10
ENDBRANCH   6   9
ENDBRANCH   4   6
ENDBRANCH   2   5
ENDBRANCH   1   3
BRANCH   1  14
ATOM     14  C   UNL     1       6.081   5.890  17.152  0.00  0.00    +0.000 C 
BRANCH  14  15
ATOM     15  C   UNL     1       4.837   6.554  17.726  0.00  0.00    +0.000 C 
BRANCH  15  16
ATOM     16  C   UNL     1       3.635   5.636  17.571  0.00  0.00    +0.000 C 
BRANCH  16  17
ATOM     17  C   UNL     1       3.969   4.246  18.085  0.00  0.00    +0.000 C 
BRANCH  17  18
ATOM     18  C   UNL     1       3.188   3.195  17.311  0.00  0.00    +0.000 C 
BRANCH  18  19
ATOM     19  C   UNL     1       2.301   2.394  18.258  0.00  0.00    +0.000 C 
BRANCH  19  20
ATOM     20  C   UNL     1       1.212   3.283  18.841  0.00  0.00    +0.000 C 
BRANCH  20  21
ATOM     21  C   UNL     1       0.936   2.965  20.312  0.00  0.00    +0.000 C 
BRANCH  21  22
ATOM     22  C   UNL     1       2.012   3.570  21.181  0.00  0.00    +0.000 C 
ATOM     23  O   UNL     1       2.386   4.734  21.105  0.00  0.00    +0.000 OA
BRANCH  22  24
ATOM     24  O   UNL     1       2.560   2.718  22.088  0.00  0.00    +0.000 OA
ATOM     25  H   UNL     1       3.296   3.077  22.606  0.00  0.00    +0.000 HD
ENDBRANCH  22  24
ENDBRANCH  21  22
ENDBRANCH  20  21
ENDBRANCH  19  20
ENDBRANCH  18  19
ENDBRANCH  17  18
ENDBRANCH  16  17
ENDBRANCH  15  16
ENDBRANCH  14  15
ENDBRANCH   1  14
TORSDOF 18
ENDMDL
MODEL 8
REMARK VINA RESULT:      -5.6      5.925      8.980
REMARK  Name = 
REMARK  19 active torsions:
REMARK  status: ('A' for Active; 'I' for Inactive)
REMARK    1  A    between atoms: C_1  and  C_2
REMARK    2  A    between atoms: C_2  and  C_3
REMARK    3  A    between atoms: C_3  and  C_4
REMARK    4  A    between atoms: C_4  and  C_5
REMARK    5  A    between atoms: C_5  and  C_6
REMARK    6  A    between atoms: C_6  and  O_7
REMARK    7  A    between atoms: C_6  and  C_8
REMARK    8  A    between atoms: C_9  and  C_10
REMARK    9  A    between atoms: C_11  and  C_12
REMARK   10  A    between atoms: C_12  and  C_13
REMARK   11  A    between atoms: C_13  and  C_14
REMARK   12  A    between atoms: C_14  and  C_15
REMARK   13  A    between atoms: C_15  and  C_16
REMARK   14  A    between atoms: C_16  and  C_17
REMARK   15  A    between atoms: C_17  and  C_18
REMARK   16  A    between atoms: C_18  and  C_19
REMARK   17  A    between atoms: C_19  and  C_20
REMARK   18  A    between atoms: C_20  and  C_21
REMARK   19  A    between atoms: C_21  and  O_23
REMARK                            x       y       z     vdW  Elec       q    Type
REMARK                         _______ _______ _______ _____ _____    ______ ____
ROOT
ATOM      1  C   UNL     1       7.104   7.820  17.382  0.00  0.00    +0.000 C 
ENDROOT
BRANCH   1   3
ATOM      2  C   UNL     1       5.828   5.703  17.423  0.00  0.00    +0.000 C 
ATOM      3  C   UNL     1       6.504   6.645  18.085  0.00  0.00    +0.000 C 
BRANCH   2   5
ATOM      4  C   UNL     1       4.717   3.496  18.791  0.00  0.00    +0.000 C 
ATOM      5  C   UNL     1       5.230   4.515  18.160  0.00  0.00    +0.000 C 
BRANCH   4   6
ATOM      6  C   UNL     1       4.142   2.352  19.510  0.00  0.00    +0.000 C 
BRANCH   6   7
ATOM      7  O   UNL     1       5.167   1.412  19.824  0.00  0.00    +0.000 OA
ATOM      8  H   UNL     1       5.041   1.152  20.752  0.00  0.00    +0.000 HD
ENDBRANCH   6   7
BRANCH   6   9
ATOM      9  C   UNL     1       3.065   1.675  18.665  0.00  0.00    +0.000 C 
BRANCH   9  10
ATOM     10  C   UNL     1       1.758   2.465  18.690  0.00  0.00    +0.000 C 
BRANCH  10  11
ATOM     11  C   UNL     1       1.317   2.721  20.124  0.00  0.00    +0.000 C 
BRANCH  11  13
ATOM     12  C   UNL     1       2.016   5.035  20.747  0.00  0.00    +0.000 C 
ATOM     13  C   UNL     1       0.859   4.164  20.297  0.00  0.00    +0.000 C 
ENDBRANCH  11  13
ENDBRANCH  10  11
ENDBRANCH   9  10
ENDBRANCH   6   9
ENDBRANCH   4   6
ENDBRANCH   2   5
ENDBRANCH   1   3
BRANCH   1  14
ATOM     14  C   UNL     1       8.396   8.255  18.058  0.00  0.00    +0.000 C 
BRANCH  14  15
ATOM     15  C   UNL     1       8.476   9.774  18.112  0.00  0.00    +0.000 C 
BRANCH  15  16
ATOM     16  C   UNL     1       9.304  10.213  19.309  0.00  0.00    +0.000 C 
BRANCH  16  17
ATOM     17  C   UNL     1      10.374  11.200  18.873  0.00  0.00    +0.000 C 
BRANCH  17  18
ATOM     18  C   UNL     1      11.043  11.824  20.088  0.00  0.00    +0.000 C 
BRANCH  18  19
ATOM     19  C   UNL     1      10.208  12.988  20.609  0.00  0.00    +0.000 C 
BRANCH  19  20
ATOM     20  C   UNL     1      10.896  14.311  20.305  0.00  0.00    +0.000 C 
BRANCH  20  21
ATOM     21  C   UNL     1      10.030  15.222  19.433  0.00  0.00    +0.000 C 
BRANCH  21  22
ATOM     22  C   UNL     1      10.070  14.752  17.999  0.00  0.00    +0.000 C 
ATOM     23  O   UNL     1      11.061  14.806  17.282  0.00  0.00    +0.000 OA
BRANCH  22  24
ATOM     24  O   UNL     1       8.898  14.245  17.532  0.00  0.00    +0.000 OA
ATOM     25  H   UNL     1       8.968  13.406  17.051  0.00  0.00    +0.000 HD
ENDBRANCH  22  24
ENDBRANCH  21  22
ENDBRANCH  20  21
ENDBRANCH  19  20
ENDBRANCH  18  19
ENDBRANCH  17  18
ENDBRANCH  16  17
ENDBRANCH  15  16
ENDBRANCH  14  15
ENDBRANCH   1  14
TORSDOF 18
ENDMDL
MODEL 9
REMARK VINA RESULT:      -5.5      5.257      7.998
REMARK  Name = 
REMARK  19 active torsions:
REMARK  status: ('A' for Active; 'I' for Inactive)
REMARK    1  A    between atoms: C_1  and  C_2
REMARK    2  A    between atoms: C_2  and  C_3
REMARK    3  A    between atoms: C_3  and  C_4
REMARK    4  A    between atoms: C_4  and  C_5
REMARK    5  A    between atoms: C_5  and  C_6
REMARK    6  A    between atoms: C_6  and  O_7
REMARK    7  A    between atoms: C_6  and  C_8
REMARK    8  A    between atoms: C_9  and  C_10
REMARK    9  A    between atoms: C_11  and  C_12
REMARK   10  A    between atoms: C_12  and  C_13
REMARK   11  A    between atoms: C_13  and  C_14
REMARK   12  A    between atoms: C_14  and  C_15
REMARK   13  A    between atoms: C_15  and  C_16
REMARK   14  A    between atoms: C_16  and  C_17
REMARK   15  A    between atoms: C_17  and  C_18
REMARK   16  A    between atoms: C_18  and  C_19
REMARK   17  A    between atoms: C_19  and  C_20
REMARK   18  A    between atoms: C_20  and  C_21
REMARK   19  A    between atoms: C_21  and  O_23
REMARK                            x       y       z     vdW  Elec       q    Type
REMARK                         _______ _______ _______ _____ _____    ______ ____
ROOT
ATOM      1  C   UNL     1       6.574   5.965  16.947  0.00  0.00    +0.000 C 
ENDROOT
BRANCH   1   3
ATOM      2  C   UNL     1       7.851   7.672  18.198  0.00  0.00    +0.000 C 
ATOM      3  C   UNL     1       7.286   7.274  17.055  0.00  0.00    +0.000 C 
BRANCH   2   5
ATOM      4  C   UNL     1       9.194  10.152  18.354  0.00  0.00    +0.000 C 
ATOM      5  C   UNL     1       8.574   9.007  18.283  0.00  0.00    +0.000 C 
BRANCH   4   6
ATOM      6  C   UNL     1       9.898  11.437  18.439  0.00  0.00    +0.000 C 
BRANCH   6   7
ATOM      7  O   UNL     1      10.889  11.515  17.416  0.00  0.00    +0.000 OA
ATOM      8  H   UNL     1      11.686  11.077  17.758  0.00  0.00    +0.000 HD
ENDBRANCH   6   7
BRANCH   6   9
ATOM      9  C   UNL     1      10.558  11.597  19.807  0.00  0.00    +0.000 C 
BRANCH   9  10
ATOM     10  C   UNL     1      10.528  13.051  20.274  0.00  0.00    +0.000 C 
BRANCH  10  11
ATOM     11  C   UNL     1       9.189  13.691  19.939  0.00  0.00    +0.000 C 
BRANCH  11  13
ATOM     12  C   UNL     1       9.283  14.032  22.410  0.00  0.00    +0.000 C 
ATOM     13  C   UNL     1       8.370  13.920  21.204  0.00  0.00    +0.000 C 
ENDBRANCH  11  13
ENDBRANCH  10  11
ENDBRANCH   9  10
ENDBRANCH   6   9
ENDBRANCH   4   6
ENDBRANCH   2   5
ENDBRANCH   1   3
BRANCH   1  14
ATOM     14  C   UNL     1       5.294   5.972  17.770  0.00  0.00    +0.000 C 
BRANCH  14  15
ATOM     15  C   UNL     1       4.393   7.119  17.333  0.00  0.00    +0.000 C 
BRANCH  15  16
ATOM     16  C   UNL     1       2.966   6.867  17.792  0.00  0.00    +0.000 C 
BRANCH  16  17
ATOM     17  C   UNL     1       2.945   5.810  18.883  0.00  0.00    +0.000 C 
BRANCH  17  18
ATOM     18  C   UNL     1       1.780   4.855  18.673  0.00  0.00    +0.000 C 
BRANCH  18  19
ATOM     19  C   UNL     1       2.127   3.829  17.600  0.00  0.00    +0.000 C 
BRANCH  19  20
ATOM     20  C   UNL     1       2.077   2.423  18.179  0.00  0.00    +0.000 C 
BRANCH  20  21
ATOM     21  C   UNL     1       3.475   1.834  18.378  0.00  0.00    +0.000 C 
BRANCH  21  22
ATOM     22  C   UNL     1       4.086   2.376  19.648  0.00  0.00    +0.000 C 
ATOM     23  O   UNL     1       3.512   2.412  20.729  0.00  0.00    +0.000 OA
BRANCH  22  24
ATOM     24  O   UNL     1       5.358   2.837  19.517  0.00  0.00    +0.000 OA
ATOM     25  H   UNL     1       5.459   3.800  19.559  0.00  0.00    +0.000 HD
ENDBRANCH  22  24
ENDBRANCH  21  22
ENDBRANCH  20  21
ENDBRANCH  19  20
ENDBRANCH  18  19
ENDBRANCH  17  18
ENDBRANCH  16  17
ENDBRANCH  15  16
ENDBRANCH  14  15
ENDBRANCH   1  14
TORSDOF 18
ENDMDL
