MODEL 1
REMARK VINA RESULT:      -8.0      0.000      0.000
REMARK  Name = 
REMARK  5 active torsions:
REMARK  status: ('A' for Active; 'I' for Inactive)
REMARK    1  A    between atoms: C_1  and  C_2
REMARK    2  A    between atoms: C_7  and  C_8
REMARK    3  A    between atoms: C_8  and  N_9
REMARK    4  A    between atoms: C_10  and  C_12
REMARK    5  A    between atoms: C_16  and  C_17
REMARK                            x       y       z     vdW  Elec       q    Type
REMARK                         _______ _______ _______ _____ _____    ______ ____
ROOT
ATOM      1  C   UNL     1       4.861   4.937  18.623  0.00  0.00    +0.000 A 
ATOM      2  C   UNL     1       4.402   3.840  19.335  0.00  0.00    +0.000 A 
ATOM      3  N   UNL     1       3.235   3.861  20.028  0.00  0.00    +0.000 NA
ATOM      4  C   UNL     1       2.552   5.032  19.971  0.00  0.00    +0.000 A 
ATOM      5  C   UNL     1       3.002   6.156  19.271  0.00  0.00    +0.000 A 
ATOM      6  N   UNL     1       4.176   6.120  18.577  0.00  0.00    +0.000 NA
ENDROOT
BRANCH   5   7
ATOM      7  C   UNL     1       2.255   7.427  19.233  0.00  0.00    +0.000 A 
ATOM      8  C   UNL     1       2.112   8.168  18.043  0.00  0.00    +0.000 A 
ATOM      9  C   UNL     1       1.407   9.375  18.017  0.00  0.00    +0.000 A 
ATOM     10  C   UNL     1       0.830   9.866  19.183  0.00  0.00    +0.000 A 
ATOM     11 CL   UNL     1      -0.036  11.351  19.150  0.00  0.00    +0.000 Cl
ATOM     12  C   UNL     1       0.949   9.156  20.373  0.00  0.00    +0.000 A 
ATOM     13  C   UNL     1       1.654   7.947  20.396  0.00  0.00    +0.000 A 
ENDBRANCH   5   7
BRANCH   1  15
ATOM     14  N   UNL     1       6.048   5.258  16.527  0.00  0.00    +0.000 N 
ATOM     15  C   UNL     1       6.136   4.854  17.846  0.00  0.00    +0.000 C 
ATOM     16  O   UNL     1       7.169   4.443  18.371  0.00  0.00    +0.000 OA
ATOM     17  H   UNL     1       5.179   5.705  16.243  0.00  0.00    +0.000 HD
BRANCH  14  18
ATOM     18  C   UNL     1       7.177   5.262  15.616  0.00  0.00    +0.000 C 
BRANCH  18  25
ATOM     19  C   UNL     1       8.797   5.846  13.050  0.00  0.00    +0.000 C 
ATOM     20  C   UNL     1       7.573   4.970  13.072  0.00  0.00    +0.000 A 
ATOM     21  C   UNL     1       7.195   4.355  11.862  0.00  0.00    +0.000 A 
ATOM     22  C   UNL     1       6.094   3.505  11.795  0.00  0.00    +0.000 A 
ATOM     23  C   UNL     1       5.350   3.254  12.941  0.00  0.00    +0.000 A 
ATOM     24  C   UNL     1       5.712   3.854  14.151  0.00  0.00    +0.000 A 
ATOM     25  C   UNL     1       6.820   4.718  14.242  0.00  0.00    +0.000 A 
ENDBRANCH  18  25
ENDBRANCH  14  18
ENDBRANCH   1  15
TORSDOF 4
ENDMDL
MODEL 2
REMARK VINA RESULT:      -7.8      3.547      8.310
REMARK  Name = 
REMARK  5 active torsions:
REMARK  status: ('A' for Active; 'I' for Inactive)
REMARK    1  A    between atoms: C_1  and  C_2
REMARK    2  A    between atoms: C_7  and  C_8
REMARK    3  A    between atoms: C_8  and  N_9
REMARK    4  A    between atoms: C_10  and  C_12
REMARK    5  A    between atoms: C_16  and  C_17
REMARK                            x       y       z     vdW  Elec       q    Type
REMARK                         _______ _______ _______ _____ _____    ______ ____
ROOT
ATOM      1  C   UNL     1       1.996   6.834  20.119  0.00  0.00    +0.000 A 
ATOM      2  C   UNL     1       1.630   5.751  20.904  0.00  0.00    +0.000 A 
ATOM      3  N   UNL     1       2.069   4.492  20.654  0.00  0.00    +0.000 NA
ATOM      4  C   UNL     1       2.891   4.370  19.582  0.00  0.00    +0.000 A 
ATOM      5  C   UNL     1       3.263   5.445  18.767  0.00  0.00    +0.000 A 
ATOM      6  N   UNL     1       2.816   6.705  19.032  0.00  0.00    +0.000 NA
ENDROOT
BRANCH   5   7
ATOM      7  C   UNL     1       4.145   5.292  17.595  0.00  0.00    +0.000 A 
ATOM      8  C   UNL     1       4.584   4.027  17.157  0.00  0.00    +0.000 A 
ATOM      9  C   UNL     1       5.425   3.891  16.048  0.00  0.00    +0.000 A 
ATOM     10  C   UNL     1       5.843   5.021  15.354  0.00  0.00    +0.000 A 
ATOM     11 CL   UNL     1       6.877   4.852  13.991  0.00  0.00    +0.000 Cl
ATOM     12  C   UNL     1       5.422   6.284  15.756  0.00  0.00    +0.000 A 
ATOM     13  C   UNL     1       4.580   6.416  16.866  0.00  0.00    +0.000 A 
ENDBRANCH   5   7
BRANCH   1  15
ATOM     14  N   UNL     1       1.295   9.037  19.372  0.00  0.00    +0.000 N 
ATOM     15  C   UNL     1       1.515   8.209  20.456  0.00  0.00    +0.000 C 
ATOM     16  O   UNL     1       1.346   8.548  21.625  0.00  0.00    +0.000 OA
ATOM     17  H   UNL     1       1.338   8.606  18.451  0.00  0.00    +0.000 HD
BRANCH  14  18
ATOM     18  C   UNL     1       0.817  10.401  19.492  0.00  0.00    +0.000 C 
BRANCH  18  25
ATOM     19  C   UNL     1      -1.297  12.366  20.596  0.00  0.00    +0.000 C 
ATOM     20  C   UNL     1      -1.524  11.505  19.383  0.00  0.00    +0.000 A 
ATOM     21  C   UNL     1      -2.749  11.655  18.702  0.00  0.00    +0.000 A 
ATOM     22  C   UNL     1      -3.034  10.921  17.554  0.00  0.00    +0.000 A 
ATOM     23  C   UNL     1      -2.096  10.022  17.065  0.00  0.00    +0.000 A 
ATOM     24  C   UNL     1      -0.874   9.861  17.725  0.00  0.00    +0.000 A 
ATOM     25  C   UNL     1      -0.565  10.591  18.890  0.00  0.00    +0.000 A 
ENDBRANCH  18  25
ENDBRANCH  14  18
ENDBRANCH   1  15
TORSDOF 4
ENDMDL
MODEL 3
REMARK VINA RESULT:      -7.7      3.667      8.371
REMARK  Name = 
REMARK  5 active torsions:
REMARK  status: ('A' for Active; 'I' for Inactive)
REMARK    1  A    between atoms: C_1  and  C_2
REMARK    2  A    between atoms: C_7  and  C_8
REMARK    3  A    between atoms: C_8  and  N_9
REMARK    4  A    between atoms: C_10  and  C_12
REMARK    5  A    between atoms: C_16  and  C_17
REMARK                            x       y       z     vdW  Elec       q    Type
REMARK                         _______ _______ _______ _____ _____    ______ ____
ROOT
ATOM      1  C   UNL     1       1.926   7.142  20.085  0.00  0.00    +0.000 A 
ATOM      2  C   UNL     1       1.599   6.112  20.954  0.00  0.00    +0.000 A 
ATOM      3  N   UNL     1       2.067   4.849  20.792  0.00  0.00    +0.000 NA
ATOM      4  C   UNL     1       2.878   4.669  19.719  0.00  0.00    +0.000 A 
ATOM      5  C   UNL     1       3.210   5.688  18.821  0.00  0.00    +0.000 A 
ATOM      6  N   UNL     1       2.734   6.953  18.998  0.00  0.00    +0.000 NA
ENDROOT
BRANCH   5   7
ATOM      7  C   UNL     1       4.079   5.471  17.650  0.00  0.00    +0.000 A 
ATOM      8  C   UNL     1       4.596   6.546  16.899  0.00  0.00    +0.000 A 
ATOM      9  C   UNL     1       5.415   6.331  15.786  0.00  0.00    +0.000 A 
ATOM     10  C   UNL     1       5.734   5.034  15.402  0.00  0.00    +0.000 A 
ATOM     11 CL   UNL     1       6.741   4.771  14.033  0.00  0.00    +0.000 Cl
ATOM     12  C   UNL     1       5.245   3.950  16.125  0.00  0.00    +0.000 A 
ATOM     13  C   UNL     1       4.427   4.169  17.239  0.00  0.00    +0.000 A 
ENDBRANCH   5   7
BRANCH   1  15
ATOM     14  N   UNL     1       1.083   9.237  19.188  0.00  0.00    +0.000 N 
ATOM     15  C   UNL     1       1.414   8.526  20.326  0.00  0.00    +0.000 C 
ATOM     16  O   UNL     1       1.314   8.972  21.468  0.00  0.00    +0.000 OA
ATOM     17  H   UNL     1       1.078   8.720  18.312  0.00  0.00    +0.000 HD
BRANCH  14  18
ATOM     18  C   UNL     1       0.559  10.589  19.216  0.00  0.00    +0.000 C 
BRANCH  18  25
ATOM     19  C   UNL     1      -1.616  12.489  20.315  0.00  0.00    +0.000 C 
ATOM     20  C   UNL     1      -1.840  11.564  19.149  0.00  0.00    +0.000 A 
ATOM     21  C   UNL     1      -3.096  11.620  18.511  0.00  0.00    +0.000 A 
ATOM     22  C   UNL     1      -3.382  10.821  17.407  0.00  0.00    +0.000 A 
ATOM     23  C   UNL     1      -2.415   9.950  16.921  0.00  0.00    +0.000 A 
ATOM     24  C   UNL     1      -1.164   9.883  17.540  0.00  0.00    +0.000 A 
ATOM     25  C   UNL     1      -0.853  10.680  18.659  0.00  0.00    +0.000 A 
ENDBRANCH  18  25
ENDBRANCH  14  18
ENDBRANCH   1  15
TORSDOF 4
ENDMDL
MODEL 4
REMARK VINA RESULT:      -7.7      4.181      8.885
REMARK  Name = 
REMARK  5 active torsions:
REMARK  status: ('A' for Active; 'I' for Inactive)
REMARK    1  A    between atoms: C_1  and  C_2
REMARK    2  A    between atoms: C_7  and  C_8
REMARK    3  A    between atoms: C_8  and  N_9
REMARK    4  A    between atoms: C_10  and  C_12
REMARK    5  A    between atoms: C_16  and  C_17
REMARK                            x       y       z     vdW  Elec       q    Type
REMARK                         _______ _______ _______ _____ _____    ______ ____
ROOT
ATOM      1  C   UNL     1       1.811   8.351  19.115  0.00  0.00    +0.000 A 
ATOM      2  C   UNL     1       1.551   7.748  20.336  0.00  0.00    +0.000 A 
ATOM      3  N   UNL     1       2.045   6.527  20.663  0.00  0.00    +0.000 NA
ATOM      4  C   UNL     1       2.811   5.942  19.709  0.00  0.00    +0.000 A 
ATOM      5  C   UNL     1       3.076   6.524  18.465  0.00  0.00    +0.000 A 
ATOM      6  N   UNL     1       2.575   7.752  18.151  0.00  0.00    +0.000 NA
ENDROOT
BRANCH   5   7
ATOM      7  C   UNL     1       3.898   5.866  17.432  0.00  0.00    +0.000 A 
ATOM      8  C   UNL     1       3.941   4.463  17.302  0.00  0.00    +0.000 A 
ATOM      9  C   UNL     1       4.727   3.846  16.324  0.00  0.00    +0.000 A 
ATOM     10  C   UNL     1       5.487   4.622  15.455  0.00  0.00    +0.000 A 
ATOM     11 CL   UNL     1       6.454   3.862  14.253  0.00  0.00    +0.000 Cl
ATOM     12  C   UNL     1       5.462   6.009  15.554  0.00  0.00    +0.000 A 
ATOM     13  C   UNL     1       4.673   6.623  16.533  0.00  0.00    +0.000 A 
ENDBRANCH   5   7
BRANCH   1  15
ATOM     14  N   UNL     1       0.000   9.961  19.293  0.00  0.00    +0.000 N 
ATOM     15  C   UNL     1       1.273   9.713  18.815  0.00  0.00    +0.000 C 
ATOM     16  O   UNL     1       1.939  10.528  18.179  0.00  0.00    +0.000 OA
ATOM     17  H   UNL     1      -0.397   9.264  19.919  0.00  0.00    +0.000 HD
BRANCH  14  18
ATOM     18  C   UNL     1      -0.688  11.225  19.114  0.00  0.00    +0.000 C 
BRANCH  18  25
ATOM     19  C   UNL     1      -3.363  12.561  19.892  0.00  0.00    +0.000 C 
ATOM     20  C   UNL     1      -3.192  11.711  18.662  0.00  0.00    +0.000 A 
ATOM     21  C   UNL     1      -4.307  11.571  17.811  0.00  0.00    +0.000 A 
ATOM     22  C   UNL     1      -4.233  10.827  16.637  0.00  0.00    +0.000 A 
ATOM     23  C   UNL     1      -3.038  10.207  16.292  0.00  0.00    +0.000 A 
ATOM     24  C   UNL     1      -1.921  10.336  17.123  0.00  0.00    +0.000 A 
ATOM     25  C   UNL     1      -1.974  11.082  18.317  0.00  0.00    +0.000 A 
ENDBRANCH  18  25
ENDBRANCH  14  18
ENDBRANCH   1  15
TORSDOF 4
ENDMDL
MODEL 5
REMARK VINA RESULT:      -7.7      5.110      7.544
REMARK  Name = 
REMARK  5 active torsions:
REMARK  status: ('A' for Active; 'I' for Inactive)
REMARK    1  A    between atoms: C_1  and  C_2
REMARK    2  A    between atoms: C_7  and  C_8
REMARK    3  A    between atoms: C_8  and  N_9
REMARK    4  A    between atoms: C_10  and  C_12
REMARK    5  A    between atoms: C_16  and  C_17
REMARK                            x       y       z     vdW  Elec       q    Type
REMARK                         _______ _______ _______ _____ _____    ______ ____
ROOT
ATOM      1  C   UNL     1      -0.315  10.529  20.900  0.00  0.00    +0.000 A 
ATOM      2  C   UNL     1      -0.728  11.598  21.680  0.00  0.00    +0.000 A 
ATOM      3  N   UNL     1      -1.700  12.456  21.279  0.00  0.00    +0.000 NA
ATOM      4  C   UNL     1      -2.235  12.192  20.061  0.00  0.00    +0.000 A 
ATOM      5  C   UNL     1      -1.824  11.128  19.250  0.00  0.00    +0.000 A 
ATOM      6  N   UNL     1      -0.849  10.272  19.668  0.00  0.00    +0.000 NA
ENDROOT
BRANCH   5   7
ATOM      7  C   UNL     1      -2.406  10.865  17.921  0.00  0.00    +0.000 A 
ATOM      8  C   UNL     1      -3.611  11.467  17.506  0.00  0.00    +0.000 A 
ATOM      9  C   UNL     1      -4.159  11.207  16.246  0.00  0.00    +0.000 A 
ATOM     10  C   UNL     1      -3.511  10.339  15.375  0.00  0.00    +0.000 A 
ATOM     11 CL   UNL     1      -4.186  10.020  13.826  0.00  0.00    +0.000 Cl
ATOM     12  C   UNL     1      -2.317   9.733  15.752  0.00  0.00    +0.000 A 
ATOM     13  C   UNL     1      -1.770   9.996  17.013  0.00  0.00    +0.000 A 
ENDBRANCH   5   7
BRANCH   1  15
ATOM     14  N   UNL     1       1.035   8.537  20.556  0.00  0.00    +0.000 N 
ATOM     15  C   UNL     1       0.735   9.589  21.401  0.00  0.00    +0.000 C 
ATOM     16  O   UNL     1       1.267   9.764  22.496  0.00  0.00    +0.000 OA
ATOM     17  H   UNL     1       0.631   8.572  19.623  0.00  0.00    +0.000 HD
BRANCH  14  18
ATOM     18  C   UNL     1       2.032   7.529  20.859  0.00  0.00    +0.000 C 
BRANCH  18  25
ATOM     19  C   UNL     1       3.079   7.353  17.957  0.00  0.00    +0.000 C 
ATOM     20  C   UNL     1       2.398   6.209  18.660  0.00  0.00    +0.000 A 
ATOM     21  C   UNL     1       2.288   4.991  17.959  0.00  0.00    +0.000 A 
ATOM     22  C   UNL     1       1.700   3.871  18.541  0.00  0.00    +0.000 A 
ATOM     23  C   UNL     1       1.210   3.951  19.838  0.00  0.00    +0.000 A 
ATOM     24  C   UNL     1       1.311   5.149  20.550  0.00  0.00    +0.000 A 
ATOM     25  C   UNL     1       1.901   6.295  19.980  0.00  0.00    +0.000 A 
ENDBRANCH  18  25
ENDBRANCH  14  18
ENDBRANCH   1  15
TORSDOF 4
ENDMDL
MODEL 6
REMARK VINA RESULT:      -7.6      3.154      7.696
REMARK  Name = 
REMARK  5 active torsions:
REMARK  status: ('A' for Active; 'I' for Inactive)
REMARK    1  A    between atoms: C_1  and  C_2
REMARK    2  A    between atoms: C_7  and  C_8
REMARK    3  A    between atoms: C_8  and  N_9
REMARK    4  A    between atoms: C_10  and  C_12
REMARK    5  A    between atoms: C_16  and  C_17
REMARK                            x       y       z     vdW  Elec       q    Type
REMARK                         _______ _______ _______ _____ _____    ______ ____
ROOT
ATOM      1  C   UNL     1       2.589   3.831  19.232  0.00  0.00    +0.000 A 
ATOM      2  C   UNL     1       2.410   2.472  19.440  0.00  0.00    +0.000 A 
ATOM      3  N   UNL     1       3.087   1.533  18.732  0.00  0.00    +0.000 NA
ATOM      4  C   UNL     1       3.951   2.021  17.807  0.00  0.00    +0.000 A 
ATOM      5  C   UNL     1       4.138   3.387  17.569  0.00  0.00    +0.000 A 
ATOM      6  N   UNL     1       3.453   4.319  18.290  0.00  0.00    +0.000 NA
ENDROOT
BRANCH   5   7
ATOM      7  C   UNL     1       5.070   3.901  16.548  0.00  0.00    +0.000 A 
ATOM      8  C   UNL     1       4.771   3.835  15.172  0.00  0.00    +0.000 A 
ATOM      9  C   UNL     1       5.662   4.319  14.209  0.00  0.00    +0.000 A 
ATOM     10  C   UNL     1       6.871   4.879  14.605  0.00  0.00    +0.000 A 
ATOM     11 CL   UNL     1       7.967   5.473  13.420  0.00  0.00    +0.000 Cl
ATOM     12  C   UNL     1       7.194   4.964  15.955  0.00  0.00    +0.000 A 
ATOM     13  C   UNL     1       6.299   4.480  16.916  0.00  0.00    +0.000 A 
ENDBRANCH   5   7
BRANCH   1  15
ATOM     14  N   UNL     1       2.450   6.065  20.177  0.00  0.00    +0.000 N 
ATOM     15  C   UNL     1       1.846   4.827  20.063  0.00  0.00    +0.000 C 
ATOM     16  O   UNL     1       0.780   4.531  20.599  0.00  0.00    +0.000 OA
ATOM     17  H   UNL     1       3.257   6.236  19.580  0.00  0.00    +0.000 HD
BRANCH  14  18
ATOM     18  C   UNL     1       1.880   7.166  20.929  0.00  0.00    +0.000 C 
BRANCH  18  25
ATOM     19  C   UNL     1      -0.042   9.415  21.822  0.00  0.00    +0.000 C 
ATOM     20  C   UNL     1       0.587   9.360  20.455  0.00  0.00    +0.000 A 
ATOM     21  C   UNL     1       0.311  10.424  19.572  0.00  0.00    +0.000 A 
ATOM     22  C   UNL     1       0.871  10.471  18.299  0.00  0.00    +0.000 A 
ATOM     23  C   UNL     1       1.720   9.453  17.885  0.00  0.00    +0.000 A 
ATOM     24  C   UNL     1       2.007   8.391  18.747  0.00  0.00    +0.000 A 
ATOM     25  C   UNL     1       1.449   8.321  20.039  0.00  0.00    +0.000 A 
ENDBRANCH  18  25
ENDBRANCH  14  18
ENDBRANCH   1  15
TORSDOF 4
ENDMDL
MODEL 7
REMARK VINA RESULT:      -7.6      2.847      4.875
REMARK  Name = 
REMARK  5 active torsions:
REMARK  status: ('A' for Active; 'I' for Inactive)
REMARK    1  A    between atoms: C_1  and  C_2
REMARK    2  A    between atoms: C_7  and  C_8
REMARK    3  A    between atoms: C_8  and  N_9
REMARK    4  A    between atoms: C_10  and  C_12
REMARK    5  A    between atoms: C_16  and  C_17
REMARK                            x       y       z     vdW  Elec       q    Type
REMARK                         _______ _______ _______ _____ _____    ______ ____
ROOT
ATOM      1  C   UNL     1       1.948   8.178  19.143  0.00  0.00    +0.000 A 
ATOM      2  C   UNL     1       2.351   8.852  18.000  0.00  0.00    +0.000 A 
ATOM      3  N   UNL     1       1.954  10.121  17.727  0.00  0.00    +0.000 NA
ATOM      4  C   UNL     1       1.135  10.680  18.653  0.00  0.00    +0.000 A 
ATOM      5  C   UNL     1       0.703  10.014  19.805  0.00  0.00    +0.000 A 
ATOM      6  N   UNL     1       1.113   8.741  20.068  0.00  0.00    +0.000 NA
ENDROOT
BRANCH   5   7
ATOM      7  C   UNL     1      -0.201  10.631  20.793  0.00  0.00    +0.000 A 
ATOM      8  C   UNL     1      -0.259  10.181  22.128  0.00  0.00    +0.000 A 
ATOM      9  C   UNL     1      -1.124  10.767  23.057  0.00  0.00    +0.000 A 
ATOM     10  C   UNL     1      -1.949  11.818  22.669  0.00  0.00    +0.000 A 
ATOM     11 CL   UNL     1      -3.012  12.537  23.813  0.00  0.00    +0.000 Cl
ATOM     12  C   UNL     1      -1.911  12.289  21.361  0.00  0.00    +0.000 A 
ATOM     13  C   UNL     1      -1.044  11.701  20.434  0.00  0.00    +0.000 A 
ENDBRANCH   5   7
BRANCH   1  15
ATOM     14  N   UNL     1       3.254   6.254  18.438  0.00  0.00    +0.000 N 
ATOM     15  C   UNL     1       2.441   6.794  19.417  0.00  0.00    +0.000 C 
ATOM     16  O   UNL     1       2.121   6.203  20.447  0.00  0.00    +0.000 OA
ATOM     17  H   UNL     1       3.559   6.884  17.699  0.00  0.00    +0.000 HD
BRANCH  14  18
ATOM     18  C   UNL     1       3.840   4.930  18.527  0.00  0.00    +0.000 C 
BRANCH  18  25
ATOM     19  C   UNL     1       6.780   5.463  19.314  0.00  0.00    +0.000 C 
ATOM     20  C   UNL     1       6.366   4.974  17.952  0.00  0.00    +0.000 A 
ATOM     21  C   UNL     1       7.390   4.704  17.022  0.00  0.00    +0.000 A 
ATOM     22  C   UNL     1       7.101   4.221  15.748  0.00  0.00    +0.000 A 
ATOM     23  C   UNL     1       5.780   3.999  15.382  0.00  0.00    +0.000 A 
ATOM     24  C   UNL     1       4.752   4.258  16.292  0.00  0.00    +0.000 A 
ATOM     25  C   UNL     1       5.020   4.750  17.585  0.00  0.00    +0.000 A 
ENDBRANCH  18  25
ENDBRANCH  14  18
ENDBRANCH   1  15
TORSDOF 4
ENDMDL
MODEL 8
REMARK VINA RESULT:      -7.6      4.350      9.072
REMARK  Name = 
REMARK  5 active torsions:
REMARK  status: ('A' for Active; 'I' for Inactive)
REMARK    1  A    between atoms: C_1  and  C_2
REMARK    2  A    between atoms: C_7  and  C_8
REMARK    3  A    between atoms: C_8  and  N_9
REMARK    4  A    between atoms: C_10  and  C_12
REMARK    5  A    between atoms: C_16  and  C_17
REMARK                            x       y       z     vdW  Elec       q    Type
REMARK                         _______ _______ _______ _____ _____    ______ ____
ROOT
ATOM      1  C   UNL     1       1.725   8.772  18.993  0.00  0.00    +0.000 A 
ATOM      2  C   UNL     1       1.386   8.253  20.233  0.00  0.00    +0.000 A 
ATOM      3  N   UNL     1       1.805   7.031  20.648  0.00  0.00    +0.000 NA
ATOM      4  C   UNL     1       2.578   6.356  19.762  0.00  0.00    +0.000 A 
ATOM      5  C   UNL     1       2.922   6.852  18.500  0.00  0.00    +0.000 A 
ATOM      6  N   UNL     1       2.496   8.083  18.097  0.00  0.00    +0.000 NA
ENDROOT
BRANCH   5   7
ATOM      7  C   UNL     1       3.750   6.097  17.541  0.00  0.00    +0.000 A 
ATOM      8  C   UNL     1       4.608   6.746  16.630  0.00  0.00    +0.000 A 
ATOM      9  C   UNL     1       5.386   6.024  15.720  0.00  0.00    +0.000 A 
ATOM     10  C   UNL     1       5.321   4.635  15.704  0.00  0.00    +0.000 A 
ATOM     11 CL   UNL     1       6.278   3.747  14.584  0.00  0.00    +0.000 Cl
ATOM     12  C   UNL     1       4.489   3.964  16.594  0.00  0.00    +0.000 A 
ATOM     13  C   UNL     1       3.713   4.690  17.504  0.00  0.00    +0.000 A 
ENDBRANCH   5   7
BRANCH   1  15
ATOM     14  N   UNL     1      -0.083  10.378  18.758  0.00  0.00    +0.000 N 
ATOM     15  C   UNL     1       1.269  10.139  18.595  0.00  0.00    +0.000 C 
ATOM     16  O   UNL     1       2.064  10.965  18.151  0.00  0.00    +0.000 OA
ATOM     17  H   UNL     1      -0.615   9.670  19.258  0.00  0.00    +0.000 HD
BRANCH  14  18
ATOM     18  C   UNL     1      -0.713  11.645  18.440  0.00  0.00    +0.000 C 
BRANCH  18  25
ATOM     19  C   UNL     1      -3.098  12.570  20.173  0.00  0.00    +0.000 C 
ATOM     20  C   UNL     1      -3.260  11.930  18.821  0.00  0.00    +0.000 A 
ATOM     21  C   UNL     1      -4.571  11.800  18.318  0.00  0.00    +0.000 A 
ATOM     22  C   UNL     1      -4.813  11.246  17.064  0.00  0.00    +0.000 A 
ATOM     23  C   UNL     1      -3.746  10.810  16.289  0.00  0.00    +0.000 A 
ATOM     24  C   UNL     1      -2.439  10.932  16.770  0.00  0.00    +0.000 A 
ATOM     25  C   UNL     1      -2.170  11.487  18.037  0.00  0.00    +0.000 A 
ENDBRANCH  18  25
ENDBRANCH  14  18
ENDBRANCH   1  15
TORSDOF 4
ENDMDL
MODEL 9
REMARK VINA RESULT:      -7.5      2.875      5.192
REMARK  Name = 
REMARK  5 active torsions:
REMARK  status: ('A' for Active; 'I' for Inactive)
REMARK    1  A    between atoms: C_1  and  C_2
REMARK    2  A    between atoms: C_7  and  C_8
REMARK    3  A    between atoms: C_8  and  N_9
REMARK    4  A    between atoms: C_10  and  C_12
REMARK    5  A    between atoms: C_16  and  C_17
REMARK                            x       y       z     vdW  Elec       q    Type
REMARK                         _______ _______ _______ _____ _____    ______ ____
ROOT
ATOM      1  C   UNL     1       1.910   8.268  19.002  0.00  0.00    +0.000 A 
ATOM      2  C   UNL     1       2.353   9.021  17.926  0.00  0.00    +0.000 A 
ATOM      3  N   UNL     1       1.999  10.319  17.753  0.00  0.00    +0.000 NA
ATOM      4  C   UNL     1       1.181  10.825  18.710  0.00  0.00    +0.000 A 
ATOM      5  C   UNL     1       0.710  10.081  19.796  0.00  0.00    +0.000 A 
ATOM      6  N   UNL     1       1.076   8.778  19.958  0.00  0.00    +0.000 NA
ENDROOT
BRANCH   5   7
ATOM      7  C   UNL     1      -0.193  10.643  20.819  0.00  0.00    +0.000 A 
ATOM      8  C   UNL     1      -0.231  10.136  22.134  0.00  0.00    +0.000 A 
ATOM      9  C   UNL     1      -1.094  10.669  23.096  0.00  0.00    +0.000 A 
ATOM     10  C   UNL     1      -1.937  11.723  22.761  0.00  0.00    +0.000 A 
ATOM     11 CL   UNL     1      -2.998  12.378  23.945  0.00  0.00    +0.000 Cl
ATOM     12  C   UNL     1      -1.920  12.250  21.474  0.00  0.00    +0.000 A 
ATOM     13  C   UNL     1      -1.054  11.715  20.514  0.00  0.00    +0.000 A 
ENDBRANCH   5   7
BRANCH   1  15
ATOM     14  N   UNL     1       3.013   6.310  18.079  0.00  0.00    +0.000 N 
ATOM     15  C   UNL     1       2.357   6.851  19.168  0.00  0.00    +0.000 C 
ATOM     16  O   UNL     1       2.133   6.237  20.210  0.00  0.00    +0.000 OA
ATOM     17  H   UNL     1       3.260   6.952  17.329  0.00  0.00    +0.000 HD
BRANCH  14  18
ATOM     18  C   UNL     1       3.532   4.956  18.051  0.00  0.00    +0.000 C 
BRANCH  18  25
ATOM     19  C   UNL     1       5.270   4.119  15.637  0.00  0.00    +0.000 C 
ATOM     20  C   UNL     1       5.846   4.549  16.959  0.00  0.00    +0.000 A 
ATOM     21  C   UNL     1       7.251   4.614  17.063  0.00  0.00    +0.000 A 
ATOM     22  C   UNL     1       7.870   5.029  18.239  0.00  0.00    +0.000 A 
ATOM     23  C   UNL     1       7.095   5.387  19.334  0.00  0.00    +0.000 A 
ATOM     24  C   UNL     1       5.700   5.331  19.248  0.00  0.00    +0.000 A 
ATOM     25  C   UNL     1       5.052   4.912  18.070  0.00  0.00    +0.000 A 
ENDBRANCH  18  25
ENDBRANCH  14  18
ENDBRANCH   1  15
TORSDOF 4
ENDMDL
