MODEL 1
REMARK VINA RESULT:      -8.4      0.000      0.000
REMARK  Name = 
REMARK  6 active torsions:
REMARK  status: ('A' for Active; 'I' for Inactive)
REMARK    1  A    between atoms: C_2  and  C_5
REMARK    2  A    between atoms: N_3  and  O_4
REMARK    3  A    between atoms: C_8  and  C_9
REMARK    4  A    between atoms: C_10  and  C_11
REMARK    5  A    between atoms: C_15  and  C_16
REMARK    6  A    between atoms: C_19  and  C_20
REMARK                            x       y       z     vdW  Elec       q    Type
REMARK                         _______ _______ _______ _____ _____    ______ ____
ROOT
ATOM      1  C   UNL     1       7.929   7.437  17.953  0.00  0.00    +0.000 A 
ATOM      2  C   UNL     1       8.060   6.625  19.077  0.00  0.00    +0.000 A 
ATOM      3  C   UNL     1       7.699   5.295  18.973  0.00  0.00    +0.000 A 
ATOM      4  N   UNL     1       7.222   4.730  17.844  0.00  0.00    +0.000 NA
ATOM      5  C   UNL     1       7.081   5.518  16.750  0.00  0.00    +0.000 A 
ATOM      6  C   UNL     1       7.426   6.871  16.779  0.00  0.00    +0.000 A 
ENDROOT
BRANCH   5   7
ATOM      7  C   UNL     1       6.582   4.851  15.529  0.00  0.00    +0.000 A 
ATOM      8  C   UNL     1       5.324   4.221  15.480  0.00  0.00    +0.000 A 
ATOM      9  C   UNL     1       4.834   3.660  14.295  0.00  0.00    +0.000 A 
ATOM     10  C   UNL     1       5.594   3.703  13.120  0.00  0.00    +0.000 A 
ATOM     11  C   UNL     1       6.866   4.286  13.164  0.00  0.00    +0.000 A 
ATOM     12  C   UNL     1       7.350   4.845  14.351  0.00  0.00    +0.000 A 
BRANCH  10  13
ATOM     13  C   UNL     1       5.060   3.147  11.823  0.00  0.00    +0.000 C 
ATOM     14  F   UNL     1       5.644   1.972  11.455  0.00  0.00    +0.000 F 
ATOM     15  F   UNL     1       3.723   2.894  11.880  0.00  0.00    +0.000 F 
ATOM     16  F   UNL     1       5.237   3.996  10.774  0.00  0.00    +0.000 F 
ENDBRANCH  10  13
ENDBRANCH   5   7
BRANCH   1  18
ATOM     17  C   UNL     1       9.014   9.484  18.871  0.00  0.00    +0.000 C 
ATOM     18  C   UNL     1       8.208   8.879  17.983  0.00  0.00    +0.000 C 
BRANCH  17  22
ATOM     19  C   UNL     1       9.585  13.729  18.989  0.00  0.00    +0.000 A 
ATOM     20  C   UNL     1       9.092  13.106  17.839  0.00  0.00    +0.000 A 
ATOM     21  C   UNL     1       8.901  11.720  17.824  0.00  0.00    +0.000 A 
ATOM     22  C   UNL     1       9.197  10.942  18.953  0.00  0.00    +0.000 A 
ATOM     23  C   UNL     1       9.639  11.587  20.118  0.00  0.00    +0.000 A 
ATOM     24  C   UNL     1       9.840  12.968  20.135  0.00  0.00    +0.000 A 
BRANCH  19  26
ATOM     25  O   UNL     1      10.284  15.781  19.947  0.00  0.00    +0.000 OA
ATOM     26  C   UNL     1       9.805  15.198  18.982  0.00  0.00    +0.000 C 
ATOM     27  N   UNL     1       9.396  15.856  17.842  0.00  0.00    +0.000 N 
ATOM     28  H   UNL     1       8.697  15.473  17.215  0.00  0.00    +0.000 HD
BRANCH  27  29
ATOM     29  O   UNL     1       9.485  17.266  17.890  0.00  0.00    +0.000 OA
ATOM     30  H   UNL     1       9.582  17.501  16.941  0.00  0.00    +0.000 HD
ENDBRANCH  27  29
ENDBRANCH  19  26
ENDBRANCH  17  22
ENDBRANCH   1  18
TORSDOF 6
ENDMDL
MODEL 2
REMARK VINA RESULT:      -8.4     10.289     12.281
REMARK  Name = 
REMARK  6 active torsions:
REMARK  status: ('A' for Active; 'I' for Inactive)
REMARK    1  A    between atoms: C_2  and  C_5
REMARK    2  A    between atoms: N_3  and  O_4
REMARK    3  A    between atoms: C_8  and  C_9
REMARK    4  A    between atoms: C_10  and  C_11
REMARK    5  A    between atoms: C_15  and  C_16
REMARK    6  A    between atoms: C_19  and  C_20
REMARK                            x       y       z     vdW  Elec       q    Type
REMARK                         _______ _______ _______ _____ _____    ______ ____
ROOT
ATOM      1  C   UNL     1       1.063  10.119  18.879  0.00  0.00    +0.000 A 
ATOM      2  C   UNL     1       1.811  11.286  18.748  0.00  0.00    +0.000 A 
ATOM      3  C   UNL     1       1.141  12.472  18.509  0.00  0.00    +0.000 A 
ATOM      4  N   UNL     1      -0.199  12.570  18.389  0.00  0.00    +0.000 NA
ATOM      5  C   UNL     1      -0.931  11.434  18.503  0.00  0.00    +0.000 A 
ATOM      6  C   UNL     1      -0.326  10.200  18.747  0.00  0.00    +0.000 A 
ENDROOT
BRANCH   5   7
ATOM      7  C   UNL     1      -2.397  11.594  18.393  0.00  0.00    +0.000 A 
ATOM      8  C   UNL     1      -3.178  12.093  19.451  0.00  0.00    +0.000 A 
ATOM      9  C   UNL     1      -4.553  12.310  19.305  0.00  0.00    +0.000 A 
ATOM     10  C   UNL     1      -5.194  12.023  18.093  0.00  0.00    +0.000 A 
ATOM     11  C   UNL     1      -4.438  11.483  17.046  0.00  0.00    +0.000 A 
ATOM     12  C   UNL     1      -3.064  11.269  17.198  0.00  0.00    +0.000 A 
BRANCH  10  13
ATOM     13  C   UNL     1      -6.665  12.296  17.903  0.00  0.00    +0.000 C 
ATOM     14  F   UNL     1      -6.992  12.652  16.629  0.00  0.00    +0.000 F 
ATOM     15  F   UNL     1      -7.435  11.211  18.193  0.00  0.00    +0.000 F 
ATOM     16  F   UNL     1      -7.121  13.303  18.699  0.00  0.00    +0.000 F 
ENDBRANCH  10  13
ENDBRANCH   5   7
BRANCH   1  18
ATOM     17  C   UNL     1       2.098   8.009  18.050  0.00  0.00    +0.000 C 
ATOM     18  C   UNL     1       1.683   8.799  19.054  0.00  0.00    +0.000 C 
BRANCH  17  22
ATOM     19  C   UNL     1       3.496   4.001  18.628  0.00  0.00    +0.000 A 
ATOM     20  C   UNL     1       2.250   4.246  18.045  0.00  0.00    +0.000 A 
ATOM     21  C   UNL     1       1.816   5.561  17.854  0.00  0.00    +0.000 A 
ATOM     22  C   UNL     1       2.618   6.646  18.239  0.00  0.00    +0.000 A 
ATOM     23  C   UNL     1       3.890   6.386  18.771  0.00  0.00    +0.000 A 
ATOM     24  C   UNL     1       4.324   5.075  18.973  0.00  0.00    +0.000 A 
BRANCH  19  26
ATOM     25  O   UNL     1       3.374   1.657  18.296  0.00  0.00    +0.000 OA
ATOM     26  C   UNL     1       3.933   2.598  18.847  0.00  0.00    +0.000 C 
ATOM     27  N   UNL     1       4.972   2.429  19.736  0.00  0.00    +0.000 N 
ATOM     28  H   UNL     1       5.194   3.116  20.448  0.00  0.00    +0.000 HD
BRANCH  27  29
ATOM     29  O   UNL     1       5.298   1.088  20.041  0.00  0.00    +0.000 OA
ATOM     30  H   UNL     1       5.333   1.100  21.023  0.00  0.00    +0.000 HD
ENDBRANCH  27  29
ENDBRANCH  19  26
ENDBRANCH  17  22
ENDBRANCH   1  18
TORSDOF 6
ENDMDL
MODEL 3
REMARK VINA RESULT:      -8.3      9.426     12.268
REMARK  Name = 
REMARK  6 active torsions:
REMARK  status: ('A' for Active; 'I' for Inactive)
REMARK    1  A    between atoms: C_2  and  C_5
REMARK    2  A    between atoms: N_3  and  O_4
REMARK    3  A    between atoms: C_8  and  C_9
REMARK    4  A    between atoms: C_10  and  C_11
REMARK    5  A    between atoms: C_15  and  C_16
REMARK    6  A    between atoms: C_19  and  C_20
REMARK                            x       y       z     vdW  Elec       q    Type
REMARK                         _______ _______ _______ _____ _____    ______ ____
ROOT
ATOM      1  C   UNL     1       0.263   9.373  21.580  0.00  0.00    +0.000 A 
ATOM      2  C   UNL     1      -0.569   9.631  22.667  0.00  0.00    +0.000 A 
ATOM      3  C   UNL     1      -0.837  10.948  22.991  0.00  0.00    +0.000 A 
ATOM      4  N   UNL     1      -0.338  12.006  22.320  0.00  0.00    +0.000 NA
ATOM      5  C   UNL     1       0.483  11.761  21.269  0.00  0.00    +0.000 A 
ATOM      6  C   UNL     1       0.798  10.458  20.881  0.00  0.00    +0.000 A 
ENDROOT
BRANCH   5   7
ATOM      7  C   UNL     1       0.984  12.950  20.546  0.00  0.00    +0.000 A 
ATOM      8  C   UNL     1       2.325  13.366  20.628  0.00  0.00    +0.000 A 
ATOM      9  C   UNL     1       2.801  14.448  19.877  0.00  0.00    +0.000 A 
ATOM     10  C   UNL     1       1.943  15.156  19.026  0.00  0.00    +0.000 A 
ATOM     11  C   UNL     1       0.596  14.781  18.969  0.00  0.00    +0.000 A 
ATOM     12  C   UNL     1       0.127  13.699  19.720  0.00  0.00    +0.000 A 
BRANCH  10  13
ATOM     13  C   UNL     1       2.451  16.292  18.174  0.00  0.00    +0.000 C 
ATOM     14  F   UNL     1       1.457  17.061  17.646  0.00  0.00    +0.000 F 
ATOM     15  F   UNL     1       3.248  17.147  18.873  0.00  0.00    +0.000 F 
ATOM     16  F   UNL     1       3.195  15.866  17.116  0.00  0.00    +0.000 F 
ENDBRANCH  10  13
ENDBRANCH   5   7
BRANCH   1  18
ATOM     17  C   UNL     1       1.759   7.717  20.470  0.00  0.00    +0.000 C 
ATOM     18  C   UNL     1       0.674   8.013  21.204  0.00  0.00    +0.000 C 
BRANCH  17  22
ATOM     19  C   UNL     1       2.745   3.808  19.022  0.00  0.00    +0.000 A 
ATOM     20  C   UNL     1       3.336   4.945  18.466  0.00  0.00    +0.000 A 
ATOM     21  C   UNL     1       3.010   6.213  18.960  0.00  0.00    +0.000 A 
ATOM     22  C   UNL     1       2.095   6.360  20.013  0.00  0.00    +0.000 A 
ATOM     23  C   UNL     1       1.552   5.206  20.599  0.00  0.00    +0.000 A 
ATOM     24  C   UNL     1       1.867   3.940  20.103  0.00  0.00    +0.000 A 
BRANCH  19  26
ATOM     25  O   UNL     1       2.391   1.933  17.614  0.00  0.00    +0.000 OA
ATOM     26  C   UNL     1       3.084   2.470  18.471  0.00  0.00    +0.000 C 
ATOM     27  N   UNL     1       4.195   1.865  19.017  0.00  0.00    +0.000 N 
ATOM     28  H   UNL     1       4.550   2.109  19.934  0.00  0.00    +0.000 HD
BRANCH  27  29
ATOM     29  O   UNL     1       4.438   0.540  18.585  0.00  0.00    +0.000 OA
ATOM     30  H   UNL     1       5.356   0.600  18.240  0.00  0.00    +0.000 HD
ENDBRANCH  27  29
ENDBRANCH  19  26
ENDBRANCH  17  22
ENDBRANCH   1  18
TORSDOF 6
ENDMDL
MODEL 4
REMARK VINA RESULT:      -8.3     10.258     12.291
REMARK  Name = 
REMARK  6 active torsions:
REMARK  status: ('A' for Active; 'I' for Inactive)
REMARK    1  A    between atoms: C_2  and  C_5
REMARK    2  A    between atoms: N_3  and  O_4
REMARK    3  A    between atoms: C_8  and  C_9
REMARK    4  A    between atoms: C_10  and  C_11
REMARK    5  A    between atoms: C_15  and  C_16
REMARK    6  A    between atoms: C_19  and  C_20
REMARK                            x       y       z     vdW  Elec       q    Type
REMARK                         _______ _______ _______ _____ _____    ______ ____
ROOT
ATOM      1  C   UNL     1       1.143  10.261  18.776  0.00  0.00    +0.000 A 
ATOM      2  C   UNL     1       1.864  11.443  18.631  0.00  0.00    +0.000 A 
ATOM      3  C   UNL     1       1.165  12.620  18.433  0.00  0.00    +0.000 A 
ATOM      4  N   UNL     1      -0.180  12.695  18.368  0.00  0.00    +0.000 NA
ATOM      5  C   UNL     1      -0.888  11.545  18.496  0.00  0.00    +0.000 A 
ATOM      6  C   UNL     1      -0.251  10.319  18.700  0.00  0.00    +0.000 A 
ENDROOT
BRANCH   5   7
ATOM      7  C   UNL     1      -2.359  11.679  18.446  0.00  0.00    +0.000 A 
ATOM      8  C   UNL     1      -3.116  11.226  17.350  0.00  0.00    +0.000 A 
ATOM      9  C   UNL     1      -4.514  11.292  17.352  0.00  0.00    +0.000 A 
ATOM     10  C   UNL     1      -5.201  11.823  18.451  0.00  0.00    +0.000 A 
ATOM     11  C   UNL     1      -4.459  12.319  19.529  0.00  0.00    +0.000 A 
ATOM     12  C   UNL     1      -3.062  12.251  19.522  0.00  0.00    +0.000 A 
BRANCH  10  13
ATOM     13  C   UNL     1      -6.708  11.856  18.489  0.00  0.00    +0.000 C 
ATOM     14  F   UNL     1      -7.263  10.731  19.023  0.00  0.00    +0.000 F 
ATOM     15  F   UNL     1      -7.185  12.892  19.232  0.00  0.00    +0.000 F 
ATOM     16  F   UNL     1      -7.264  11.994  17.253  0.00  0.00    +0.000 F 
ENDBRANCH  10  13
ENDBRANCH   5   7
BRANCH   1  18
ATOM     17  C   UNL     1       1.941   8.065  17.910  0.00  0.00    +0.000 C 
ATOM     18  C   UNL     1       1.793   8.950  18.909  0.00  0.00    +0.000 C 
BRANCH  17  22
ATOM     19  C   UNL     1       3.450   4.094  18.466  0.00  0.00    +0.000 A 
ATOM     20  C   UNL     1       2.141   4.306  18.025  0.00  0.00    +0.000 A 
ATOM     21  C   UNL     1       1.670   5.609  17.839  0.00  0.00    +0.000 A 
ATOM     22  C   UNL     1       2.498   6.715  18.086  0.00  0.00    +0.000 A 
ATOM     23  C   UNL     1       3.827   6.486  18.474  0.00  0.00    +0.000 A 
ATOM     24  C   UNL     1       4.299   5.188  18.670  0.00  0.00    +0.000 A 
BRANCH  19  26
ATOM     25  O   UNL     1       3.456   1.758  18.063  0.00  0.00    +0.000 OA
ATOM     26  C   UNL     1       3.928   2.704  18.682  0.00  0.00    +0.000 C 
ATOM     27  N   UNL     1       4.899   2.552  19.648  0.00  0.00    +0.000 N 
ATOM     28  H   UNL     1       5.034   3.226  20.393  0.00  0.00    +0.000 HD
BRANCH  27  29
ATOM     29  O   UNL     1       5.258   1.216  19.943  0.00  0.00    +0.000 OA
ATOM     30  H   UNL     1       5.955   1.334  20.625  0.00  0.00    +0.000 HD
ENDBRANCH  27  29
ENDBRANCH  19  26
ENDBRANCH  17  22
ENDBRANCH   1  18
TORSDOF 6
ENDMDL
MODEL 5
REMARK VINA RESULT:      -8.3      0.238      1.181
REMARK  Name = 
REMARK  6 active torsions:
REMARK  status: ('A' for Active; 'I' for Inactive)
REMARK    1  A    between atoms: C_2  and  C_5
REMARK    2  A    between atoms: N_3  and  O_4
REMARK    3  A    between atoms: C_8  and  C_9
REMARK    4  A    between atoms: C_10  and  C_11
REMARK    5  A    between atoms: C_15  and  C_16
REMARK    6  A    between atoms: C_19  and  C_20
REMARK                            x       y       z     vdW  Elec       q    Type
REMARK                         _______ _______ _______ _____ _____    ______ ____
ROOT
ATOM      1  C   UNL     1       7.908   7.442  17.933  0.00  0.00    +0.000 A 
ATOM      2  C   UNL     1       8.035   6.623  19.052  0.00  0.00    +0.000 A 
ATOM      3  C   UNL     1       7.664   5.296  18.941  0.00  0.00    +0.000 A 
ATOM      4  N   UNL     1       7.181   4.740  17.811  0.00  0.00    +0.000 NA
ATOM      5  C   UNL     1       7.043   5.536  16.721  0.00  0.00    +0.000 A 
ATOM      6  C   UNL     1       7.398   6.885  16.757  0.00  0.00    +0.000 A 
ENDROOT
BRANCH   5   7
ATOM      7  C   UNL     1       6.537   4.878  15.498  0.00  0.00    +0.000 A 
ATOM      8  C   UNL     1       5.296   4.216  15.462  0.00  0.00    +0.000 A 
ATOM      9  C   UNL     1       4.796   3.665  14.276  0.00  0.00    +0.000 A 
ATOM     10  C   UNL     1       5.530   3.750  13.087  0.00  0.00    +0.000 A 
ATOM     11  C   UNL     1       6.787   4.366  13.117  0.00  0.00    +0.000 A 
ATOM     12  C   UNL     1       7.281   4.915  14.305  0.00  0.00    +0.000 A 
BRANCH  10  13
ATOM     13  C   UNL     1       4.985   3.205  11.791  0.00  0.00    +0.000 C 
ATOM     14  F   UNL     1       5.155   4.046  10.732  0.00  0.00    +0.000 F 
ATOM     15  F   UNL     1       5.579   2.034  11.431  0.00  0.00    +0.000 F 
ATOM     16  F   UNL     1       3.649   2.945  11.849  0.00  0.00    +0.000 F 
ENDBRANCH  10  13
ENDBRANCH   5   7
BRANCH   1  18
ATOM     17  C   UNL     1       9.001   9.478  18.865  0.00  0.00    +0.000 C 
ATOM     18  C   UNL     1       8.197   8.882  17.969  0.00  0.00    +0.000 C 
BRANCH  17  22
ATOM     19  C   UNL     1       9.528  13.713  19.242  0.00  0.00    +0.000 A 
ATOM     20  C   UNL     1       9.845  12.857  20.299  0.00  0.00    +0.000 A 
ATOM     21  C   UNL     1       9.677  11.476  20.154  0.00  0.00    +0.000 A 
ATOM     22  C   UNL     1       9.195  10.934  18.953  0.00  0.00    +0.000 A 
ATOM     23  C   UNL     1       8.934  11.800  17.881  0.00  0.00    +0.000 A 
ATOM     24  C   UNL     1       9.091  13.179  18.024  0.00  0.00    +0.000 A 
BRANCH  19  26
ATOM     25  O   UNL     1      10.130  15.656  20.459  0.00  0.00    +0.000 OA
ATOM     26  C   UNL     1       9.690  15.179  19.420  0.00  0.00    +0.000 C 
ATOM     27  N   UNL     1       9.273  15.957  18.362  0.00  0.00    +0.000 N 
ATOM     28  H   UNL     1       8.599  15.629  17.679  0.00  0.00    +0.000 HD
BRANCH  27  29
ATOM     29  O   UNL     1       9.305  17.353  18.585  0.00  0.00    +0.000 OA
ATOM     30  H   UNL     1       9.835  17.673  17.822  0.00  0.00    +0.000 HD
ENDBRANCH  27  29
ENDBRANCH  19  26
ENDBRANCH  17  22
ENDBRANCH   1  18
TORSDOF 6
ENDMDL
MODEL 6
REMARK VINA RESULT:      -8.3      1.014      1.191
REMARK  Name = 
REMARK  6 active torsions:
REMARK  status: ('A' for Active; 'I' for Inactive)
REMARK    1  A    between atoms: C_2  and  C_5
REMARK    2  A    between atoms: N_3  and  O_4
REMARK    3  A    between atoms: C_8  and  C_9
REMARK    4  A    between atoms: C_10  and  C_11
REMARK    5  A    between atoms: C_15  and  C_16
REMARK    6  A    between atoms: C_19  and  C_20
REMARK                            x       y       z     vdW  Elec       q    Type
REMARK                         _______ _______ _______ _____ _____    ______ ____
ROOT
ATOM      1  C   UNL     1       8.082   7.210  18.571  0.00  0.00    +0.000 A 
ATOM      2  C   UNL     1       7.916   6.396  19.688  0.00  0.00    +0.000 A 
ATOM      3  C   UNL     1       7.374   5.136  19.510  0.00  0.00    +0.000 A 
ATOM      4  N   UNL     1       6.989   4.644  18.314  0.00  0.00    +0.000 NA
ATOM      5  C   UNL     1       7.136   5.437  17.224  0.00  0.00    +0.000 A 
ATOM      6  C   UNL     1       7.678   6.720  17.326  0.00  0.00    +0.000 A 
ENDROOT
BRANCH   5   7
ATOM      7  C   UNL     1       6.727   4.847  15.932  0.00  0.00    +0.000 A 
ATOM      8  C   UNL     1       5.584   4.036  15.807  0.00  0.00    +0.000 A 
ATOM      9  C   UNL     1       5.168   3.548  14.563  0.00  0.00    +0.000 A 
ATOM     10  C   UNL     1       5.891   3.847  13.402  0.00  0.00    +0.000 A 
ATOM     11  C   UNL     1       7.056   4.615  13.517  0.00  0.00    +0.000 A 
ATOM     12  C   UNL     1       7.467   5.101  14.763  0.00  0.00    +0.000 A 
BRANCH  10  13
ATOM     13  C   UNL     1       5.430   3.370  12.048  0.00  0.00    +0.000 C 
ATOM     14  F   UNL     1       6.069   3.979  11.010  0.00  0.00    +0.000 F 
ATOM     15  F   UNL     1       5.631   2.034  11.874  0.00  0.00    +0.000 F 
ATOM     16  F   UNL     1       4.100   3.579  11.841  0.00  0.00    +0.000 F 
ENDBRANCH  10  13
ENDBRANCH   5   7
BRANCH   1  18
ATOM     17  C   UNL     1       8.282   9.567  17.790  0.00  0.00    +0.000 C 
ATOM     18  C   UNL     1       8.573   8.591  18.665  0.00  0.00    +0.000 C 
BRANCH  17  22
ATOM     19  C   UNL     1       9.915  13.528  17.842  0.00  0.00    +0.000 A 
ATOM     20  C   UNL     1       8.561  13.317  17.569  0.00  0.00    +0.000 A 
ATOM     21  C   UNL     1       8.044  12.018  17.568  0.00  0.00    +0.000 A 
ATOM     22  C   UNL     1       8.869  10.916  17.841  0.00  0.00    +0.000 A 
ATOM     23  C   UNL     1      10.213  11.147  18.168  0.00  0.00    +0.000 A 
ATOM     24  C   UNL     1      10.736  12.441  18.161  0.00  0.00    +0.000 A 
BRANCH  19  26
ATOM     25  O   UNL     1      11.051  15.388  18.774  0.00  0.00    +0.000 OA
ATOM     26  C   UNL     1      10.455  14.912  17.816  0.00  0.00    +0.000 C 
ATOM     27  N   UNL     1      10.201  15.629  16.666  0.00  0.00    +0.000 N 
ATOM     28  H   UNL     1       9.435  15.402  16.043  0.00  0.00    +0.000 HD
BRANCH  27  29
ATOM     29  O   UNL     1      10.601  16.985  16.696  0.00  0.00    +0.000 OA
ATOM     30  H   UNL     1      11.546  16.918  16.956  0.00  0.00    +0.000 HD
ENDBRANCH  27  29
ENDBRANCH  19  26
ENDBRANCH  17  22
ENDBRANCH   1  18
TORSDOF 6
ENDMDL
MODEL 7
REMARK VINA RESULT:      -8.3      0.686      1.205
REMARK  Name = 
REMARK  6 active torsions:
REMARK  status: ('A' for Active; 'I' for Inactive)
REMARK    1  A    between atoms: C_2  and  C_5
REMARK    2  A    between atoms: N_3  and  O_4
REMARK    3  A    between atoms: C_8  and  C_9
REMARK    4  A    between atoms: C_10  and  C_11
REMARK    5  A    between atoms: C_15  and  C_16
REMARK    6  A    between atoms: C_19  and  C_20
REMARK                            x       y       z     vdW  Elec       q    Type
REMARK                         _______ _______ _______ _____ _____    ______ ____
ROOT
ATOM      1  C   UNL     1       7.978   7.525  17.980  0.00  0.00    +0.000 A 
ATOM      2  C   UNL     1       8.091   6.730  19.117  0.00  0.00    +0.000 A 
ATOM      3  C   UNL     1       7.703   5.406  19.035  0.00  0.00    +0.000 A 
ATOM      4  N   UNL     1       7.215   4.831  17.917  0.00  0.00    +0.000 NA
ATOM      5  C   UNL     1       7.090   5.604  16.809  0.00  0.00    +0.000 A 
ATOM      6  C   UNL     1       7.463   6.949  16.815  0.00  0.00    +0.000 A 
ENDROOT
BRANCH   5   7
ATOM      7  C   UNL     1       6.578   4.926  15.599  0.00  0.00    +0.000 A 
ATOM      8  C   UNL     1       5.299   4.341  15.553  0.00  0.00    +0.000 A 
ATOM      9  C   UNL     1       4.799   3.770  14.377  0.00  0.00    +0.000 A 
ATOM     10  C   UNL     1       5.570   3.758  13.208  0.00  0.00    +0.000 A 
ATOM     11  C   UNL     1       6.862   4.295  13.251  0.00  0.00    +0.000 A 
ATOM     12  C   UNL     1       7.356   4.865  14.429  0.00  0.00    +0.000 A 
BRANCH  10  13
ATOM     13  C   UNL     1       5.028   3.191  11.920  0.00  0.00    +0.000 C 
ATOM     14  F   UNL     1       5.509   1.950  11.627  0.00  0.00    +0.000 F 
ATOM     15  F   UNL     1       3.672   3.066  11.940  0.00  0.00    +0.000 F 
ATOM     16  F   UNL     1       5.317   3.967  10.839  0.00  0.00    +0.000 F 
ENDBRANCH  10  13
ENDBRANCH   5   7
BRANCH   1  18
ATOM     17  C   UNL     1       9.075   9.571  18.885  0.00  0.00    +0.000 C 
ATOM     18  C   UNL     1       8.286   8.961  17.985  0.00  0.00    +0.000 C 
BRANCH  17  22
ATOM     19  C   UNL     1       9.677  13.803  19.166  0.00  0.00    +0.000 A 
ATOM     20  C   UNL     1      10.178  12.944  20.147  0.00  0.00    +0.000 A 
ATOM     21  C   UNL     1       9.981  11.564  20.032  0.00  0.00    +0.000 A 
ATOM     22  C   UNL     1       9.287  11.026  18.939  0.00  0.00    +0.000 A 
ATOM     23  C   UNL     1       8.838  11.895  17.934  0.00  0.00    +0.000 A 
ATOM     24  C   UNL     1       9.023  13.274  18.048  0.00  0.00    +0.000 A 
BRANCH  19  26
ATOM     25  O   UNL     1       9.027  16.072  18.942  0.00  0.00    +0.000 OA
ATOM     26  C   UNL     1       9.874  15.269  19.315  0.00  0.00    +0.000 C 
ATOM     27  N   UNL     1      11.080  15.656  19.856  0.00  0.00    +0.000 N 
ATOM     28  H   UNL     1      11.902  15.062  19.830  0.00  0.00    +0.000 HD
BRANCH  27  29
ATOM     29  O   UNL     1      11.318  17.050  19.875  0.00  0.00    +0.000 OA
ATOM     30  H   UNL     1      10.980  17.306  20.761  0.00  0.00    +0.000 HD
ENDBRANCH  27  29
ENDBRANCH  19  26
ENDBRANCH  17  22
ENDBRANCH   1  18
TORSDOF 6
ENDMDL
MODEL 8
REMARK VINA RESULT:      -8.3      0.654      1.056
REMARK  Name = 
REMARK  6 active torsions:
REMARK  status: ('A' for Active; 'I' for Inactive)
REMARK    1  A    between atoms: C_2  and  C_5
REMARK    2  A    between atoms: N_3  and  O_4
REMARK    3  A    between atoms: C_8  and  C_9
REMARK    4  A    between atoms: C_10  and  C_11
REMARK    5  A    between atoms: C_15  and  C_16
REMARK    6  A    between atoms: C_19  and  C_20
REMARK                            x       y       z     vdW  Elec       q    Type
REMARK                         _______ _______ _______ _____ _____    ______ ____
ROOT
ATOM      1  C   UNL     1       7.926   7.429  18.025  0.00  0.00    +0.000 A 
ATOM      2  C   UNL     1       8.043   6.608  19.144  0.00  0.00    +0.000 A 
ATOM      3  C   UNL     1       7.680   5.279  19.025  0.00  0.00    +0.000 A 
ATOM      4  N   UNL     1       7.211   4.725  17.888  0.00  0.00    +0.000 NA
ATOM      5  C   UNL     1       7.083   5.523  16.799  0.00  0.00    +0.000 A 
ATOM      6  C   UNL     1       7.432   6.874  16.842  0.00  0.00    +0.000 A 
ENDROOT
BRANCH   5   7
ATOM      7  C   UNL     1       6.593   4.866  15.568  0.00  0.00    +0.000 A 
ATOM      8  C   UNL     1       5.365   4.181  15.522  0.00  0.00    +0.000 A 
ATOM      9  C   UNL     1       4.880   3.631  14.330  0.00  0.00    +0.000 A 
ATOM     10  C   UNL     1       5.616   3.741  13.143  0.00  0.00    +0.000 A 
ATOM     11  C   UNL     1       6.861   4.381  13.184  0.00  0.00    +0.000 A 
ATOM     12  C   UNL     1       7.340   4.929  14.378  0.00  0.00    +0.000 A 
BRANCH  10  13
ATOM     13  C   UNL     1       5.085   3.197  11.841  0.00  0.00    +0.000 C 
ATOM     14  F   UNL     1       3.731   3.051  11.825  0.00  0.00    +0.000 F 
ATOM     15  F   UNL     1       5.383   4.002  10.784  0.00  0.00    +0.000 F 
ATOM     16  F   UNL     1       5.596   1.972  11.535  0.00  0.00    +0.000 F 
ENDBRANCH  10  13
ENDBRANCH   5   7
BRANCH   1  18
ATOM     17  C   UNL     1       9.105   9.449  18.885  0.00  0.00    +0.000 C 
ATOM     18  C   UNL     1       8.209   8.870  18.070  0.00  0.00    +0.000 C 
BRANCH  17  22
ATOM     19  C   UNL     1       9.725  13.684  19.082  0.00  0.00    +0.000 A 
ATOM     20  C   UNL     1       9.419  13.062  17.869  0.00  0.00    +0.000 A 
ATOM     21  C   UNL     1       9.208  11.680  17.827  0.00  0.00    +0.000 A 
ATOM     22  C   UNL     1       9.298  10.904  18.992  0.00  0.00    +0.000 A 
ATOM     23  C   UNL     1       9.551  11.548  20.211  0.00  0.00    +0.000 A 
ATOM     24  C   UNL     1       9.771  12.926  20.258  0.00  0.00    +0.000 A 
BRANCH  19  26
ATOM     25  O   UNL     1      10.423  15.742  18.136  0.00  0.00    +0.000 OA
ATOM     26  C   UNL     1       9.969  15.149  19.107  0.00  0.00    +0.000 C 
ATOM     27  N   UNL     1       9.693  15.779  20.301  0.00  0.00    +0.000 N 
ATOM     28  H   UNL     1       9.671  15.282  21.185  0.00  0.00    +0.000 HD
BRANCH  27  29
ATOM     29  O   UNL     1      10.049  17.146  20.363  0.00  0.00    +0.000 OA
ATOM     30  H   UNL     1      10.059  17.401  19.415  0.00  0.00    +0.000 HD
ENDBRANCH  27  29
ENDBRANCH  19  26
ENDBRANCH  17  22
ENDBRANCH   1  18
TORSDOF 6
ENDMDL
MODEL 9
REMARK VINA RESULT:      -8.3     10.821     13.137
REMARK  Name = 
REMARK  6 active torsions:
REMARK  status: ('A' for Active; 'I' for Inactive)
REMARK    1  A    between atoms: C_2  and  C_5
REMARK    2  A    between atoms: N_3  and  O_4
REMARK    3  A    between atoms: C_8  and  C_9
REMARK    4  A    between atoms: C_10  and  C_11
REMARK    5  A    between atoms: C_15  and  C_16
REMARK    6  A    between atoms: C_19  and  C_20
REMARK                            x       y       z     vdW  Elec       q    Type
REMARK                         _______ _______ _______ _____ _____    ______ ____
ROOT
ATOM      1  C   UNL     1       1.213  10.012  19.231  0.00  0.00    +0.000 A 
ATOM      2  C   UNL     1       1.693  11.080  18.478  0.00  0.00    +0.000 A 
ATOM      3  C   UNL     1       1.119  12.324  18.660  0.00  0.00    +0.000 A 
ATOM      4  N   UNL     1       0.113  12.571  19.524  0.00  0.00    +0.000 NA
ATOM      5  C   UNL     1      -0.368  11.532  20.252  0.00  0.00    +0.000 A 
ATOM      6  C   UNL     1       0.163  10.247  20.123  0.00  0.00    +0.000 A 
ENDROOT
BRANCH   5   7
ATOM      7  C   UNL     1      -1.451  11.853  21.205  0.00  0.00    +0.000 A 
ATOM      8  C   UNL     1      -1.357  11.549  22.576  0.00  0.00    +0.000 A 
ATOM      9  C   UNL     1      -2.357  11.929  23.478  0.00  0.00    +0.000 A 
ATOM     10  C   UNL     1      -3.492  12.619  23.034  0.00  0.00    +0.000 A 
ATOM     11  C   UNL     1      -3.620  12.888  21.667  0.00  0.00    +0.000 A 
ATOM     12  C   UNL     1      -2.617  12.507  20.770  0.00  0.00    +0.000 A 
BRANCH  10  13
ATOM     13  C   UNL     1      -4.555  13.078  24.000  0.00  0.00    +0.000 C 
ATOM     14  F   UNL     1      -5.727  13.422  23.395  0.00  0.00    +0.000 F 
ATOM     15  F   UNL     1      -4.877  12.118  24.910  0.00  0.00    +0.000 F 
ATOM     16  F   UNL     1      -4.175  14.168  24.723  0.00  0.00    +0.000 F 
ENDBRANCH  10  13
ENDBRANCH   5   7
BRANCH   1  18
ATOM     17  C   UNL     1       1.802   7.730  20.038  0.00  0.00    +0.000 C 
ATOM     18  C   UNL     1       1.700   8.638  19.054  0.00  0.00    +0.000 C 
BRANCH  17  22
ATOM     19  C   UNL     1       3.526   3.826  19.655  0.00  0.00    +0.000 A 
ATOM     20  C   UNL     1       2.606   4.104  20.669  0.00  0.00    +0.000 A 
ATOM     21  C   UNL     1       2.046   5.381  20.771  0.00  0.00    +0.000 A 
ATOM     22  C   UNL     1       2.392   6.393  19.863  0.00  0.00    +0.000 A 
ATOM     23  C   UNL     1       3.274   6.084  18.817  0.00  0.00    +0.000 A 
ATOM     24  C   UNL     1       3.843   4.814  18.716  0.00  0.00    +0.000 A 
BRANCH  19  26
ATOM     25  O   UNL     1       4.967   2.091  20.384  0.00  0.00    +0.000 OA
ATOM     26  C   UNL     1       4.130   2.471  19.574  0.00  0.00    +0.000 C 
ATOM     27  N   UNL     1       3.720   1.698  18.509  0.00  0.00    +0.000 N 
ATOM     28  H   UNL     1       3.332   2.101  17.663  0.00  0.00    +0.000 HD
BRANCH  27  29
ATOM     29  O   UNL     1       4.392   0.463  18.360  0.00  0.00    +0.000 OA
ATOM     30  H   UNL     1       3.665  -0.185  18.482  0.00  0.00    +0.000 HD
ENDBRANCH  27  29
ENDBRANCH  19  26
ENDBRANCH  17  22
ENDBRANCH   1  18
TORSDOF 6
ENDMDL
