MODEL 1
REMARK VINA RESULT:      -6.9      0.000      0.000
REMARK  Name = 
REMARK  6 active torsions:
REMARK  status: ('A' for Active; 'I' for Inactive)
REMARK    1  A    between atoms: C_1  and  O_2
REMARK    2  A    between atoms: O_2  and  C_3
REMARK    3  A    between atoms: C_7  and  C_8
REMARK    4  A    between atoms: C_9  and  C_10
REMARK    5  A    between atoms: C_16  and  O_17
REMARK    6  A    between atoms: O_17  and  C_18
REMARK                            x       y       z     vdW  Elec       q    Type
REMARK                         _______ _______ _______ _____ _____    ______ ____
ROOT
ATOM      1  C   UNL     1       2.100   4.065  19.581  0.00  0.00    +0.000 A 
ATOM      2  C   UNL     1       2.211   5.404  19.985  0.00  0.00    +0.000 A 
ATOM      3  C   UNL     1       2.883   6.329  19.192  0.00  0.00    +0.000 A 
ATOM      4  C   UNL     1       3.495   5.912  18.014  0.00  0.00    +0.000 A 
ATOM      5  C   UNL     1       3.466   4.561  17.623  0.00  0.00    +0.000 A 
ATOM      6  C   UNL     1       2.750   3.625  18.409  0.00  0.00    +0.000 A 
ENDROOT
BRANCH   1   8
ATOM      7  C   UNL     1       1.936   2.844  21.609  0.00  0.00    +0.000 C 
ATOM      8  O   UNL     1       1.387   3.168  20.333  0.00  0.00    +0.000 OA
ENDBRANCH   1   8
BRANCH   5   9
ATOM      9  C   UNL     1       4.177   4.242  16.364  0.00  0.00    +0.000 C 
ATOM     10  C   UNL     1       5.254   4.904  15.906  0.00  0.00    +0.000 C 
BRANCH  10  11
ATOM     11  C   UNL     1       5.932   4.634  14.628  0.00  0.00    +0.000 A 
ATOM     12  C   UNL     1       5.332   3.748  13.725  0.00  0.00    +0.000 A 
ATOM     13  C   UNL     1       5.934   3.454  12.497  0.00  0.00    +0.000 A 
ATOM     14  C   UNL     1       7.143   4.055  12.154  0.00  0.00    +0.000 A 
ATOM     15  C   UNL     1       7.739   4.960  13.028  0.00  0.00    +0.000 A 
ATOM     16  C   UNL     1       7.134   5.253  14.254  0.00  0.00    +0.000 A 
ENDBRANCH  10  11
ENDBRANCH   5   9
BRANCH   6  17
ATOM     17  O   UNL     1       2.696   2.353  17.892  0.00  0.00    +0.000 OA
ATOM     18  C   UNL     1       3.567   1.357  18.405  0.00  0.00    +0.000 C 
ENDBRANCH   6  17
TORSDOF 4
ENDMDL
MODEL 2
REMARK VINA RESULT:      -6.8      0.183      1.147
REMARK  Name = 
REMARK  6 active torsions:
REMARK  status: ('A' for Active; 'I' for Inactive)
REMARK    1  A    between atoms: C_1  and  O_2
REMARK    2  A    between atoms: O_2  and  C_3
REMARK    3  A    between atoms: C_7  and  C_8
REMARK    4  A    between atoms: C_9  and  C_10
REMARK    5  A    between atoms: C_16  and  O_17
REMARK    6  A    between atoms: O_17  and  C_18
REMARK                            x       y       z     vdW  Elec       q    Type
REMARK                         _______ _______ _______ _____ _____    ______ ____
ROOT
ATOM      1  C   UNL     1       1.990   4.036  19.652  0.00  0.00    +0.000 A 
ATOM      2  C   UNL     1       2.130   5.369  20.066  0.00  0.00    +0.000 A 
ATOM      3  C   UNL     1       2.888   6.266  19.322  0.00  0.00    +0.000 A 
ATOM      4  C   UNL     1       3.558   5.827  18.185  0.00  0.00    +0.000 A 
ATOM      5  C   UNL     1       3.499   4.479  17.788  0.00  0.00    +0.000 A 
ATOM      6  C   UNL     1       2.696   3.571  18.522  0.00  0.00    +0.000 A 
ENDROOT
BRANCH   1   8
ATOM      7  C   UNL     1       1.737   2.665  21.571  0.00  0.00    +0.000 C 
ATOM      8  O   UNL     1       1.194   3.168  20.352  0.00  0.00    +0.000 OA
ENDBRANCH   1   8
BRANCH   5   9
ATOM      9  C   UNL     1       4.277   4.132  16.576  0.00  0.00    +0.000 C 
ATOM     10  C   UNL     1       5.030   5.000  15.878  0.00  0.00    +0.000 C 
BRANCH  10  11
ATOM     11  C   UNL     1       5.759   4.681  14.640  0.00  0.00    +0.000 A 
ATOM     12  C   UNL     1       7.012   5.270  14.428  0.00  0.00    +0.000 A 
ATOM     13  C   UNL     1       7.746   5.004  13.268  0.00  0.00    +0.000 A 
ATOM     14  C   UNL     1       7.238   4.132  12.309  0.00  0.00    +0.000 A 
ATOM     15  C   UNL     1       6.008   3.514  12.517  0.00  0.00    +0.000 A 
ATOM     16  C   UNL     1       5.276   3.781  13.678  0.00  0.00    +0.000 A 
ENDBRANCH  10  11
ENDBRANCH   5   9
BRANCH   6  17
ATOM     17  O   UNL     1       2.623   2.303  17.997  0.00  0.00    +0.000 OA
ATOM     18  C   UNL     1       3.517   1.306  18.467  0.00  0.00    +0.000 C 
ENDBRANCH   6  17
TORSDOF 4
ENDMDL
MODEL 3
REMARK VINA RESULT:      -6.4      3.367      7.699
REMARK  Name = 
REMARK  6 active torsions:
REMARK  status: ('A' for Active; 'I' for Inactive)
REMARK    1  A    between atoms: C_1  and  O_2
REMARK    2  A    between atoms: O_2  and  C_3
REMARK    3  A    between atoms: C_7  and  C_8
REMARK    4  A    between atoms: C_9  and  C_10
REMARK    5  A    between atoms: C_16  and  O_17
REMARK    6  A    between atoms: O_17  and  C_18
REMARK                            x       y       z     vdW  Elec       q    Type
REMARK                         _______ _______ _______ _____ _____    ______ ____
ROOT
ATOM      1  C   UNL     1       3.775   4.078  18.888  0.00  0.00    +0.000 A 
ATOM      2  C   UNL     1       4.234   4.698  17.715  0.00  0.00    +0.000 A 
ATOM      3  C   UNL     1       3.958   6.039  17.469  0.00  0.00    +0.000 A 
ATOM      4  C   UNL     1       3.176   6.758  18.366  0.00  0.00    +0.000 A 
ATOM      5  C   UNL     1       2.638   6.143  19.511  0.00  0.00    +0.000 A 
ATOM      6  C   UNL     1       2.949   4.788  19.783  0.00  0.00    +0.000 A 
ENDROOT
BRANCH   1   8
ATOM      7  C   UNL     1       3.494   1.792  18.319  0.00  0.00    +0.000 C 
ATOM      8  O   UNL     1       4.097   2.774  19.158  0.00  0.00    +0.000 OA
ENDBRANCH   1   8
BRANCH   5   9
ATOM      9  C   UNL     1       1.801   7.010  20.371  0.00  0.00    +0.000 C 
ATOM     10  C   UNL     1       1.491   8.289  20.096  0.00  0.00    +0.000 C 
BRANCH  10  11
ATOM     11  C   UNL     1       0.710   9.178  20.972  0.00  0.00    +0.000 A 
ATOM     12  C   UNL     1       0.592   8.848  22.328  0.00  0.00    +0.000 A 
ATOM     13  C   UNL     1      -0.140   9.655  23.204  0.00  0.00    +0.000 A 
ATOM     14  C   UNL     1      -0.754  10.813  22.734  0.00  0.00    +0.000 A 
ATOM     15  C   UNL     1      -0.623  11.172  21.395  0.00  0.00    +0.000 A 
ATOM     16  C   UNL     1       0.111  10.363  20.521  0.00  0.00    +0.000 A 
ENDBRANCH  10  11
ENDBRANCH   5   9
BRANCH   6  17
ATOM     17  O   UNL     1       2.460   4.309  20.975  0.00  0.00    +0.000 OA
ATOM     18  C   UNL     1       1.340   3.437  20.964  0.00  0.00    +0.000 C 
ENDBRANCH   6  17
TORSDOF 4
ENDMDL
MODEL 4
REMARK VINA RESULT:      -6.4      3.263      7.331
REMARK  Name = 
REMARK  6 active torsions:
REMARK  status: ('A' for Active; 'I' for Inactive)
REMARK    1  A    between atoms: C_1  and  O_2
REMARK    2  A    between atoms: O_2  and  C_3
REMARK    3  A    between atoms: C_7  and  C_8
REMARK    4  A    between atoms: C_9  and  C_10
REMARK    5  A    between atoms: C_16  and  O_17
REMARK    6  A    between atoms: O_17  and  C_18
REMARK                            x       y       z     vdW  Elec       q    Type
REMARK                         _______ _______ _______ _____ _____    ______ ____
ROOT
ATOM      1  C   UNL     1       6.248   4.951  15.994  0.00  0.00    +0.000 A 
ATOM      2  C   UNL     1       5.537   3.744  16.082  0.00  0.00    +0.000 A 
ATOM      3  C   UNL     1       4.289   3.700  16.694  0.00  0.00    +0.000 A 
ATOM      4  C   UNL     1       3.763   4.850  17.272  0.00  0.00    +0.000 A 
ATOM      5  C   UNL     1       4.486   6.057  17.267  0.00  0.00    +0.000 A 
ATOM      6  C   UNL     1       5.741   6.114  16.610  0.00  0.00    +0.000 A 
ENDROOT
BRANCH   1   8
ATOM      7  C   UNL     1       7.388   4.951  13.914  0.00  0.00    +0.000 C 
ATOM      8  O   UNL     1       7.449   5.006  15.337  0.00  0.00    +0.000 OA
ENDBRANCH   1   8
BRANCH   5   9
ATOM      9  C   UNL     1       3.829   7.202  17.938  0.00  0.00    +0.000 C 
ATOM     10  C   UNL     1       2.533   7.237  18.294  0.00  0.00    +0.000 C 
BRANCH  10  11
ATOM     11  C   UNL     1       1.855   8.391  18.907  0.00  0.00    +0.000 A 
ATOM     12  C   UNL     1       1.573   9.505  18.107  0.00  0.00    +0.000 A 
ATOM     13  C   UNL     1       0.933  10.629  18.638  0.00  0.00    +0.000 A 
ATOM     14  C   UNL     1       0.556  10.646  19.979  0.00  0.00    +0.000 A 
ATOM     15  C   UNL     1       0.803   9.536  20.782  0.00  0.00    +0.000 A 
ATOM     16  C   UNL     1       1.442   8.412  20.248  0.00  0.00    +0.000 A 
ENDBRANCH  10  11
ENDBRANCH   5   9
BRANCH   6  17
ATOM     17  O   UNL     1       6.321   7.359  16.573  0.00  0.00    +0.000 OA
ATOM     18  C   UNL     1       7.418   7.638  17.428  0.00  0.00    +0.000 C 
ENDBRANCH   6  17
TORSDOF 4
ENDMDL
MODEL 5
REMARK VINA RESULT:      -6.3      3.345      7.696
REMARK  Name = 
REMARK  6 active torsions:
REMARK  status: ('A' for Active; 'I' for Inactive)
REMARK    1  A    between atoms: C_1  and  O_2
REMARK    2  A    between atoms: O_2  and  C_3
REMARK    3  A    between atoms: C_7  and  C_8
REMARK    4  A    between atoms: C_9  and  C_10
REMARK    5  A    between atoms: C_16  and  O_17
REMARK    6  A    between atoms: O_17  and  C_18
REMARK                            x       y       z     vdW  Elec       q    Type
REMARK                         _______ _______ _______ _____ _____    ______ ____
ROOT
ATOM      1  C   UNL     1       3.623   3.819  19.155  0.00  0.00    +0.000 A 
ATOM      2  C   UNL     1       4.113   4.388  17.970  0.00  0.00    +0.000 A 
ATOM      3  C   UNL     1       3.877   5.727  17.676  0.00  0.00    +0.000 A 
ATOM      4  C   UNL     1       3.104   6.496  18.539  0.00  0.00    +0.000 A 
ATOM      5  C   UNL     1       2.535   5.934  19.696  0.00  0.00    +0.000 A 
ATOM      6  C   UNL     1       2.806   4.580  20.017  0.00  0.00    +0.000 A 
ENDROOT
BRANCH   1   8
ATOM      7  C   UNL     1       3.580   1.546  18.482  0.00  0.00    +0.000 C 
ATOM      8  O   UNL     1       3.908   2.517  19.472  0.00  0.00    +0.000 OA
ENDBRANCH   1   8
BRANCH   5   9
ATOM      9  C   UNL     1       1.711   6.850  20.518  0.00  0.00    +0.000 C 
ATOM     10  C   UNL     1       1.522   8.154  20.250  0.00  0.00    +0.000 C 
BRANCH  10  11
ATOM     11  C   UNL     1       0.755   9.087  21.091  0.00  0.00    +0.000 A 
ATOM     12  C   UNL     1       0.280  10.272  20.516  0.00  0.00    +0.000 A 
ATOM     13  C   UNL     1      -0.452  11.195  21.270  0.00  0.00    +0.000 A 
ATOM     14  C   UNL     1      -0.729  10.936  22.610  0.00  0.00    +0.000 A 
ATOM     15  C   UNL     1      -0.289   9.748  23.190  0.00  0.00    +0.000 A 
ATOM     16  C   UNL     1       0.442   8.827  22.434  0.00  0.00    +0.000 A 
ENDBRANCH  10  11
ENDBRANCH   5   9
BRANCH   6  17
ATOM     17  O   UNL     1       2.290   4.153  21.217  0.00  0.00    +0.000 OA
ATOM     18  C   UNL     1       1.297   3.139  21.223  0.00  0.00    +0.000 C 
ENDBRANCH   6  17
TORSDOF 4
ENDMDL
MODEL 6
REMARK VINA RESULT:      -6.3      2.793      7.013
REMARK  Name = 
REMARK  6 active torsions:
REMARK  status: ('A' for Active; 'I' for Inactive)
REMARK    1  A    between atoms: C_1  and  O_2
REMARK    2  A    between atoms: O_2  and  C_3
REMARK    3  A    between atoms: C_7  and  C_8
REMARK    4  A    between atoms: C_9  and  C_10
REMARK    5  A    between atoms: C_16  and  O_17
REMARK    6  A    between atoms: O_17  and  C_18
REMARK                            x       y       z     vdW  Elec       q    Type
REMARK                         _______ _______ _______ _____ _____    ______ ____
ROOT
ATOM      1  C   UNL     1       3.397   3.576  17.500  0.00  0.00    +0.000 A 
ATOM      2  C   UNL     1       4.640   3.946  16.964  0.00  0.00    +0.000 A 
ATOM      3  C   UNL     1       5.064   5.270  17.008  0.00  0.00    +0.000 A 
ATOM      4  C   UNL     1       4.228   6.245  17.540  0.00  0.00    +0.000 A 
ATOM      5  C   UNL     1       2.944   5.917  18.014  0.00  0.00    +0.000 A 
ATOM      6  C   UNL     1       2.525   4.563  18.005  0.00  0.00    +0.000 A 
ENDROOT
BRANCH   1   8
ATOM      7  C   UNL     1       3.628   1.432  18.488  0.00  0.00    +0.000 C 
ATOM      8  O   UNL     1       3.006   2.262  17.511  0.00  0.00    +0.000 OA
ENDBRANCH   1   8
BRANCH   5   9
ATOM      9  C   UNL     1       2.142   7.049  18.530  0.00  0.00    +0.000 C 
ATOM     10  C   UNL     1       2.183   7.500  19.796  0.00  0.00    +0.000 C 
BRANCH  10  11
ATOM     11  C   UNL     1       1.347   8.585  20.335  0.00  0.00    +0.000 A 
ATOM     12  C   UNL     1       1.090   8.613  21.711  0.00  0.00    +0.000 A 
ATOM     13  C   UNL     1       0.300   9.620  22.276  0.00  0.00    +0.000 A 
ATOM     14  C   UNL     1      -0.233  10.620  21.468  0.00  0.00    +0.000 A 
ATOM     15  C   UNL     1       0.037  10.624  20.101  0.00  0.00    +0.000 A 
ATOM     16  C   UNL     1       0.827   9.617  19.540  0.00  0.00    +0.000 A 
ENDBRANCH  10  11
ENDBRANCH   5   9
BRANCH   6  17
ATOM     17  O   UNL     1       1.299   4.331  18.582  0.00  0.00    +0.000 OA
ATOM     18  C   UNL     1       1.239   3.873  19.923  0.00  0.00    +0.000 C 
ENDBRANCH   6  17
TORSDOF 4
ENDMDL
MODEL 7
REMARK VINA RESULT:      -6.2      3.030      6.526
REMARK  Name = 
REMARK  6 active torsions:
REMARK  status: ('A' for Active; 'I' for Inactive)
REMARK    1  A    between atoms: C_1  and  O_2
REMARK    2  A    between atoms: O_2  and  C_3
REMARK    3  A    between atoms: C_7  and  C_8
REMARK    4  A    between atoms: C_9  and  C_10
REMARK    5  A    between atoms: C_16  and  O_17
REMARK    6  A    between atoms: O_17  and  C_18
REMARK                            x       y       z     vdW  Elec       q    Type
REMARK                         _______ _______ _______ _____ _____    ______ ____
ROOT
ATOM      1  C   UNL     1       3.329   3.641  17.390  0.00  0.00    +0.000 A 
ATOM      2  C   UNL     1       4.517   3.923  16.700  0.00  0.00    +0.000 A 
ATOM      3  C   UNL     1       5.013   5.221  16.644  0.00  0.00    +0.000 A 
ATOM      4  C   UNL     1       4.299   6.259  17.232  0.00  0.00    +0.000 A 
ATOM      5  C   UNL     1       3.065   6.019  17.865  0.00  0.00    +0.000 A 
ATOM      6  C   UNL     1       2.577   4.692  17.956  0.00  0.00    +0.000 A 
ENDROOT
BRANCH   1   8
ATOM      7  C   UNL     1       3.530   1.534  18.460  0.00  0.00    +0.000 C 
ATOM      8  O   UNL     1       2.873   2.353  17.496  0.00  0.00    +0.000 OA
ENDBRANCH   1   8
BRANCH   5   9
ATOM      9  C   UNL     1       2.390   7.211  18.428  0.00  0.00    +0.000 C 
ATOM     10  C   UNL     1       2.390   8.429  17.859  0.00  0.00    +0.000 C 
BRANCH  10  11
ATOM     11  C   UNL     1       1.774   9.633  18.440  0.00  0.00    +0.000 A 
ATOM     12  C   UNL     1       0.843   9.477  19.474  0.00  0.00    +0.000 A 
ATOM     13  C   UNL     1       0.225  10.587  20.060  0.00  0.00    +0.000 A 
ATOM     14  C   UNL     1       0.542  11.871  19.623  0.00  0.00    +0.000 A 
ATOM     15  C   UNL     1       1.488  12.045  18.615  0.00  0.00    +0.000 A 
ATOM     16  C   UNL     1       2.104  10.934  18.032  0.00  0.00    +0.000 A 
ENDBRANCH  10  11
ENDBRANCH   5   9
BRANCH   6  17
ATOM     17  O   UNL     1       1.417   4.548  18.680  0.00  0.00    +0.000 OA
ATOM     18  C   UNL     1       1.497   4.246  20.064  0.00  0.00    +0.000 C 
ENDBRANCH   6  17
TORSDOF 4
ENDMDL
MODEL 8
REMARK VINA RESULT:      -6.2      3.142      6.621
REMARK  Name = 
REMARK  6 active torsions:
REMARK  status: ('A' for Active; 'I' for Inactive)
REMARK    1  A    between atoms: C_1  and  O_2
REMARK    2  A    between atoms: O_2  and  C_3
REMARK    3  A    between atoms: C_7  and  C_8
REMARK    4  A    between atoms: C_9  and  C_10
REMARK    5  A    between atoms: C_16  and  O_17
REMARK    6  A    between atoms: O_17  and  C_18
REMARK                            x       y       z     vdW  Elec       q    Type
REMARK                         _______ _______ _______ _____ _____    ______ ____
ROOT
ATOM      1  C   UNL     1       3.349   3.854  17.364  0.00  0.00    +0.000 A 
ATOM      2  C   UNL     1       4.500   4.027  16.580  0.00  0.00    +0.000 A 
ATOM      3  C   UNL     1       5.096   5.278  16.463  0.00  0.00    +0.000 A 
ATOM      4  C   UNL     1       4.517   6.379  17.086  0.00  0.00    +0.000 A 
ATOM      5  C   UNL     1       3.320   6.251  17.814  0.00  0.00    +0.000 A 
ATOM      6  C   UNL     1       2.732   4.970  17.966  0.00  0.00    +0.000 A 
ENDROOT
BRANCH   1   8
ATOM      7  C   UNL     1       3.490   1.729  18.408  0.00  0.00    +0.000 C 
ATOM      8  O   UNL     1       2.797   2.610  17.527  0.00  0.00    +0.000 OA
ENDBRANCH   1   8
BRANCH   5   9
ATOM      9  C   UNL     1       2.791   7.501  18.406  0.00  0.00    +0.000 C 
ATOM     10  C   UNL     1       2.032   8.395  17.749  0.00  0.00    +0.000 C 
BRANCH  10  11
ATOM     11  C   UNL     1       1.551   9.669  18.309  0.00  0.00    +0.000 A 
ATOM     12  C   UNL     1       2.275  10.836  18.038  0.00  0.00    +0.000 A 
ATOM     13  C   UNL     1       1.864  12.073  18.547  0.00  0.00    +0.000 A 
ATOM     14  C   UNL     1       0.713  12.157  19.325  0.00  0.00    +0.000 A 
ATOM     15  C   UNL     1      -0.036  11.010  19.579  0.00  0.00    +0.000 A 
ATOM     16  C   UNL     1       0.376   9.775  19.069  0.00  0.00    +0.000 A 
ENDBRANCH  10  11
ENDBRANCH   5   9
BRANCH   6  17
ATOM     17  O   UNL     1       1.624   4.933  18.778  0.00  0.00    +0.000 OA
ATOM     18  C   UNL     1       1.777   4.586  20.145  0.00  0.00    +0.000 C 
ENDBRANCH   6  17
TORSDOF 4
ENDMDL
MODEL 9
REMARK VINA RESULT:      -6.2      3.172      7.260
REMARK  Name = 
REMARK  6 active torsions:
REMARK  status: ('A' for Active; 'I' for Inactive)
REMARK    1  A    between atoms: C_1  and  O_2
REMARK    2  A    between atoms: O_2  and  C_3
REMARK    3  A    between atoms: C_7  and  C_8
REMARK    4  A    between atoms: C_9  and  C_10
REMARK    5  A    between atoms: C_16  and  O_17
REMARK    6  A    between atoms: O_17  and  C_18
REMARK                            x       y       z     vdW  Elec       q    Type
REMARK                         _______ _______ _______ _____ _____    ______ ____
ROOT
ATOM      1  C   UNL     1       6.673   5.113  15.456  0.00  0.00    +0.000 A 
ATOM      2  C   UNL     1       6.222   3.793  15.300  0.00  0.00    +0.000 A 
ATOM      3  C   UNL     1       5.052   3.366  15.919  0.00  0.00    +0.000 A 
ATOM      4  C   UNL     1       4.350   4.239  16.743  0.00  0.00    +0.000 A 
ATOM      5  C   UNL     1       4.819   5.544  16.981  0.00  0.00    +0.000 A 
ATOM      6  C   UNL     1       5.990   5.993  16.321  0.00  0.00    +0.000 A 
ENDROOT
BRANCH   1   8
ATOM      7  C   UNL     1       7.889   5.189  13.422  0.00  0.00    +0.000 C 
ATOM      8  O   UNL     1       7.792   5.549  14.797  0.00  0.00    +0.000 OA
ENDBRANCH   1   8
BRANCH   5   9
ATOM      9  C   UNL     1       3.996   6.365  17.898  0.00  0.00    +0.000 C 
ATOM     10  C   UNL     1       3.110   7.296  17.503  0.00  0.00    +0.000 C 
BRANCH  10  11
ATOM     11  C   UNL     1       2.330   8.158  18.406  0.00  0.00    +0.000 A 
ATOM     12  C   UNL     1       2.079   7.711  19.709  0.00  0.00    +0.000 A 
ATOM     13  C   UNL     1       1.341   8.489  20.607  0.00  0.00    +0.000 A 
ATOM     14  C   UNL     1       0.856   9.733  20.214  0.00  0.00    +0.000 A 
ATOM     15  C   UNL     1       1.121  10.206  18.931  0.00  0.00    +0.000 A 
ATOM     16  C   UNL     1       1.860   9.427  18.035  0.00  0.00    +0.000 A 
ENDBRANCH  10  11
ENDBRANCH   5   9
BRANCH   6  17
ATOM     17  O   UNL     1       6.309   7.312  16.538  0.00  0.00    +0.000 OA
ATOM     18  C   UNL     1       7.396   7.630  17.393  0.00  0.00    +0.000 C 
ENDBRANCH   6  17
TORSDOF 4
ENDMDL
