MODEL 1
REMARK VINA RESULT:      -5.5      0.000      0.000
REMARK  Name = 
REMARK  10 active torsions:
REMARK  status: ('A' for Active; 'I' for Inactive)
REMARK    1  A    between atoms: C_1  and  C_2
REMARK    2  A    between atoms: N_4  and  C_5
REMARK    3  A    between atoms: C_5  and  C_6
REMARK    4  A    between atoms: C_5  and  C_7
REMARK    5  A    between atoms: C_7  and  O_8
REMARK    6  A    between atoms: C_21  and  C_22
REMARK    7  A    between atoms: C_22  and  N_23
REMARK    8  A    between atoms: N_23  and  C_24
REMARK    9  A    between atoms: N_23  and  S_25
REMARK   10  A    between atoms: S_25  and  C_26
REMARK                            x       y       z     vdW  Elec       q    Type
REMARK                         _______ _______ _______ _____ _____    ______ ____
ROOT
ATOM      1  C   UNL     1      -1.197  14.678  19.903  0.00  0.00    +0.000 C 
ATOM      2  C   UNL     1      -0.987  13.568  20.964  0.00  0.00    +0.000 C 
ATOM      3  C   UNL     1      -1.888  13.653  22.526  0.00  0.00    +0.000 C 
ATOM      4  N   UNL     1      -3.492  13.742  22.571  0.00  0.00    +0.000 N 
ATOM      5  C   UNL     1      -4.557  13.127  23.296  0.00  0.00    +0.000 C 
ATOM      6  O   UNL     1      -4.471  12.927  24.509  0.00  0.00    +0.000 OA
ATOM      7  C   UNL     1      -6.084  12.733  22.477  0.00  0.00    +0.000 C 
ATOM      8  C   UNL     1      -6.525  12.788  20.870  0.00  0.00    +0.000 C 
ATOM      9  C   UNL     1      -6.744  11.561  19.921  0.00  0.00    +0.000 C 
ATOM     10  N   UNL     1      -5.771  11.403  18.803  0.00  0.00    +0.000 N 
ATOM     11  C   UNL     1      -4.877  12.311  18.244  0.00  0.00    +0.000 A 
ATOM     12  C   UNL     1      -3.760  11.507  17.977  0.00  0.00    +0.000 A 
ATOM     13  N   UNL     1      -4.203  10.215  17.901  0.00  0.00    +0.000 NA
ATOM     14  N   UNL     1      -5.460  10.175  18.348  0.00  0.00    +0.000 NA
ATOM     15  C   UNL     1      -2.251  11.846  18.052  0.00  0.00    +0.000 C 
ATOM     16  O   UNL     1      -1.691  11.473  19.357  0.00  0.00    +0.000 OA
ATOM     17  C   UNL     1      -0.654  12.255  20.005  0.00  0.00    +0.000 C 
ENDROOT
BRANCH   4  18
ATOM     18  C   UNL     1      -3.942  14.144  21.344  0.00  0.00    +0.000 C 
ATOM     19  C   UNL     1      -3.525  12.767  20.749  0.00  0.00    +0.000 C 
BRANCH  18  20
ATOM     20  C   UNL     1      -3.717  15.633  21.188  0.00  0.00    +0.000 C 
BRANCH  20  21
ATOM     21  O   UNL     1      -4.418  16.126  20.028  0.00  0.00    +0.000 OA
ATOM     22  H   UNL     1      -5.358  15.901  20.139  0.00  0.00    +0.000 HD
ENDBRANCH  20  21
ENDBRANCH  18  20
ENDBRANCH   4  18
BRANCH  17  23
ATOM     23  C   UNL     1       0.443  11.348  20.619  0.00  0.00    +0.000 C 
BRANCH  23  24
ATOM     24  N   UNL     1       0.383   9.909  20.238  0.00  0.00    +0.000 NA
ATOM     25  C   UNL     1       1.196   9.576  19.040  0.00  0.00    +0.000 C 
BRANCH  24  26
ATOM     26  S   UNL     1       0.552   8.820  21.539  0.00  0.00    +0.000 S 
ATOM     27  C   UNL     1       1.589   7.541  20.821  0.00  0.00    +0.000 C 
ATOM     28  O   UNL     1       1.340   9.452  22.590  0.00  0.00    +0.000 OA
ATOM     29  O   UNL     1      -0.743   8.208  21.812  0.00  0.00    +0.000 OA
ENDBRANCH  24  26
ENDBRANCH  23  24
ENDBRANCH  17  23
TORSDOF 6
ENDMDL
MODEL 2
REMARK VINA RESULT:      -5.4      3.497      6.411
REMARK  Name = 
REMARK  10 active torsions:
REMARK  status: ('A' for Active; 'I' for Inactive)
REMARK    1  A    between atoms: C_1  and  C_2
REMARK    2  A    between atoms: N_4  and  C_5
REMARK    3  A    between atoms: C_5  and  C_6
REMARK    4  A    between atoms: C_5  and  C_7
REMARK    5  A    between atoms: C_7  and  O_8
REMARK    6  A    between atoms: C_21  and  C_22
REMARK    7  A    between atoms: C_22  and  N_23
REMARK    8  A    between atoms: N_23  and  C_24
REMARK    9  A    between atoms: N_23  and  S_25
REMARK   10  A    between atoms: S_25  and  C_26
REMARK                            x       y       z     vdW  Elec       q    Type
REMARK                         _______ _______ _______ _____ _____    ______ ____
ROOT
ATOM      1  C   UNL     1      -1.578  14.740  24.060  0.00  0.00    +0.000 C 
ATOM      2  C   UNL     1      -2.719  14.937  23.031  0.00  0.00    +0.000 C 
ATOM      3  C   UNL     1      -2.623  16.301  21.851  0.00  0.00    +0.000 C 
ATOM      4  N   UNL     1      -1.365  16.479  20.868  0.00  0.00    +0.000 N 
ATOM      5  C   UNL     1      -1.145  16.765  19.486  0.00  0.00    +0.000 C 
ATOM      6  O   UNL     1      -1.806  17.623  18.900  0.00  0.00    +0.000 OA
ATOM      7  C   UNL     1       0.169  15.957  18.605  0.00  0.00    +0.000 C 
ATOM      8  C   UNL     1       1.193  14.714  19.038  0.00  0.00    +0.000 C 
ATOM      9  C   UNL     1       1.147  13.241  18.509  0.00  0.00    +0.000 C 
ATOM     10  N   UNL     1       0.778  12.190  19.500  0.00  0.00    +0.000 N 
ATOM     11  C   UNL     1       0.766  12.219  20.890  0.00  0.00    +0.000 A 
ATOM     12  C   UNL     1      -0.378  11.470  21.197  0.00  0.00    +0.000 A 
ATOM     13  N   UNL     1      -0.643  10.676  20.114  0.00  0.00    +0.000 NA
ATOM     14  N   UNL     1       0.122  11.085  19.099  0.00  0.00    +0.000 NA
ATOM     15  C   UNL     1      -1.402  11.645  22.345  0.00  0.00    +0.000 C 
ATOM     16  O   UNL     1      -2.551  12.450  21.911  0.00  0.00    +0.000 OA
ATOM     17  C   UNL     1      -3.228  13.374  22.802  0.00  0.00    +0.000 C 
ENDROOT
BRANCH   4  18
ATOM     18  C   UNL     1      -0.320  15.747  21.359  0.00  0.00    +0.000 C 
ATOM     19  C   UNL     1      -1.072  14.436  20.984  0.00  0.00    +0.000 C 
BRANCH  18  20
ATOM     20  C   UNL     1       0.301  16.478  22.531  0.00  0.00    +0.000 C 
BRANCH  20  21
ATOM     21  O   UNL     1       1.094  17.588  22.065  0.00  0.00    +0.000 OA
ATOM     22  H   UNL     1       1.732  17.806  22.767  0.00  0.00    +0.000 HD
ENDBRANCH  20  21
ENDBRANCH  18  20
ENDBRANCH   4  18
BRANCH  17  23
ATOM     23  C   UNL     1      -4.768  13.278  22.656  0.00  0.00    +0.000 C 
BRANCH  23  24
ATOM     24  N   UNL     1      -5.455  12.365  23.611  0.00  0.00    +0.000 NA
ATOM     25  C   UNL     1      -4.823  12.323  24.956  0.00  0.00    +0.000 C 
BRANCH  24  26
ATOM     26  S   UNL     1      -7.155  12.498  23.628  0.00  0.00    +0.000 S 
ATOM     27  C   UNL     1      -7.510  12.938  21.923  0.00  0.00    +0.000 C 
ATOM     28  O   UNL     1      -7.734  11.178  23.845  0.00  0.00    +0.000 OA
ATOM     29  O   UNL     1      -7.529  13.646  24.446  0.00  0.00    +0.000 OA
ENDBRANCH  24  26
ENDBRANCH  23  24
ENDBRANCH  17  23
TORSDOF 6
ENDMDL
MODEL 3
REMARK VINA RESULT:      -5.3      3.069      6.913
REMARK  Name = 
REMARK  10 active torsions:
REMARK  status: ('A' for Active; 'I' for Inactive)
REMARK    1  A    between atoms: C_1  and  C_2
REMARK    2  A    between atoms: N_4  and  C_5
REMARK    3  A    between atoms: C_5  and  C_6
REMARK    4  A    between atoms: C_5  and  C_7
REMARK    5  A    between atoms: C_7  and  O_8
REMARK    6  A    between atoms: C_21  and  C_22
REMARK    7  A    between atoms: C_22  and  N_23
REMARK    8  A    between atoms: N_23  and  C_24
REMARK    9  A    between atoms: N_23  and  S_25
REMARK   10  A    between atoms: S_25  and  C_26
REMARK                            x       y       z     vdW  Elec       q    Type
REMARK                         _______ _______ _______ _____ _____    ______ ____
ROOT
ATOM      1  C   UNL     1      -4.143  13.169  19.864  0.00  0.00    +0.000 C 
ATOM      2  C   UNL     1      -3.579  12.955  21.290  0.00  0.00    +0.000 C 
ATOM      3  C   UNL     1      -2.178  11.841  21.532  0.00  0.00    +0.000 C 
ATOM      4  N   UNL     1      -0.793  12.043  20.742  0.00  0.00    +0.000 N 
ATOM      5  C   UNL     1       0.601  12.031  21.048  0.00  0.00    +0.000 C 
ATOM      6  O   UNL     1       1.081  11.182  21.801  0.00  0.00    +0.000 OA
ATOM      7  C   UNL     1       1.699  13.184  20.260  0.00  0.00    +0.000 C 
ATOM      8  C   UNL     1       1.406  14.493  19.269  0.00  0.00    +0.000 C 
ATOM      9  C   UNL     1       1.549  16.004  19.655  0.00  0.00    +0.000 C 
ATOM     10  N   UNL     1       0.289  16.800  19.708  0.00  0.00    +0.000 N 
ATOM     11  C   UNL     1      -0.970  16.539  19.178  0.00  0.00    +0.000 A 
ATOM     12  C   UNL     1      -1.824  17.023  20.179  0.00  0.00    +0.000 A 
ATOM     13  N   UNL     1      -1.109  17.928  20.915  0.00  0.00    +0.000 NA
ATOM     14  N   UNL     1       0.176  17.828  20.569  0.00  0.00    +0.000 NA
ATOM     15  C   UNL     1      -3.197  16.490  20.658  0.00  0.00    +0.000 C 
ATOM     16  O   UNL     1      -3.042  15.585  21.804  0.00  0.00    +0.000 OA
ATOM     17  C   UNL     1      -3.894  14.425  21.993  0.00  0.00    +0.000 C 
ENDROOT
BRANCH   4  18
ATOM     18  C   UNL     1      -1.020  12.850  19.661  0.00  0.00    +0.000 C 
ATOM     19  C   UNL     1      -1.264  14.053  20.620  0.00  0.00    +0.000 C 
BRANCH  18  20
ATOM     20  C   UNL     1      -1.678  12.046  18.560  0.00  0.00    +0.000 C 
BRANCH  20  21
ATOM     21  O   UNL     1      -1.318  12.577  17.269  0.00  0.00    +0.000 OA
ATOM     22  H   UNL     1      -0.416  12.934  17.342  0.00  0.00    +0.000 HD
ENDBRANCH  20  21
ENDBRANCH  18  20
ENDBRANCH   4  18
BRANCH  17  23
ATOM     23  C   UNL     1      -4.338  14.281  23.471  0.00  0.00    +0.000 C 
BRANCH  23  24
ATOM     24  N   UNL     1      -5.789  14.486  23.735  0.00  0.00    +0.000 NA
ATOM     25  C   UNL     1      -6.424  15.485  22.837  0.00  0.00    +0.000 C 
BRANCH  24  26
ATOM     26  S   UNL     1      -6.683  13.050  23.948  0.00  0.00    +0.000 S 
ATOM     27  C   UNL     1      -7.147  12.646  22.261  0.00  0.00    +0.000 C 
ATOM     28  O   UNL     1      -5.786  11.992  24.396  0.00  0.00    +0.000 OA
ATOM     29  O   UNL     1      -7.917  13.364  24.661  0.00  0.00    +0.000 OA
ENDBRANCH  24  26
ENDBRANCH  23  24
ENDBRANCH  17  23
TORSDOF 6
ENDMDL
MODEL 4
REMARK VINA RESULT:      -5.2      9.849     12.983
REMARK  Name = 
REMARK  10 active torsions:
REMARK  status: ('A' for Active; 'I' for Inactive)
REMARK    1  A    between atoms: C_1  and  C_2
REMARK    2  A    between atoms: N_4  and  C_5
REMARK    3  A    between atoms: C_5  and  C_6
REMARK    4  A    between atoms: C_5  and  C_7
REMARK    5  A    between atoms: C_7  and  O_8
REMARK    6  A    between atoms: C_21  and  C_22
REMARK    7  A    between atoms: C_22  and  N_23
REMARK    8  A    between atoms: N_23  and  C_24
REMARK    9  A    between atoms: N_23  and  S_25
REMARK   10  A    between atoms: S_25  and  C_26
REMARK                            x       y       z     vdW  Elec       q    Type
REMARK                         _______ _______ _______ _____ _____    ______ ____
ROOT
ATOM      1  C   UNL     1       9.556  15.288  23.209  0.00  0.00    +0.000 C 
ATOM      2  C   UNL     1       8.192  15.382  22.480  0.00  0.00    +0.000 C 
ATOM      3  C   UNL     1       7.915  16.707  21.285  0.00  0.00    +0.000 C 
ATOM      4  N   UNL     1       8.888  16.924  20.025  0.00  0.00    +0.000 N 
ATOM      5  C   UNL     1       8.754  17.173  18.626  0.00  0.00    +0.000 C 
ATOM      6  O   UNL     1       7.918  17.971  18.198  0.00  0.00    +0.000 OA
ATOM      7  C   UNL     1       9.870  16.413  17.471  0.00  0.00    +0.000 C 
ATOM      8  C   UNL     1      11.046  15.248  17.671  0.00  0.00    +0.000 C 
ATOM      9  C   UNL     1      10.970  13.757  17.198  0.00  0.00    +0.000 C 
ATOM     10  N   UNL     1      10.918  12.721  18.269  0.00  0.00    +0.000 N 
ATOM     11  C   UNL     1      11.235  12.798  19.621  0.00  0.00    +0.000 A 
ATOM     12  C   UNL     1      10.248  11.995  20.208  0.00  0.00    +0.000 A 
ATOM     13  N   UNL     1       9.785  11.150  19.236  0.00  0.00    +0.000 NA
ATOM     14  N   UNL     1      10.258  11.567  18.059  0.00  0.00    +0.000 NA
ATOM     15  C   UNL     1       9.518  12.150  21.564  0.00  0.00    +0.000 C 
ATOM     16  O   UNL     1       8.249  12.871  21.402  0.00  0.00    +0.000 OA
ATOM     17  C   UNL     1       7.745  13.785  22.411  0.00  0.00    +0.000 C 
ENDROOT
BRANCH   4  18
ATOM     18  C   UNL     1      10.066  16.272  20.265  0.00  0.00    +0.000 C 
ATOM     19  C   UNL     1       9.330  14.906  20.123  0.00  0.00    +0.000 C 
BRANCH  18  20
ATOM     20  C   UNL     1      10.905  17.084  21.228  0.00  0.00    +0.000 C 
BRANCH  20  21
ATOM     21  O   UNL     1      11.992  17.724  20.529  0.00  0.00    +0.000 OA
ATOM     22  H   UNL     1      11.604  18.256  19.812  0.00  0.00    +0.000 HD
ENDBRANCH  20  21
ENDBRANCH  18  20
ENDBRANCH   4  18
BRANCH  17  23
ATOM     23  C   UNL     1       6.224  13.595  22.641  0.00  0.00    +0.000 C 
BRANCH  23  24
ATOM     24  N   UNL     1       5.841  12.887  23.894  0.00  0.00    +0.000 NA
ATOM     25  C   UNL     1       6.530  11.583  24.077  0.00  0.00    +0.000 C 
BRANCH  24  26
ATOM     26  S   UNL     1       5.800  13.871  25.285  0.00  0.00    +0.000 S 
ATOM     27  C   UNL     1       5.171  15.419  24.627  0.00  0.00    +0.000 C 
ATOM     28  O   UNL     1       4.783  13.365  26.198  0.00  0.00    +0.000 OA
ATOM     29  O   UNL     1       7.168  14.125  25.723  0.00  0.00    +0.000 OA
ENDBRANCH  24  26
ENDBRANCH  23  24
ENDBRANCH  17  23
TORSDOF 6
ENDMDL
MODEL 5
REMARK VINA RESULT:      -5.2      1.221      1.356
REMARK  Name = 
REMARK  10 active torsions:
REMARK  status: ('A' for Active; 'I' for Inactive)
REMARK    1  A    between atoms: C_1  and  C_2
REMARK    2  A    between atoms: N_4  and  C_5
REMARK    3  A    between atoms: C_5  and  C_6
REMARK    4  A    between atoms: C_5  and  C_7
REMARK    5  A    between atoms: C_7  and  O_8
REMARK    6  A    between atoms: C_21  and  C_22
REMARK    7  A    between atoms: C_22  and  N_23
REMARK    8  A    between atoms: N_23  and  C_24
REMARK    9  A    between atoms: N_23  and  S_25
REMARK   10  A    between atoms: S_25  and  C_26
REMARK                            x       y       z     vdW  Elec       q    Type
REMARK                         _______ _______ _______ _____ _____    ______ ____
ROOT
ATOM      1  C   UNL     1      -1.891  14.736  20.712  0.00  0.00    +0.000 C 
ATOM      2  C   UNL     1      -1.672  13.518  21.644  0.00  0.00    +0.000 C 
ATOM      3  C   UNL     1      -2.596  13.409  23.192  0.00  0.00    +0.000 C 
ATOM      4  N   UNL     1      -4.201  13.462  23.222  0.00  0.00    +0.000 N 
ATOM      5  C   UNL     1      -5.263  12.749  23.856  0.00  0.00    +0.000 C 
ATOM      6  O   UNL     1      -5.188  12.415  25.040  0.00  0.00    +0.000 OA
ATOM      7  C   UNL     1      -6.770  12.421  22.975  0.00  0.00    +0.000 C 
ATOM      8  C   UNL     1      -7.191  12.648  21.377  0.00  0.00    +0.000 C 
ATOM      9  C   UNL     1      -7.372  11.532  20.293  0.00  0.00    +0.000 C 
ATOM     10  N   UNL     1      -6.381  11.520  19.180  0.00  0.00    +0.000 N 
ATOM     11  C   UNL     1      -5.499  12.501  18.741  0.00  0.00    +0.000 A 
ATOM     12  C   UNL     1      -4.362  11.755  18.402  0.00  0.00    +0.000 A 
ATOM     13  N   UNL     1      -4.777  10.470  18.174  0.00  0.00    +0.000 NA
ATOM     14  N   UNL     1      -6.039  10.357  18.594  0.00  0.00    +0.000 NA
ATOM     15  C   UNL     1      -2.862  12.111  18.538  0.00  0.00    +0.000 C 
ATOM     16  O   UNL     1      -2.311  11.604  19.801  0.00  0.00    +0.000 OA
ATOM     17  C   UNL     1      -1.299  12.328  20.550  0.00  0.00    +0.000 C 
ENDROOT
BRANCH   4  18
ATOM     18  C   UNL     1      -4.643  13.991  22.041  0.00  0.00    +0.000 C 
ATOM     19  C   UNL     1      -4.206  12.691  21.304  0.00  0.00    +0.000 C 
BRANCH  18  20
ATOM     20  C   UNL     1      -4.431  15.490  22.050  0.00  0.00    +0.000 C 
BRANCH  20  21
ATOM     21  O   UNL     1      -5.016  16.072  23.233  0.00  0.00    +0.000 OA
ATOM     22  H   UNL     1      -5.936  15.761  23.286  0.00  0.00    +0.000 HD
ENDBRANCH  20  21
ENDBRANCH  18  20
ENDBRANCH   4  18
BRANCH  17  23
ATOM     23  C   UNL     1      -0.192  11.378  21.075  0.00  0.00    +0.000 C 
BRANCH  23  24
ATOM     24  N   UNL     1      -0.036  10.094  20.338  0.00  0.00    +0.000 NA
ATOM     25  C   UNL     1       0.761  10.215  19.090  0.00  0.00    +0.000 C 
BRANCH  24  26
ATOM     26  S   UNL     1       0.370   8.757  21.315  0.00  0.00    +0.000 S 
ATOM     27  C   UNL     1       0.773   9.546  22.877  0.00  0.00    +0.000 C 
ATOM     28  O   UNL     1      -0.826   7.958  21.550  0.00  0.00    +0.000 OA
ATOM     29  O   UNL     1       1.604   8.164  20.812  0.00  0.00    +0.000 OA
ENDBRANCH  24  26
ENDBRANCH  23  24
ENDBRANCH  17  23
TORSDOF 6
ENDMDL
MODEL 6
REMARK VINA RESULT:      -5.1      7.723     11.363
REMARK  Name = 
REMARK  10 active torsions:
REMARK  status: ('A' for Active; 'I' for Inactive)
REMARK    1  A    between atoms: C_1  and  C_2
REMARK    2  A    between atoms: N_4  and  C_5
REMARK    3  A    between atoms: C_5  and  C_6
REMARK    4  A    between atoms: C_5  and  C_7
REMARK    5  A    between atoms: C_7  and  O_8
REMARK    6  A    between atoms: C_21  and  C_22
REMARK    7  A    between atoms: C_22  and  N_23
REMARK    8  A    between atoms: N_23  and  C_24
REMARK    9  A    between atoms: N_23  and  S_25
REMARK   10  A    between atoms: S_25  and  C_26
REMARK                            x       y       z     vdW  Elec       q    Type
REMARK                         _______ _______ _______ _____ _____    ______ ____
ROOT
ATOM      1  C   UNL     1       7.054  17.330  19.709  0.00  0.00    +0.000 C 
ATOM      2  C   UNL     1       6.534  16.239  18.740  0.00  0.00    +0.000 C 
ATOM      3  C   UNL     1       7.719  15.204  17.853  0.00  0.00    +0.000 C 
ATOM      4  N   UNL     1       8.831  14.342  18.627  0.00  0.00    +0.000 N 
ATOM      5  C   UNL     1       9.355  13.014  18.574  0.00  0.00    +0.000 C 
ATOM      6  O   UNL     1       9.585  12.462  17.497  0.00  0.00    +0.000 OA
ATOM      7  C   UNL     1       9.788  12.165  20.073  0.00  0.00    +0.000 C 
ATOM      8  C   UNL     1       9.552  12.556  21.677  0.00  0.00    +0.000 C 
ATOM      9  C   UNL     1       8.530  11.889  22.658  0.00  0.00    +0.000 C 
ATOM     10  N   UNL     1       7.404  12.744  23.130  0.00  0.00    +0.000 N 
ATOM     11  C   UNL     1       7.248  14.126  23.114  0.00  0.00    +0.000 A 
ATOM     12  C   UNL     1       5.887  14.272  22.811  0.00  0.00    +0.000 A 
ATOM     13  N   UNL     1       5.269  13.102  23.159  0.00  0.00    +0.000 NA
ATOM     14  N   UNL     1       6.211  12.192  23.418  0.00  0.00    +0.000 NA
ATOM     15  C   UNL     1       5.168  15.349  21.962  0.00  0.00    +0.000 C 
ATOM     16  O   UNL     1       5.007  14.905  20.572  0.00  0.00    +0.000 OA
ATOM     17  C   UNL     1       5.093  15.825  19.452  0.00  0.00    +0.000 C 
ENDROOT
BRANCH   4  18
ATOM     18  C   UNL     1       8.968  14.840  19.893  0.00  0.00    +0.000 C 
ATOM     19  C   UNL     1       7.528  14.354  20.232  0.00  0.00    +0.000 C 
BRANCH  18  20
ATOM     20  C   UNL     1       9.833  16.082  19.855  0.00  0.00    +0.000 C 
BRANCH  20  21
ATOM     21  O   UNL     1      11.174  15.771  20.287  0.00  0.00    +0.000 OA
ATOM     22  H   UNL     1      11.130  14.949  20.805  0.00  0.00    +0.000 HD
ENDBRANCH  20  21
ENDBRANCH  18  20
ENDBRANCH   4  18
BRANCH  17  23
ATOM     23  C   UNL     1       3.983  15.552  18.406  0.00  0.00    +0.000 C 
BRANCH  23  24
ATOM     24  N   UNL     1       2.609  15.369  18.951  0.00  0.00    +0.000 NA
ATOM     25  C   UNL     1       1.653  16.425  18.525  0.00  0.00    +0.000 C 
BRANCH  24  26
ATOM     26  S   UNL     1       2.006  13.778  18.845  0.00  0.00    +0.000 S 
ATOM     27  C   UNL     1       2.044  13.250  20.561  0.00  0.00    +0.000 C 
ATOM     28  O   UNL     1       0.602  13.825  18.455  0.00  0.00    +0.000 OA
ATOM     29  O   UNL     1       2.975  12.955  18.130  0.00  0.00    +0.000 OA
ENDBRANCH  24  26
ENDBRANCH  23  24
ENDBRANCH  17  23
TORSDOF 6
ENDMDL
MODEL 7
REMARK VINA RESULT:      -5.1      2.923      4.633
REMARK  Name = 
REMARK  10 active torsions:
REMARK  status: ('A' for Active; 'I' for Inactive)
REMARK    1  A    between atoms: C_1  and  C_2
REMARK    2  A    between atoms: N_4  and  C_5
REMARK    3  A    between atoms: C_5  and  C_6
REMARK    4  A    between atoms: C_5  and  C_7
REMARK    5  A    between atoms: C_7  and  O_8
REMARK    6  A    between atoms: C_21  and  C_22
REMARK    7  A    between atoms: C_22  and  N_23
REMARK    8  A    between atoms: N_23  and  C_24
REMARK    9  A    between atoms: N_23  and  S_25
REMARK   10  A    between atoms: S_25  and  C_26
REMARK                            x       y       z     vdW  Elec       q    Type
REMARK                         _______ _______ _______ _____ _____    ______ ____
ROOT
ATOM      1  C   UNL     1      -3.613  15.544  20.812  0.00  0.00    +0.000 C 
ATOM      2  C   UNL     1      -3.736  14.536  21.982  0.00  0.00    +0.000 C 
ATOM      3  C   UNL     1      -5.344  13.806  22.357  0.00  0.00    +0.000 C 
ATOM      4  N   UNL     1      -6.187  13.006  21.248  0.00  0.00    +0.000 N 
ATOM      5  C   UNL     1      -6.919  11.783  21.166  0.00  0.00    +0.000 C 
ATOM      6  O   UNL     1      -7.661  11.422  22.082  0.00  0.00    +0.000 OA
ATOM      7  C   UNL     1      -6.859  10.802  19.687  0.00  0.00    +0.000 C 
ATOM      8  C   UNL     1      -5.929  10.933  18.308  0.00  0.00    +0.000 C 
ATOM      9  C   UNL     1      -4.739  10.002  17.896  0.00  0.00    +0.000 C 
ATOM     10  N   UNL     1      -3.383  10.622  17.883  0.00  0.00    +0.000 N 
ATOM     11  C   UNL     1      -2.998  11.958  17.869  0.00  0.00    +0.000 A 
ATOM     12  C   UNL     1      -1.873  11.957  18.705  0.00  0.00    +0.000 A 
ATOM     13  N   UNL     1      -1.392  10.676  18.730  0.00  0.00    +0.000 NA
ATOM     14  N   UNL     1      -2.298   9.876  18.163  0.00  0.00    +0.000 NA
ATOM     15  C   UNL     1      -1.374  13.031  19.702  0.00  0.00    +0.000 C 
ATOM     16  O   UNL     1      -1.871  12.766  21.058  0.00  0.00    +0.000 OA
ATOM     17  C   UNL     1      -2.232  13.834  21.972  0.00  0.00    +0.000 C 
ENDROOT
BRANCH   4  18
ATOM     18  C   UNL     1      -5.709  13.339  20.011  0.00  0.00    +0.000 C 
ATOM     19  C   UNL     1      -4.377  12.599  20.335  0.00  0.00    +0.000 C 
BRANCH  18  20
ATOM     20  C   UNL     1      -6.258  14.690  19.605  0.00  0.00    +0.000 C 
BRANCH  20  21
ATOM     21  O   UNL     1      -7.545  14.536  18.971  0.00  0.00    +0.000 OA
ATOM     22  H   UNL     1      -7.865  15.426  18.742  0.00  0.00    +0.000 HD
ENDBRANCH  20  21
ENDBRANCH  18  20
ENDBRANCH   4  18
BRANCH  17  23
ATOM     23  C   UNL     1      -1.707  13.559  23.404  0.00  0.00    +0.000 C 
BRANCH  23  24
ATOM     24  N   UNL     1      -0.818  14.605  23.981  0.00  0.00    +0.000 NA
ATOM     25  C   UNL     1      -0.152  15.453  22.958  0.00  0.00    +0.000 C 
BRANCH  24  26
ATOM     26  S   UNL     1      -1.487  15.465  25.292  0.00  0.00    +0.000 S 
ATOM     27  C   UNL     1      -1.886  17.045  24.536  0.00  0.00    +0.000 C 
ATOM     28  O   UNL     1      -2.756  14.852  25.666  0.00  0.00    +0.000 OA
ATOM     29  O   UNL     1      -0.438  15.720  26.272  0.00  0.00    +0.000 OA
ENDBRANCH  24  26
ENDBRANCH  23  24
ENDBRANCH  17  23
TORSDOF 6
ENDMDL
MODEL 8
REMARK VINA RESULT:      -5.0      7.884     11.529
REMARK  Name = 
REMARK  10 active torsions:
REMARK  status: ('A' for Active; 'I' for Inactive)
REMARK    1  A    between atoms: C_1  and  C_2
REMARK    2  A    between atoms: N_4  and  C_5
REMARK    3  A    between atoms: C_5  and  C_6
REMARK    4  A    between atoms: C_5  and  C_7
REMARK    5  A    between atoms: C_7  and  O_8
REMARK    6  A    between atoms: C_21  and  C_22
REMARK    7  A    between atoms: C_22  and  N_23
REMARK    8  A    between atoms: N_23  and  C_24
REMARK    9  A    between atoms: N_23  and  S_25
REMARK   10  A    between atoms: S_25  and  C_26
REMARK                            x       y       z     vdW  Elec       q    Type
REMARK                         _______ _______ _______ _____ _____    ______ ____
ROOT
ATOM      1  C   UNL     1       6.185  17.318  19.660  0.00  0.00    +0.000 C 
ATOM      2  C   UNL     1       5.866  16.126  18.724  0.00  0.00    +0.000 C 
ATOM      3  C   UNL     1       7.209  15.326  17.819  0.00  0.00    +0.000 C 
ATOM      4  N   UNL     1       8.489  14.717  18.575  0.00  0.00    +0.000 N 
ATOM      5  C   UNL     1       9.263  13.517  18.529  0.00  0.00    +0.000 C 
ATOM      6  O   UNL     1       9.571  12.999  17.454  0.00  0.00    +0.000 OA
ATOM      7  C   UNL     1       9.893  12.802  20.027  0.00  0.00    +0.000 C 
ATOM      8  C   UNL     1       9.624  13.173  21.631  0.00  0.00    +0.000 C 
ATOM      9  C   UNL     1       8.779  12.338  22.652  0.00  0.00    +0.000 C 
ATOM     10  N   UNL     1       7.519  12.965  23.142  0.00  0.00    +0.000 N 
ATOM     11  C   UNL     1       7.092  14.289  23.109  0.00  0.00    +0.000 A 
ATOM     12  C   UNL     1       5.722  14.158  22.842  0.00  0.00    +0.000 A 
ATOM     13  N   UNL     1       5.356  12.896  23.226  0.00  0.00    +0.000 NA
ATOM     14  N   UNL     1       6.465  12.195  23.472  0.00  0.00    +0.000 NA
ATOM     15  C   UNL     1       4.784  15.053  21.997  0.00  0.00    +0.000 C 
ATOM     16  O   UNL     1       4.678  14.557  20.619  0.00  0.00    +0.000 OA
ATOM     17  C   UNL     1       4.554  15.452  19.483  0.00  0.00    +0.000 C 
ENDROOT
BRANCH   4  18
ATOM     18  C   UNL     1       8.556  15.259  19.828  0.00  0.00    +0.000 C 
ATOM     19  C   UNL     1       7.268  14.480  20.226  0.00  0.00    +0.000 C 
BRANCH  18  20
ATOM     20  C   UNL     1       9.130  16.657  19.743  0.00  0.00    +0.000 C 
BRANCH  20  21
ATOM     21  O   UNL     1       9.845  16.980  20.953  0.00  0.00    +0.000 OA
ATOM     22  H   UNL     1      10.382  17.770  20.773  0.00  0.00    +0.000 HD
ENDBRANCH  20  21
ENDBRANCH  18  20
ENDBRANCH   4  18
BRANCH  17  23
ATOM     23  C   UNL     1       3.493  14.944  18.474  0.00  0.00    +0.000 C 
BRANCH  23  24
ATOM     24  N   UNL     1       2.142  15.560  18.587  0.00  0.00    +0.000 NA
ATOM     25  C   UNL     1       1.413  15.175  19.824  0.00  0.00    +0.000 C 
BRANCH  24  26
ATOM     26  S   UNL     1       2.084  17.223  18.215  0.00  0.00    +0.000 S 
ATOM     27  C   UNL     1       0.336  17.469  17.883  0.00  0.00    +0.000 C 
ATOM     28  O   UNL     1       2.390  17.991  19.416  0.00  0.00    +0.000 OA
ATOM     29  O   UNL     1       2.788  17.449  16.958  0.00  0.00    +0.000 OA
ENDBRANCH  24  26
ENDBRANCH  23  24
ENDBRANCH  17  23
TORSDOF 6
ENDMDL
MODEL 9
REMARK VINA RESULT:      -5.0      7.861     11.525
REMARK  Name = 
REMARK  10 active torsions:
REMARK  status: ('A' for Active; 'I' for Inactive)
REMARK    1  A    between atoms: C_1  and  C_2
REMARK    2  A    between atoms: N_4  and  C_5
REMARK    3  A    between atoms: C_5  and  C_6
REMARK    4  A    between atoms: C_5  and  C_7
REMARK    5  A    between atoms: C_7  and  O_8
REMARK    6  A    between atoms: C_21  and  C_22
REMARK    7  A    between atoms: C_22  and  N_23
REMARK    8  A    between atoms: N_23  and  C_24
REMARK    9  A    between atoms: N_23  and  S_25
REMARK   10  A    between atoms: S_25  and  C_26
REMARK                            x       y       z     vdW  Elec       q    Type
REMARK                         _______ _______ _______ _____ _____    ______ ____
ROOT
ATOM      1  C   UNL     1       7.376  17.237  19.576  0.00  0.00    +0.000 C 
ATOM      2  C   UNL     1       6.820  16.158  18.614  0.00  0.00    +0.000 C 
ATOM      3  C   UNL     1       7.957  14.976  17.856  0.00  0.00    +0.000 C 
ATOM      4  N   UNL     1       8.925  14.050  18.742  0.00  0.00    +0.000 N 
ATOM      5  C   UNL     1       9.320  12.678  18.779  0.00  0.00    +0.000 C 
ATOM      6  O   UNL     1       9.569  12.058  17.744  0.00  0.00    +0.000 OA
ATOM      7  C   UNL     1       9.565  11.860  20.337  0.00  0.00    +0.000 C 
ATOM      8  C   UNL     1       9.258  12.345  21.903  0.00  0.00    +0.000 C 
ATOM      9  C   UNL     1       8.111  11.821  22.833  0.00  0.00    +0.000 C 
ATOM     10  N   UNL     1       7.044  12.800  23.188  0.00  0.00    +0.000 N 
ATOM     11  C   UNL     1       7.024  14.188  23.108  0.00  0.00    +0.000 A 
ATOM     12  C   UNL     1       5.708  14.447  22.700  0.00  0.00    +0.000 A 
ATOM     13  N   UNL     1       4.957  13.357  23.048  0.00  0.00    +0.000 NA
ATOM     14  N   UNL     1       5.786  12.375  23.409  0.00  0.00    +0.000 NA
ATOM     15  C   UNL     1       5.157  15.547  21.761  0.00  0.00    +0.000 C 
ATOM     16  O   UNL     1       5.049  15.058  20.381  0.00  0.00    +0.000 OA
ATOM     17  C   UNL     1       5.301  15.913  19.235  0.00  0.00    +0.000 C 
ENDROOT
BRANCH   4  18
ATOM     18  C   UNL     1       9.022  14.590  19.995  0.00  0.00    +0.000 C 
ATOM     19  C   UNL     1       7.542  14.194  20.272  0.00  0.00    +0.000 C 
BRANCH  18  20
ATOM     20  C   UNL     1       9.955  15.782  19.958  0.00  0.00    +0.000 C 
BRANCH  20  21
ATOM     21  O   UNL     1      11.195  15.427  19.314  0.00  0.00    +0.000 OA
ATOM     22  H   UNL     1      11.156  14.478  19.108  0.00  0.00    +0.000 HD
ENDBRANCH  20  21
ENDBRANCH  18  20
ENDBRANCH   4  18
BRANCH  17  23
ATOM     23  C   UNL     1       4.244  15.699  18.122  0.00  0.00    +0.000 C 
BRANCH  23  24
ATOM     24  N   UNL     1       3.031  16.560  18.206  0.00  0.00    +0.000 NA
ATOM     25  C   UNL     1       2.668  17.205  16.917  0.00  0.00    +0.000 C 
BRANCH  24  26
ATOM     26  S   UNL     1       1.721  15.865  19.048  0.00  0.00    +0.000 S 
ATOM     27  C   UNL     1       1.842  16.668  20.650  0.00  0.00    +0.000 C 
ATOM     28  O   UNL     1       0.473  16.322  18.448  0.00  0.00    +0.000 OA
ATOM     29  O   UNL     1       1.998  14.450  19.264  0.00  0.00    +0.000 OA
ENDBRANCH  24  26
ENDBRANCH  23  24
ENDBRANCH  17  23
TORSDOF 6
ENDMDL
