MODEL 1
REMARK VINA RESULT:      -7.8      0.000      0.000
REMARK  Name = 
REMARK  4 active torsions:
REMARK  status: ('A' for Active; 'I' for Inactive)
REMARK    1  A    between atoms: C_1  and  C_2
REMARK    2  A    between atoms: C_6  and  C_7
REMARK    3  A    between atoms: C_7  and  N_8
REMARK    4  A    between atoms: N_8  and  C_9
REMARK                            x       y       z     vdW  Elec       q    Type
REMARK                         _______ _______ _______ _____ _____    ______ ____
ROOT
ATOM      1  N   UNL     1       5.734   3.877  16.917  0.00  0.00    +0.000 N 
ATOM      2  H   UNL     1       6.262   3.212  16.363  0.00  0.00    +0.000 HD
ENDROOT
BRANCH   1   3
ATOM      3  C   UNL     1       6.485   4.855  17.528  0.00  0.00    +0.000 A 
ATOM      4  C   UNL     1       6.776   6.031  16.949  0.00  0.00    +0.000 A 
ATOM      5  C   UNL     1       7.581   7.036  17.660  0.00  0.00    +0.000 A 
ATOM      6  O   UNL     1       7.855   8.111  17.138  0.00  0.00    +0.000 OA
ATOM      7  N   UNL     1       7.996   6.693  18.911  0.00  0.00    +0.000 N 
ATOM      8  C   UNL     1       7.704   5.511  19.519  0.00  0.00    +0.000 A 
ATOM      9  O   UNL     1       8.105   5.242  20.648  0.00  0.00    +0.000 OA
ATOM     10  N   UNL     1       6.942   4.636  18.797  0.00  0.00    +0.000 N 
ATOM     11  H   UNL     1       8.552   7.358  19.421  0.00  0.00    +0.000 HD
ATOM     12  H   UNL     1       6.736   3.764  19.260  0.00  0.00    +0.000 HD
ENDBRANCH   1   3
BRANCH   1  13
ATOM     13  C   UNL     1       4.339   3.992  16.512  0.00  0.00    +0.000 C 
BRANCH  13  19
ATOM     14  C   UNL     1       1.756   5.513  20.597  0.00  0.00    +0.000 C 
ATOM     15  C   UNL     1       2.090   4.448  19.595  0.00  0.00    +0.000 A 
ATOM     16  C   UNL     1       1.476   3.193  19.648  0.00  0.00    +0.000 A 
ATOM     17  C   UNL     1       1.797   2.213  18.709  0.00  0.00    +0.000 A 
ATOM     18  C   UNL     1       2.739   2.478  17.716  0.00  0.00    +0.000 A 
ATOM     19  C   UNL     1       3.380   3.724  17.647  0.00  0.00    +0.000 A 
ATOM     20  C   UNL     1       3.032   4.707  18.588  0.00  0.00    +0.000 A 
ENDBRANCH  13  19
ENDBRANCH   1  13
TORSDOF 3
ENDMDL
MODEL 2
REMARK VINA RESULT:      -7.8      1.656      2.412
REMARK  Name = 
REMARK  4 active torsions:
REMARK  status: ('A' for Active; 'I' for Inactive)
REMARK    1  A    between atoms: C_1  and  C_2
REMARK    2  A    between atoms: C_6  and  C_7
REMARK    3  A    between atoms: C_7  and  N_8
REMARK    4  A    between atoms: N_8  and  C_9
REMARK                            x       y       z     vdW  Elec       q    Type
REMARK                         _______ _______ _______ _____ _____    ______ ____
ROOT
ATOM      1  N   UNL     1       4.283   2.954  17.067  0.00  0.00    +0.000 N 
ATOM      2  H   UNL     1       4.357   1.984  16.781  0.00  0.00    +0.000 HD
ENDROOT
BRANCH   1   3
ATOM      3  C   UNL     1       5.426   3.702  16.898  0.00  0.00    +0.000 A 
ATOM      4  C   UNL     1       5.843   4.151  15.703  0.00  0.00    +0.000 A 
ATOM      5  C   UNL     1       7.073   4.951  15.592  0.00  0.00    +0.000 A 
ATOM      6  O   UNL     1       7.463   5.362  14.505  0.00  0.00    +0.000 OA
ATOM      7  N   UNL     1       7.735   5.192  16.757  0.00  0.00    +0.000 N 
ATOM      8  C   UNL     1       7.324   4.754  17.978  0.00  0.00    +0.000 A 
ATOM      9  O   UNL     1       7.958   4.992  19.003  0.00  0.00    +0.000 OA
ATOM     10  N   UNL     1       6.167   4.029  17.998  0.00  0.00    +0.000 N 
ATOM     11  H   UNL     1       8.582   5.732  16.712  0.00  0.00    +0.000 HD
ATOM     12  H   UNL     1       5.877   3.710  18.910  0.00  0.00    +0.000 HD
ENDBRANCH   1   3
BRANCH   1  13
ATOM     13  C   UNL     1       2.917   3.459  17.060  0.00  0.00    +0.000 C 
BRANCH  13  19
ATOM     14  C   UNL     1       1.389   2.681  21.828  0.00  0.00    +0.000 C 
ATOM     15  C   UNL     1       1.784   3.622  20.729  0.00  0.00    +0.000 A 
ATOM     16  C   UNL     1       1.818   5.003  20.943  0.00  0.00    +0.000 A 
ATOM     17  C   UNL     1       2.188   5.866  19.912  0.00  0.00    +0.000 A 
ATOM     18  C   UNL     1       2.519   5.355  18.657  0.00  0.00    +0.000 A 
ATOM     19  C   UNL     1       2.480   3.974  18.411  0.00  0.00    +0.000 A 
ATOM     20  C   UNL     1       2.125   3.117  19.465  0.00  0.00    +0.000 A 
ENDBRANCH  13  19
ENDBRANCH   1  13
TORSDOF 3
ENDMDL
MODEL 3
REMARK VINA RESULT:      -7.7      1.807      2.491
REMARK  Name = 
REMARK  4 active torsions:
REMARK  status: ('A' for Active; 'I' for Inactive)
REMARK    1  A    between atoms: C_1  and  C_2
REMARK    2  A    between atoms: C_6  and  C_7
REMARK    3  A    between atoms: C_7  and  N_8
REMARK    4  A    between atoms: N_8  and  C_9
REMARK                            x       y       z     vdW  Elec       q    Type
REMARK                         _______ _______ _______ _____ _____    ______ ____
ROOT
ATOM      1  N   UNL     1       5.771   3.825  19.099  0.00  0.00    +0.000 N 
ATOM      2  H   UNL     1       6.430   3.643  19.847  0.00  0.00    +0.000 HD
ENDROOT
BRANCH   1   3
ATOM      3  C   UNL     1       6.269   4.563  18.049  0.00  0.00    +0.000 A 
ATOM      4  C   UNL     1       6.758   5.805  18.189  0.00  0.00    +0.000 A 
ATOM      5  C   UNL     1       7.282   6.538  17.025  0.00  0.00    +0.000 A 
ATOM      6  O   UNL     1       7.727   7.674  17.141  0.00  0.00    +0.000 OA
ATOM      7  N   UNL     1       7.231   5.880  15.833  0.00  0.00    +0.000 N 
ATOM      8  C   UNL     1       6.747   4.619  15.673  0.00  0.00    +0.000 A 
ATOM      9  O   UNL     1       6.716   4.067  14.577  0.00  0.00    +0.000 OA
ATOM     10  N   UNL     1       6.292   4.002  16.804  0.00  0.00    +0.000 N 
ATOM     11  H   UNL     1       7.577   6.358  15.018  0.00  0.00    +0.000 HD
ATOM     12  H   UNL     1       5.935   3.069  16.668  0.00  0.00    +0.000 HD
ENDBRANCH   1   3
BRANCH   1  13
ATOM     13  C   UNL     1       4.688   2.853  19.028  0.00  0.00    +0.000 C 
BRANCH  13  19
ATOM     14  C   UNL     1       1.782   6.690  20.609  0.00  0.00    +0.000 C 
ATOM     15  C   UNL     1       1.952   5.231  20.303  0.00  0.00    +0.000 A 
ATOM     16  C   UNL     1       0.892   4.335  20.462  0.00  0.00    +0.000 A 
ATOM     17  C   UNL     1       1.065   2.982  20.174  0.00  0.00    +0.000 A 
ATOM     18  C   UNL     1       2.302   2.514  19.732  0.00  0.00    +0.000 A 
ATOM     19  C   UNL     1       3.388   3.389  19.578  0.00  0.00    +0.000 A 
ATOM     20  C   UNL     1       3.192   4.752  19.853  0.00  0.00    +0.000 A 
ENDBRANCH  13  19
ENDBRANCH   1  13
TORSDOF 3
ENDMDL
MODEL 4
REMARK VINA RESULT:      -7.6      0.793      1.713
REMARK  Name = 
REMARK  4 active torsions:
REMARK  status: ('A' for Active; 'I' for Inactive)
REMARK    1  A    between atoms: C_1  and  C_2
REMARK    2  A    between atoms: C_6  and  C_7
REMARK    3  A    between atoms: C_7  and  N_8
REMARK    4  A    between atoms: N_8  and  C_9
REMARK                            x       y       z     vdW  Elec       q    Type
REMARK                         _______ _______ _______ _____ _____    ______ ____
ROOT
ATOM      1  N   UNL     1       6.315   3.930  16.691  0.00  0.00    +0.000 N 
ATOM      2  H   UNL     1       6.958   3.264  16.276  0.00  0.00    +0.000 HD
ENDROOT
BRANCH   1   3
ATOM      3  C   UNL     1       6.907   4.937  17.418  0.00  0.00    +0.000 A 
ATOM      4  C   UNL     1       7.104   6.175  16.938  0.00  0.00    +0.000 A 
ATOM      5  C   UNL     1       7.738   7.209  17.771  0.00  0.00    +0.000 A 
ATOM      6  O   UNL     1       7.926   8.341  17.340  0.00  0.00    +0.000 OA
ATOM      7  N   UNL     1       8.099   6.824  19.027  0.00  0.00    +0.000 N 
ATOM      8  C   UNL     1       7.899   5.578  19.535  0.00  0.00    +0.000 A 
ATOM      9  O   UNL     1       8.247   5.275  20.673  0.00  0.00    +0.000 OA
ATOM     10  N   UNL     1       7.294   4.680  18.703  0.00  0.00    +0.000 N 
ATOM     11  H   UNL     1       8.540   7.508  19.619  0.00  0.00    +0.000 HD
ATOM     12  H   UNL     1       7.155   3.761  19.093  0.00  0.00    +0.000 HD
ENDBRANCH   1   3
BRANCH   1  13
ATOM     13  C   UNL     1       5.033   4.005  16.003  0.00  0.00    +0.000 C 
BRANCH  13  19
ATOM     14  C   UNL     1       1.189   2.209  18.771  0.00  0.00    +0.000 C 
ATOM     15  C   UNL     1       2.043   3.360  18.328  0.00  0.00    +0.000 A 
ATOM     16  C   UNL     1       1.829   4.648  18.829  0.00  0.00    +0.000 A 
ATOM     17  C   UNL     1       2.632   5.707  18.409  0.00  0.00    +0.000 A 
ATOM     18  C   UNL     1       3.649   5.489  17.480  0.00  0.00    +0.000 A 
ATOM     19  C   UNL     1       3.876   4.210  16.950  0.00  0.00    +0.000 A 
ATOM     20  C   UNL     1       3.072   3.149  17.398  0.00  0.00    +0.000 A 
ENDBRANCH  13  19
ENDBRANCH   1  13
TORSDOF 3
ENDMDL
MODEL 5
REMARK VINA RESULT:      -7.6      1.863      2.395
REMARK  Name = 
REMARK  4 active torsions:
REMARK  status: ('A' for Active; 'I' for Inactive)
REMARK    1  A    between atoms: C_1  and  C_2
REMARK    2  A    between atoms: C_6  and  C_7
REMARK    3  A    between atoms: C_7  and  N_8
REMARK    4  A    between atoms: N_8  and  C_9
REMARK                            x       y       z     vdW  Elec       q    Type
REMARK                         _______ _______ _______ _____ _____    ______ ____
ROOT
ATOM      1  N   UNL     1       3.857   3.549  16.607  0.00  0.00    +0.000 N 
ATOM      2  H   UNL     1       3.120   4.176  16.303  0.00  0.00    +0.000 HD
ENDROOT
BRANCH   1   3
ATOM      3  C   UNL     1       5.137   3.987  16.353  0.00  0.00    +0.000 A 
ATOM      4  C   UNL     1       5.552   4.388  15.140  0.00  0.00    +0.000 A 
ATOM      5  C   UNL     1       6.934   4.850  14.938  0.00  0.00    +0.000 A 
ATOM      6  O   UNL     1       7.324   5.215  13.834  0.00  0.00    +0.000 OA
ATOM      7  N   UNL     1       7.735   4.838  16.040  0.00  0.00    +0.000 N 
ATOM      8  C   UNL     1       7.331   4.444  17.278  0.00  0.00    +0.000 A 
ATOM      9  O   UNL     1       8.090   4.445  18.242  0.00  0.00    +0.000 OA
ATOM     10  N   UNL     1       6.030   4.041  17.385  0.00  0.00    +0.000 N 
ATOM     11  H   UNL     1       8.687   5.143  15.932  0.00  0.00    +0.000 HD
ATOM     12  H   UNL     1       5.746   3.750  18.308  0.00  0.00    +0.000 HD
ENDBRANCH   1   3
BRANCH   1  13
ATOM     13  C   UNL     1       3.452   2.655  17.683  0.00  0.00    +0.000 C 
BRANCH  13  19
ATOM     14  C   UNL     1       2.119   6.899  20.108  0.00  0.00    +0.000 C 
ATOM     15  C   UNL     1       2.020   5.410  19.946  0.00  0.00    +0.000 A 
ATOM     16  C   UNL     1       1.190   4.651  20.776  0.00  0.00    +0.000 A 
ATOM     17  C   UNL     1       1.108   3.269  20.613  0.00  0.00    +0.000 A 
ATOM     18  C   UNL     1       1.860   2.635  19.624  0.00  0.00    +0.000 A 
ATOM     19  C   UNL     1       2.712   3.371  18.787  0.00  0.00    +0.000 A 
ATOM     20  C   UNL     1       2.769   4.765  18.950  0.00  0.00    +0.000 A 
ENDBRANCH  13  19
ENDBRANCH   1  13
TORSDOF 3
ENDMDL
MODEL 6
REMARK VINA RESULT:      -7.5      0.944      1.107
REMARK  Name = 
REMARK  4 active torsions:
REMARK  status: ('A' for Active; 'I' for Inactive)
REMARK    1  A    between atoms: C_1  and  C_2
REMARK    2  A    between atoms: C_6  and  C_7
REMARK    3  A    between atoms: C_7  and  N_8
REMARK    4  A    between atoms: N_8  and  C_9
REMARK                            x       y       z     vdW  Elec       q    Type
REMARK                         _______ _______ _______ _____ _____    ______ ____
ROOT
ATOM      1  N   UNL     1       6.403   3.924  16.604  0.00  0.00    +0.000 N 
ATOM      2  H   UNL     1       7.065   3.316  16.133  0.00  0.00    +0.000 HD
ENDROOT
BRANCH   1   3
ATOM      3  C   UNL     1       6.966   4.930  17.354  0.00  0.00    +0.000 A 
ATOM      4  C   UNL     1       7.168   6.173  16.888  0.00  0.00    +0.000 A 
ATOM      5  C   UNL     1       7.771   7.205  17.746  0.00  0.00    +0.000 A 
ATOM      6  O   UNL     1       7.963   8.342  17.328  0.00  0.00    +0.000 OA
ATOM      7  N   UNL     1       8.100   6.815  19.009  0.00  0.00    +0.000 N 
ATOM      8  C   UNL     1       7.895   5.563  19.503  0.00  0.00    +0.000 A 
ATOM      9  O   UNL     1       8.213   5.255  20.648  0.00  0.00    +0.000 OA
ATOM     10  N   UNL     1       7.319   4.667  18.648  0.00  0.00    +0.000 N 
ATOM     11  H   UNL     1       8.519   7.497  19.618  0.00  0.00    +0.000 HD
ATOM     12  H   UNL     1       7.176   3.744  19.028  0.00  0.00    +0.000 HD
ENDBRANCH   1   3
BRANCH   1  13
ATOM     13  C   UNL     1       5.091   3.955  15.971  0.00  0.00    +0.000 C 
BRANCH  13  19
ATOM     14  C   UNL     1       2.394   7.101  18.886  0.00  0.00    +0.000 C 
ATOM     15  C   UNL     1       2.634   5.727  18.335  0.00  0.00    +0.000 A 
ATOM     16  C   UNL     1       1.793   4.661  18.671  0.00  0.00    +0.000 A 
ATOM     17  C   UNL     1       2.028   3.390  18.150  0.00  0.00    +0.000 A 
ATOM     18  C   UNL     1       3.109   3.172  17.297  0.00  0.00    +0.000 A 
ATOM     19  C   UNL     1       3.977   4.220  16.955  0.00  0.00    +0.000 A 
ATOM     20  C   UNL     1       3.716   5.499  17.471  0.00  0.00    +0.000 A 
ENDBRANCH  13  19
ENDBRANCH   1  13
TORSDOF 3
ENDMDL
MODEL 7
REMARK VINA RESULT:      -7.4      1.886      2.913
REMARK  Name = 
REMARK  4 active torsions:
REMARK  status: ('A' for Active; 'I' for Inactive)
REMARK    1  A    between atoms: C_1  and  C_2
REMARK    2  A    between atoms: C_6  and  C_7
REMARK    3  A    between atoms: C_7  and  N_8
REMARK    4  A    between atoms: N_8  and  C_9
REMARK                            x       y       z     vdW  Elec       q    Type
REMARK                         _______ _______ _______ _____ _____    ______ ____
ROOT
ATOM      1  N   UNL     1       3.994   6.519  18.157  0.00  0.00    +0.000 N 
ATOM      2  H   UNL     1       4.096   7.007  19.039  0.00  0.00    +0.000 HD
ENDROOT
BRANCH   1   3
ATOM      3  C   UNL     1       5.151   5.963  17.660  0.00  0.00    +0.000 A 
ATOM      4  C   UNL     1       6.116   5.450  18.440  0.00  0.00    +0.000 A 
ATOM      5  C   UNL     1       7.328   4.865  17.844  0.00  0.00    +0.000 A 
ATOM      6  O   UNL     1       8.216   4.397  18.548  0.00  0.00    +0.000 OA
ATOM      7  N   UNL     1       7.393   4.885  16.484  0.00  0.00    +0.000 N 
ATOM      8  C   UNL     1       6.422   5.392  15.676  0.00  0.00    +0.000 A 
ATOM      9  O   UNL     1       6.527   5.394  14.453  0.00  0.00    +0.000 OA
ATOM     10  N   UNL     1       5.324   5.905  16.306  0.00  0.00    +0.000 N 
ATOM     11  H   UNL     1       8.212   4.497  16.047  0.00  0.00    +0.000 HD
ATOM     12  H   UNL     1       4.615   6.279  15.694  0.00  0.00    +0.000 HD
ENDBRANCH   1   3
BRANCH   1  13
ATOM     13  C   UNL     1       2.639   6.048  17.907  0.00  0.00    +0.000 C 
BRANCH  13  19
ATOM     14  C   UNL     1       1.444   2.766  21.577  0.00  0.00    +0.000 C 
ATOM     15  C   UNL     1       1.796   3.040  20.145  0.00  0.00    +0.000 A 
ATOM     16  C   UNL     1       1.865   2.002  19.211  0.00  0.00    +0.000 A 
ATOM     17  C   UNL     1       2.192   2.272  17.883  0.00  0.00    +0.000 A 
ATOM     18  C   UNL     1       2.461   3.580  17.481  0.00  0.00    +0.000 A 
ATOM     19  C   UNL     1       2.413   4.639  18.400  0.00  0.00    +0.000 A 
ATOM     20  C   UNL     1       2.061   4.353  19.730  0.00  0.00    +0.000 A 
ENDBRANCH  13  19
ENDBRANCH   1  13
TORSDOF 3
ENDMDL
MODEL 8
REMARK VINA RESULT:      -7.4      1.208      2.405
REMARK  Name = 
REMARK  4 active torsions:
REMARK  status: ('A' for Active; 'I' for Inactive)
REMARK    1  A    between atoms: C_1  and  C_2
REMARK    2  A    between atoms: C_6  and  C_7
REMARK    3  A    between atoms: C_7  and  N_8
REMARK    4  A    between atoms: N_8  and  C_9
REMARK                            x       y       z     vdW  Elec       q    Type
REMARK                         _______ _______ _______ _____ _____    ______ ____
ROOT
ATOM      1  N   UNL     1       4.444   5.866  17.142  0.00  0.00    +0.000 N 
ATOM      2  H   UNL     1       4.391   6.053  16.147  0.00  0.00    +0.000 HD
ENDROOT
BRANCH   1   3
ATOM      3  C   UNL     1       5.659   6.146  17.725  0.00  0.00    +0.000 A 
ATOM      4  C   UNL     1       6.152   5.460  18.768  0.00  0.00    +0.000 A 
ATOM      5  C   UNL     1       7.462   5.808  19.341  0.00  0.00    +0.000 A 
ATOM      6  O   UNL     1       7.919   5.190  20.296  0.00  0.00    +0.000 OA
ATOM      7  N   UNL     1       8.113   6.849  18.752  0.00  0.00    +0.000 N 
ATOM      8  C   UNL     1       7.634   7.551  17.689  0.00  0.00    +0.000 A 
ATOM      9  O   UNL     1       8.255   8.488  17.194  0.00  0.00    +0.000 OA
ATOM     10  N   UNL     1       6.418   7.158  17.208  0.00  0.00    +0.000 N 
ATOM     11  H   UNL     1       9.009   7.115  19.125  0.00  0.00    +0.000 HD
ATOM     12  H   UNL     1       6.076   7.689  16.422  0.00  0.00    +0.000 HD
ENDBRANCH   1   3
BRANCH   1  13
ATOM     13  C   UNL     1       3.148   5.883  17.806  0.00  0.00    +0.000 C 
BRANCH  13  19
ATOM     14  C   UNL     1       1.341   2.840  21.432  0.00  0.00    +0.000 C 
ATOM     15  C   UNL     1       1.819   3.040  20.024  0.00  0.00    +0.000 A 
ATOM     16  C   UNL     1       1.835   1.980  19.113  0.00  0.00    +0.000 A 
ATOM     17  C   UNL     1       2.282   2.181  17.808  0.00  0.00    +0.000 A 
ATOM     18  C   UNL     1       2.723   3.441  17.406  0.00  0.00    +0.000 A 
ATOM     19  C   UNL     1       2.731   4.520  18.304  0.00  0.00    +0.000 A 
ATOM     20  C   UNL     1       2.259   4.306  19.609  0.00  0.00    +0.000 A 
ENDBRANCH  13  19
ENDBRANCH   1  13
TORSDOF 3
ENDMDL
MODEL 9
REMARK VINA RESULT:      -7.4      2.061      2.638
REMARK  Name = 
REMARK  4 active torsions:
REMARK  status: ('A' for Active; 'I' for Inactive)
REMARK    1  A    between atoms: C_1  and  C_2
REMARK    2  A    between atoms: C_6  and  C_7
REMARK    3  A    between atoms: C_7  and  N_8
REMARK    4  A    between atoms: N_8  and  C_9
REMARK                            x       y       z     vdW  Elec       q    Type
REMARK                         _______ _______ _______ _____ _____    ______ ____
ROOT
ATOM      1  N   UNL     1       3.940   6.831  17.559  0.00  0.00    +0.000 N 
ATOM      2  H   UNL     1       4.071   7.759  17.171  0.00  0.00    +0.000 HD
ENDROOT
BRANCH   1   3
ATOM      3  C   UNL     1       4.977   5.954  17.334  0.00  0.00    +0.000 A 
ATOM      4  C   UNL     1       5.066   5.184  16.238  0.00  0.00    +0.000 A 
ATOM      5  C   UNL     1       6.205   4.269  16.057  0.00  0.00    +0.000 A 
ATOM      6  O   UNL     1       6.294   3.559  15.062  0.00  0.00    +0.000 OA
ATOM      7  N   UNL     1       7.131   4.264  17.056  0.00  0.00    +0.000 N 
ATOM      8  C   UNL     1       7.063   5.043  18.170  0.00  0.00    +0.000 A 
ATOM      9  O   UNL     1       7.919   5.001  19.049  0.00  0.00    +0.000 OA
ATOM     10  N   UNL     1       5.981   5.873  18.257  0.00  0.00    +0.000 N 
ATOM     11  H   UNL     1       7.919   3.645  16.964  0.00  0.00    +0.000 HD
ATOM     12  H   UNL     1       5.944   6.442  19.088  0.00  0.00    +0.000 HD
ENDBRANCH   1   3
BRANCH   1  13
ATOM     13  C   UNL     1       3.012   6.796  18.681  0.00  0.00    +0.000 C 
BRANCH  13  19
ATOM     14  C   UNL     1       1.861   2.939  21.758  0.00  0.00    +0.000 C 
ATOM     15  C   UNL     1       1.837   3.563  20.394  0.00  0.00    +0.000 A 
ATOM     16  C   UNL     1       1.231   2.911  19.316  0.00  0.00    +0.000 A 
ATOM     17  C   UNL     1       1.217   3.503  18.054  0.00  0.00    +0.000 A 
ATOM     18  C   UNL     1       1.815   4.748  17.859  0.00  0.00    +0.000 A 
ATOM     19  C   UNL     1       2.442   5.418  18.920  0.00  0.00    +0.000 A 
ATOM     20  C   UNL     1       2.431   4.818  20.189  0.00  0.00    +0.000 A 
ENDBRANCH  13  19
ENDBRANCH   1  13
TORSDOF 3
ENDMDL
