MODEL 1
REMARK VINA RESULT:      -9.1      0.000      0.000
REMARK  Name = 
REMARK  12 active torsions:
REMARK  status: ('A' for Active; 'I' for Inactive)
REMARK    1  A    between atoms: C_1  and  N_2
REMARK    2  A    between atoms: N_2  and  C_3
REMARK    3  A    between atoms: N_2  and  C_4
REMARK    4  A    between atoms: C_4  and  C_5
REMARK    5  A    between atoms: C_5  and  O_6
REMARK    6  A    between atoms: C_5  and  C_30
REMARK    7  A    between atoms: O_6  and  C_7
REMARK    8  A    between atoms: C_15  and  N_16
REMARK    9  A    between atoms: N_16  and  C_17
REMARK   10  A    between atoms: N_25  and  C_26
REMARK   11  A    between atoms: C_27  and  C_28
REMARK   12  A    between atoms: C_27  and  C_29
REMARK                            x       y       z     vdW  Elec       q    Type
REMARK                         _______ _______ _______ _____ _____    ______ ____
ROOT
ATOM      1  C   UNL     1       4.088   3.694  17.082  0.00  0.00    +0.000 C 
ATOM      2  O   UNL     1       4.172   2.468  17.083  0.00  0.00    +0.000 OA
ATOM      3  N   UNL     1       3.198   4.397  17.868  0.00  0.00    +0.000 N 
ATOM      4  C   UNL     1       2.900   5.852  17.698  0.00  0.00    +0.000 C 
ATOM      5  C   UNL     1       2.382   6.214  19.034  0.00  0.00    +0.000 A 
ATOM      6  C   UNL     1       2.199   5.058  19.805  0.00  0.00    +0.000 A 
ATOM      7  N   UNL     1       1.747   5.292  21.029  0.00  0.00    +0.000 NA
ATOM      8  N   UNL     1       1.657   6.642  21.031  0.00  0.00    +0.000 N 
ATOM      9  C   UNL     1       2.035   7.269  19.849  0.00  0.00    +0.000 A 
ATOM     10  C   UNL     1       2.603   3.791  19.112  0.00  0.00    +0.000 C 
ATOM     11  C   UNL     1       1.384   2.903  18.808  0.00  0.00    +0.000 C 
ATOM     12  C   UNL     1       3.620   2.997  19.948  0.00  0.00    +0.000 C 
ATOM     13  H   UNL     1       1.338   7.125  21.861  0.00  0.00    +0.000 HD
ENDROOT
BRANCH   9  14
ATOM     14  N   UNL     1       2.019   8.632  19.756  0.00  0.00    +0.000 N 
ATOM     15  H   UNL     1       2.834   9.166  19.463  0.00  0.00    +0.000 HD
BRANCH  14  16
ATOM     16  C   UNL     1       0.858   9.452  19.874  0.00  0.00    +0.000 A 
ATOM     17  N   UNL     1       0.310  10.027  18.749  0.00  0.00    +0.000 NA
ATOM     18  C   UNL     1      -0.686  10.932  18.876  0.00  0.00    +0.000 A 
ATOM     19  N   UNL     1      -1.211  11.427  20.005  0.00  0.00    +0.000 NA
ATOM     20  C   UNL     1      -0.721  10.785  21.075  0.00  0.00    +0.000 A 
ATOM     21  C   UNL     1       0.222   9.764  21.105  0.00  0.00    +0.000 A 
ATOM     22  N   UNL     1       0.337   9.281  22.401  0.00  0.00    +0.000 NA
ATOM     23  C   UNL     1      -0.493  10.011  23.113  0.00  0.00    +0.000 A 
ATOM     24  N   UNL     1      -0.952  11.076  22.391  0.00  0.00    +0.000 N 
ATOM     25  C   UNL     1      -1.162  12.393  22.925  0.00  0.00    +0.000 C 
ENDBRANCH  14  16
ENDBRANCH   9  14
BRANCH   1  26
ATOM     26  O   UNL     1       4.914   4.504  16.362  0.00  0.00    +0.000 OA
BRANCH  26  27
ATOM     27  C   UNL     1       6.237   3.965  16.101  0.00  0.00    +0.000 C 
BRANCH  27  28
ATOM     28  C   UNL     1       6.571   4.101  14.612  0.00  0.00    +0.000 A 
ATOM     29  C   UNL     1       7.503   5.070  14.197  0.00  0.00    +0.000 A 
ATOM     30  C   UNL     1       7.776   5.270  12.841  0.00  0.00    +0.000 A 
ATOM     31  C   UNL     1       7.121   4.507  11.877  0.00  0.00    +0.000 A 
ATOM     32  C   UNL     1       6.192   3.546  12.270  0.00  0.00    +0.000 A 
ATOM     33  C   UNL     1       5.916   3.347  13.627  0.00  0.00    +0.000 A 
ENDBRANCH  27  28
BRANCH  27  34
ATOM     34  C   UNL     1       7.297   4.779  16.912  0.00  0.00    +0.000 C 
BRANCH  34  36
ATOM     35  C   UNL     1       7.569   5.748  19.143  0.00  0.00    +0.000 C 
ATOM     36  N   UNL     1       6.784   5.744  17.906  0.00  0.00    +0.000 NA
ATOM     37  C   UNL     1       6.746   7.104  17.355  0.00  0.00    +0.000 C 
ENDBRANCH  34  36
ENDBRANCH  27  34
ENDBRANCH  26  27
ENDBRANCH   1  26
TORSDOF 7
ENDMDL
MODEL 2
REMARK VINA RESULT:      -9.1      0.709      1.780
REMARK  Name = 
REMARK  12 active torsions:
REMARK  status: ('A' for Active; 'I' for Inactive)
REMARK    1  A    between atoms: C_1  and  N_2
REMARK    2  A    between atoms: N_2  and  C_3
REMARK    3  A    between atoms: N_2  and  C_4
REMARK    4  A    between atoms: C_4  and  C_5
REMARK    5  A    between atoms: C_5  and  O_6
REMARK    6  A    between atoms: C_5  and  C_30
REMARK    7  A    between atoms: O_6  and  C_7
REMARK    8  A    between atoms: C_15  and  N_16
REMARK    9  A    between atoms: N_16  and  C_17
REMARK   10  A    between atoms: N_25  and  C_26
REMARK   11  A    between atoms: C_27  and  C_28
REMARK   12  A    between atoms: C_27  and  C_29
REMARK                            x       y       z     vdW  Elec       q    Type
REMARK                         _______ _______ _______ _____ _____    ______ ____
ROOT
ATOM      1  C   UNL     1       4.017   3.493  17.065  0.00  0.00    +0.000 C 
ATOM      2  O   UNL     1       4.149   2.271  17.068  0.00  0.00    +0.000 OA
ATOM      3  N   UNL     1       3.157   4.168  17.908  0.00  0.00    +0.000 N 
ATOM      4  C   UNL     1       2.791   5.609  17.750  0.00  0.00    +0.000 C 
ATOM      5  C   UNL     1       2.355   5.963  19.117  0.00  0.00    +0.000 A 
ATOM      6  C   UNL     1       2.273   4.808  19.907  0.00  0.00    +0.000 A 
ATOM      7  N   UNL     1       1.900   5.035  21.158  0.00  0.00    +0.000 NA
ATOM      8  N   UNL     1       1.757   6.381  21.157  0.00  0.00    +0.000 N 
ATOM      9  C   UNL     1       2.026   7.011  19.948  0.00  0.00    +0.000 A 
ATOM     10  C   UNL     1       2.677   3.551  19.195  0.00  0.00    +0.000 C 
ATOM     11  C   UNL     1       1.475   2.614  18.983  0.00  0.00    +0.000 C 
ATOM     12  C   UNL     1       3.780   2.805  19.962  0.00  0.00    +0.000 C 
ATOM     13  H   UNL     1       1.479   6.859  22.005  0.00  0.00    +0.000 HD
ENDROOT
BRANCH   9  14
ATOM     14  N   UNL     1       1.950   8.372  19.847  0.00  0.00    +0.000 N 
ATOM     15  H   UNL     1       2.338   8.881  19.056  0.00  0.00    +0.000 HD
BRANCH  14  16
ATOM     16  C   UNL     1       1.190   9.220  20.706  0.00  0.00    +0.000 A 
ATOM     17  N   UNL     1       0.942   8.834  22.005  0.00  0.00    +0.000 NA
ATOM     18  C   UNL     1       0.089   9.551  22.768  0.00  0.00    +0.000 A 
ATOM     19  N   UNL     1      -0.643  10.615  22.408  0.00  0.00    +0.000 NA
ATOM     20  C   UNL     1      -0.314  11.018  21.172  0.00  0.00    +0.000 A 
ATOM     21  C   UNL     1       0.616  10.455  20.305  0.00  0.00    +0.000 A 
ATOM     22  N   UNL     1       0.754  11.267  19.188  0.00  0.00    +0.000 NA
ATOM     23  C   UNL     1      -0.085  12.261  19.381  0.00  0.00    +0.000 A 
ATOM     24  N   UNL     1      -0.910  12.006  20.439  0.00  0.00    +0.000 N 
ATOM     25  C   UNL     1      -2.306  12.346  20.484  0.00  0.00    +0.000 C 
ENDBRANCH  14  16
ENDBRANCH   9  14
BRANCH   1  26
ATOM     26  O   UNL     1       4.757   4.328  16.283  0.00  0.00    +0.000 OA
BRANCH  26  27
ATOM     27  C   UNL     1       6.117   3.889  16.021  0.00  0.00    +0.000 C 
BRANCH  27  28
ATOM     28  C   UNL     1       6.485   4.172  14.561  0.00  0.00    +0.000 A 
ATOM     29  C   UNL     1       5.897   3.407  13.537  0.00  0.00    +0.000 A 
ATOM     30  C   UNL     1       6.264   3.590  12.202  0.00  0.00    +0.000 A 
ATOM     31  C   UNL     1       7.227   4.540  11.868  0.00  0.00    +0.000 A 
ATOM     32  C   UNL     1       7.822   5.305  12.868  0.00  0.00    +0.000 A 
ATOM     33  C   UNL     1       7.457   5.120  14.206  0.00  0.00    +0.000 A 
ENDBRANCH  27  28
BRANCH  27  34
ATOM     34  C   UNL     1       7.104   4.686  16.934  0.00  0.00    +0.000 C 
BRANCH  34  36
ATOM     35  C   UNL     1       6.449   5.527  19.137  0.00  0.00    +0.000 C 
ATOM     36  N   UNL     1       6.541   5.815  17.703  0.00  0.00    +0.000 NA
ATOM     37  C   UNL     1       7.330   7.037  17.508  0.00  0.00    +0.000 C 
ENDBRANCH  34  36
ENDBRANCH  27  34
ENDBRANCH  26  27
ENDBRANCH   1  26
TORSDOF 7
ENDMDL
MODEL 3
REMARK VINA RESULT:      -8.8      0.603      1.004
REMARK  Name = 
REMARK  12 active torsions:
REMARK  status: ('A' for Active; 'I' for Inactive)
REMARK    1  A    between atoms: C_1  and  N_2
REMARK    2  A    between atoms: N_2  and  C_3
REMARK    3  A    between atoms: N_2  and  C_4
REMARK    4  A    between atoms: C_4  and  C_5
REMARK    5  A    between atoms: C_5  and  O_6
REMARK    6  A    between atoms: C_5  and  C_30
REMARK    7  A    between atoms: O_6  and  C_7
REMARK    8  A    between atoms: C_15  and  N_16
REMARK    9  A    between atoms: N_16  and  C_17
REMARK   10  A    between atoms: N_25  and  C_26
REMARK   11  A    between atoms: C_27  and  C_28
REMARK   12  A    between atoms: C_27  and  C_29
REMARK                            x       y       z     vdW  Elec       q    Type
REMARK                         _______ _______ _______ _____ _____    ______ ____
ROOT
ATOM      1  C   UNL     1       4.072   4.353  16.917  0.00  0.00    +0.000 C 
ATOM      2  O   UNL     1       4.211   3.133  16.884  0.00  0.00    +0.000 OA
ATOM      3  N   UNL     1       3.178   4.996  17.749  0.00  0.00    +0.000 N 
ATOM      4  C   UNL     1       2.811   6.440  17.627  0.00  0.00    +0.000 C 
ATOM      5  C   UNL     1       2.321   6.745  18.987  0.00  0.00    +0.000 A 
ATOM      6  C   UNL     1       2.215   5.563  19.734  0.00  0.00    +0.000 A 
ATOM      7  N   UNL     1       1.794   5.746  20.977  0.00  0.00    +0.000 NA
ATOM      8  N   UNL     1       1.644   7.091  21.017  0.00  0.00    +0.000 N 
ATOM      9  C   UNL     1       1.955   7.763  19.840  0.00  0.00    +0.000 A 
ATOM     10  C   UNL     1       2.652   4.333  18.995  0.00  0.00    +0.000 C 
ATOM     11  C   UNL     1       1.465   3.399  18.707  0.00  0.00    +0.000 C 
ATOM     12  C   UNL     1       3.730   3.566  19.778  0.00  0.00    +0.000 C 
ATOM     13  H   UNL     1       1.332   7.539  21.869  0.00  0.00    +0.000 HD
ENDROOT
BRANCH   9  14
ATOM     14  N   UNL     1       1.876   9.126  19.783  0.00  0.00    +0.000 N 
ATOM     15  H   UNL     1       2.666   9.705  19.508  0.00  0.00    +0.000 HD
BRANCH  14  16
ATOM     16  C   UNL     1       0.677   9.888  19.917  0.00  0.00    +0.000 A 
ATOM     17  N   UNL     1       0.096  10.451  18.803  0.00  0.00    +0.000 NA
ATOM     18  C   UNL     1      -0.941  11.305  18.946  0.00  0.00    +0.000 A 
ATOM     19  N   UNL     1      -1.484  11.758  20.084  0.00  0.00    +0.000 NA
ATOM     20  C   UNL     1      -0.958  11.126  21.143  0.00  0.00    +0.000 A 
ATOM     21  C   UNL     1       0.034  10.152  21.155  0.00  0.00    +0.000 A 
ATOM     22  N   UNL     1       0.178   9.657  22.444  0.00  0.00    +0.000 NA
ATOM     23  C   UNL     1      -0.683  10.337  23.170  0.00  0.00    +0.000 A 
ATOM     24  N   UNL     1      -1.196  11.388  22.464  0.00  0.00    +0.000 N 
ATOM     25  C   UNL     1      -1.467  12.686  23.018  0.00  0.00    +0.000 C 
ENDBRANCH  14  16
ENDBRANCH   9  14
BRANCH   1  26
ATOM     26  O   UNL     1       4.838   5.218  16.193  0.00  0.00    +0.000 OA
BRANCH  26  27
ATOM     27  C   UNL     1       6.214   4.802  15.985  0.00  0.00    +0.000 C 
BRANCH  27  28
ATOM     28  C   UNL     1       6.476   4.594  14.490  0.00  0.00    +0.000 A 
ATOM     29  C   UNL     1       5.732   3.631  13.784  0.00  0.00    +0.000 A 
ATOM     30  C   UNL     1       5.995   3.364  12.438  0.00  0.00    +0.000 A 
ATOM     31  C   UNL     1       7.008   4.055  11.776  0.00  0.00    +0.000 A 
ATOM     32  C   UNL     1       7.757   5.009  12.459  0.00  0.00    +0.000 A 
ATOM     33  C   UNL     1       7.496   5.274  13.808  0.00  0.00    +0.000 A 
ENDBRANCH  27  28
BRANCH  27  34
ATOM     34  C   UNL     1       7.176   5.923  16.495  0.00  0.00    +0.000 C 
BRANCH  34  36
ATOM     35  C   UNL     1       7.101   5.457  18.896  0.00  0.00    +0.000 C 
ATOM     36  N   UNL     1       6.920   6.462  17.846  0.00  0.00    +0.000 NA
ATOM     37  C   UNL     1       7.782   7.616  18.131  0.00  0.00    +0.000 C 
ENDBRANCH  34  36
ENDBRANCH  27  34
ENDBRANCH  26  27
ENDBRANCH   1  26
TORSDOF 7
ENDMDL
MODEL 4
REMARK VINA RESULT:      -8.3      1.014      2.179
REMARK  Name = 
REMARK  12 active torsions:
REMARK  status: ('A' for Active; 'I' for Inactive)
REMARK    1  A    between atoms: C_1  and  N_2
REMARK    2  A    between atoms: N_2  and  C_3
REMARK    3  A    between atoms: N_2  and  C_4
REMARK    4  A    between atoms: C_4  and  C_5
REMARK    5  A    between atoms: C_5  and  O_6
REMARK    6  A    between atoms: C_5  and  C_30
REMARK    7  A    between atoms: O_6  and  C_7
REMARK    8  A    between atoms: C_15  and  N_16
REMARK    9  A    between atoms: N_16  and  C_17
REMARK   10  A    between atoms: N_25  and  C_26
REMARK   11  A    between atoms: C_27  and  C_28
REMARK   12  A    between atoms: C_27  and  C_29
REMARK                            x       y       z     vdW  Elec       q    Type
REMARK                         _______ _______ _______ _____ _____    ______ ____
ROOT
ATOM      1  C   UNL     1       4.039   4.099  17.206  0.00  0.00    +0.000 C 
ATOM      2  O   UNL     1       4.126   2.878  17.308  0.00  0.00    +0.000 OA
ATOM      3  N   UNL     1       3.133   4.860  17.917  0.00  0.00    +0.000 N 
ATOM      4  C   UNL     1       2.834   6.295  17.625  0.00  0.00    +0.000 C 
ATOM      5  C   UNL     1       2.291   6.762  18.918  0.00  0.00    +0.000 A 
ATOM      6  C   UNL     1       2.097   5.671  19.776  0.00  0.00    +0.000 A 
ATOM      7  N   UNL     1       1.623   6.001  20.969  0.00  0.00    +0.000 NA
ATOM      8  N   UNL     1       1.530   7.347  20.860  0.00  0.00    +0.000 N 
ATOM      9  C   UNL     1       1.927   7.877  19.638  0.00  0.00    +0.000 A 
ATOM     10  C   UNL     1       2.517   4.354  19.195  0.00  0.00    +0.000 C 
ATOM     11  C   UNL     1       1.307   3.439  18.942  0.00  0.00    +0.000 C 
ATOM     12  C   UNL     1       3.521   3.634  20.111  0.00  0.00    +0.000 C 
ATOM     13  H   UNL     1       1.195   7.894  21.643  0.00  0.00    +0.000 HD
ENDROOT
BRANCH   9  14
ATOM     14  N   UNL     1       1.910   9.229  19.435  0.00  0.00    +0.000 N 
ATOM     15  H   UNL     1       2.682   9.722  18.993  0.00  0.00    +0.000 HD
BRANCH  14  16
ATOM     16  C   UNL     1       0.781  10.077  19.637  0.00  0.00    +0.000 A 
ATOM     17  N   UNL     1       0.649  10.771  20.819  0.00  0.00    +0.000 NA
ATOM     18  C   UNL     1      -0.495  11.443  21.079  0.00  0.00    +0.000 A 
ATOM     19  N   UNL     1      -1.610  11.489  20.338  0.00  0.00    +0.000 NA
ATOM     20  C   UNL     1      -1.418  10.880  19.159  0.00  0.00    +0.000 A 
ATOM     21  C   UNL     1      -0.273  10.240  18.700  0.00  0.00    +0.000 A 
ATOM     22  N   UNL     1      -0.449   9.878  17.372  0.00  0.00    +0.000 NA
ATOM     23  C   UNL     1      -1.668  10.269  17.069  0.00  0.00    +0.000 A 
ATOM     24  N   UNL     1      -2.353  10.648  18.188  0.00  0.00    +0.000 N 
ATOM     25  C   UNL     1      -3.744  10.376  18.422  0.00  0.00    +0.000 C 
ENDBRANCH  14  16
ENDBRANCH   9  14
BRANCH   1  26
ATOM     26  O   UNL     1       4.876   4.852  16.438  0.00  0.00    +0.000 OA
BRANCH  26  27
ATOM     27  C   UNL     1       6.166   4.250  16.154  0.00  0.00    +0.000 C 
BRANCH  27  28
ATOM     28  C   UNL     1       6.448   4.303  14.649  0.00  0.00    +0.000 A 
ATOM     29  C   UNL     1       5.740   3.451  13.782  0.00  0.00    +0.000 A 
ATOM     30  C   UNL     1       6.023   3.422  12.414  0.00  0.00    +0.000 A 
ATOM     31  C   UNL     1       7.020   4.242  11.890  0.00  0.00    +0.000 A 
ATOM     32  C   UNL     1       7.733   5.090  12.735  0.00  0.00    +0.000 A 
ATOM     33  C   UNL     1       7.452   5.117  14.105  0.00  0.00    +0.000 A 
ENDBRANCH  27  28
BRANCH  27  34
ATOM     34  C   UNL     1       7.287   5.057  16.886  0.00  0.00    +0.000 C 
BRANCH  34  36
ATOM     35  C   UNL     1       6.935   5.556  19.256  0.00  0.00    +0.000 C 
ATOM     36  N   UNL     1       6.849   6.057  17.882  0.00  0.00    +0.000 NA
ATOM     37  C   UNL     1       7.631   7.295  17.772  0.00  0.00    +0.000 C 
ENDBRANCH  34  36
ENDBRANCH  27  34
ENDBRANCH  26  27
ENDBRANCH   1  26
TORSDOF 7
ENDMDL
MODEL 5
REMARK VINA RESULT:      -8.1      1.310      2.097
REMARK  Name = 
REMARK  12 active torsions:
REMARK  status: ('A' for Active; 'I' for Inactive)
REMARK    1  A    between atoms: C_1  and  N_2
REMARK    2  A    between atoms: N_2  and  C_3
REMARK    3  A    between atoms: N_2  and  C_4
REMARK    4  A    between atoms: C_4  and  C_5
REMARK    5  A    between atoms: C_5  and  O_6
REMARK    6  A    between atoms: C_5  and  C_30
REMARK    7  A    between atoms: O_6  and  C_7
REMARK    8  A    between atoms: C_15  and  N_16
REMARK    9  A    between atoms: N_16  and  C_17
REMARK   10  A    between atoms: N_25  and  C_26
REMARK   11  A    between atoms: C_27  and  C_28
REMARK   12  A    between atoms: C_27  and  C_29
REMARK                            x       y       z     vdW  Elec       q    Type
REMARK                         _______ _______ _______ _____ _____    ______ ____
ROOT
ATOM      1  C   UNL     1       4.048   3.525  16.927  0.00  0.00    +0.000 C 
ATOM      2  O   UNL     1       4.407   2.370  16.712  0.00  0.00    +0.000 OA
ATOM      3  N   UNL     1       3.241   3.888  17.986  0.00  0.00    +0.000 N 
ATOM      4  C   UNL     1       2.587   5.225  18.121  0.00  0.00    +0.000 C 
ATOM      5  C   UNL     1       2.343   5.299  19.576  0.00  0.00    +0.000 A 
ATOM      6  C   UNL     1       2.622   4.061  20.172  0.00  0.00    +0.000 A 
ATOM      7  N   UNL     1       2.442   4.041  21.484  0.00  0.00    +0.000 NA
ATOM      8  N   UNL     1       2.051   5.314  21.724  0.00  0.00    +0.000 N 
ATOM      9  C   UNL     1       1.975   6.137  20.606  0.00  0.00    +0.000 A 
ATOM     10  C   UNL     1       3.122   3.022  19.213  0.00  0.00    +0.000 C 
ATOM     11  C   UNL     1       2.102   1.885  19.033  0.00  0.00    +0.000 C 
ATOM     12  C   UNL     1       4.466   2.436  19.676  0.00  0.00    +0.000 C 
ATOM     13  H   UNL     1       1.843   5.609  22.669  0.00  0.00    +0.000 HD
ENDROOT
BRANCH   9  14
ATOM     14  N   UNL     1       1.627   7.452  20.740  0.00  0.00    +0.000 N 
ATOM     15  H   UNL     1       1.496   7.889  21.650  0.00  0.00    +0.000 HD
BRANCH  14  16
ATOM     16  C   UNL     1       1.581   8.404  19.679  0.00  0.00    +0.000 A 
ATOM     17  N   UNL     1       2.388   8.239  18.576  0.00  0.00    +0.000 NA
ATOM     18  C   UNL     1       2.467   9.219  17.649  0.00  0.00    +0.000 A 
ATOM     19  N   UNL     1       1.886  10.426  17.675  0.00  0.00    +0.000 NA
ATOM     20  C   UNL     1       1.040  10.521  18.712  0.00  0.00    +0.000 A 
ATOM     21  C   UNL     1       0.768   9.568  19.686  0.00  0.00    +0.000 A 
ATOM     22  N   UNL     1      -0.276  10.013  20.485  0.00  0.00    +0.000 NA
ATOM     23  C   UNL     1      -0.588  11.199  20.012  0.00  0.00    +0.000 A 
ATOM     24  N   UNL     1       0.345  11.628  19.111  0.00  0.00    +0.000 N 
ATOM     25  C   UNL     1       0.806  12.984  19.000  0.00  0.00    +0.000 C 
ENDBRANCH  14  16
ENDBRANCH   9  14
BRANCH   1  26
ATOM     26  O   UNL     1       4.466   4.593  16.190  0.00  0.00    +0.000 OA
BRANCH  26  27
ATOM     27  C   UNL     1       5.906   4.722  16.049  0.00  0.00    +0.000 C 
BRANCH  27  28
ATOM     28  C   UNL     1       6.301   4.572  14.576  0.00  0.00    +0.000 A 
ATOM     29  C   UNL     1       5.618   3.646  13.767  0.00  0.00    +0.000 A 
ATOM     30  C   UNL     1       6.001   3.432  12.440  0.00  0.00    +0.000 A 
ATOM     31  C   UNL     1       7.074   4.138  11.901  0.00  0.00    +0.000 A 
ATOM     32  C   UNL     1       7.764   5.057  12.689  0.00  0.00    +0.000 A 
ATOM     33  C   UNL     1       7.383   5.270  14.018  0.00  0.00    +0.000 A 
ENDBRANCH  27  28
BRANCH  27  34
ATOM     34  C   UNL     1       6.348   6.143  16.527  0.00  0.00    +0.000 C 
BRANCH  34  36
ATOM     35  C   UNL     1       7.819   7.574  17.860  0.00  0.00    +0.000 C 
ATOM     36  N   UNL     1       7.562   6.219  17.366  0.00  0.00    +0.000 NA
ATOM     37  C   UNL     1       7.478   5.299  18.507  0.00  0.00    +0.000 C 
ENDBRANCH  34  36
ENDBRANCH  27  34
ENDBRANCH  26  27
ENDBRANCH   1  26
TORSDOF 7
ENDMDL
MODEL 6
REMARK VINA RESULT:      -8.1      1.780      2.428
REMARK  Name = 
REMARK  12 active torsions:
REMARK  status: ('A' for Active; 'I' for Inactive)
REMARK    1  A    between atoms: C_1  and  N_2
REMARK    2  A    between atoms: N_2  and  C_3
REMARK    3  A    between atoms: N_2  and  C_4
REMARK    4  A    between atoms: C_4  and  C_5
REMARK    5  A    between atoms: C_5  and  O_6
REMARK    6  A    between atoms: C_5  and  C_30
REMARK    7  A    between atoms: O_6  and  C_7
REMARK    8  A    between atoms: C_15  and  N_16
REMARK    9  A    between atoms: N_16  and  C_17
REMARK   10  A    between atoms: N_25  and  C_26
REMARK   11  A    between atoms: C_27  and  C_28
REMARK   12  A    between atoms: C_27  and  C_29
REMARK                            x       y       z     vdW  Elec       q    Type
REMARK                         _______ _______ _______ _____ _____    ______ ____
ROOT
ATOM      1  C   UNL     1       4.175   4.696  17.206  0.00  0.00    +0.000 C 
ATOM      2  O   UNL     1       4.335   3.512  17.493  0.00  0.00    +0.000 OA
ATOM      3  N   UNL     1       3.226   5.504  17.801  0.00  0.00    +0.000 N 
ATOM      4  C   UNL     1       2.844   6.857  17.294  0.00  0.00    +0.000 C 
ATOM      5  C   UNL     1       2.275   7.485  18.505  0.00  0.00    +0.000 A 
ATOM      6  C   UNL     1       2.146   6.530  19.523  0.00  0.00    +0.000 A 
ATOM      7  N   UNL     1       1.654   7.011  20.655  0.00  0.00    +0.000 NA
ATOM      8  N   UNL     1       1.481   8.317  20.342  0.00  0.00    +0.000 N 
ATOM      9  C   UNL     1       1.846   8.675  19.050  0.00  0.00    +0.000 A 
ATOM     10  C   UNL     1       2.643   5.165  19.147  0.00  0.00    +0.000 C 
ATOM     11  C   UNL     1       1.488   4.154  19.049  0.00  0.00    +0.000 C 
ATOM     12  C   UNL     1       3.687   4.655  20.153  0.00  0.00    +0.000 C 
ATOM     13  H   UNL     1       1.115   8.957  21.035  0.00  0.00    +0.000 HD
ENDROOT
BRANCH   9  14
ATOM     14  N   UNL     1       1.749   9.976  18.641  0.00  0.00    +0.000 N 
ATOM     15  H   UNL     1       2.174  10.307  17.779  0.00  0.00    +0.000 HD
BRANCH  14  16
ATOM     16  C   UNL     1       0.921  10.968  19.245  0.00  0.00    +0.000 A 
ATOM     17  N   UNL     1      -0.290  10.608  19.793  0.00  0.00    +0.000 NA
ATOM     18  C   UNL     1      -1.147  11.564  20.216  0.00  0.00    +0.000 A 
ATOM     19  N   UNL     1      -1.010  12.893  20.121  0.00  0.00    +0.000 NA
ATOM     20  C   UNL     1       0.212  13.211  19.667  0.00  0.00    +0.000 A 
ATOM     21  C   UNL     1       1.238  12.351  19.293  0.00  0.00    +0.000 A 
ATOM     22  N   UNL     1       2.382  13.090  19.025  0.00  0.00    +0.000 NA
ATOM     23  C   UNL     1       2.032  14.344  19.210  0.00  0.00    +0.000 A 
ATOM     24  N   UNL     1       0.678  14.458  19.354  0.00  0.00    +0.000 N 
ATOM     25  C   UNL     1      -0.112  15.527  18.809  0.00  0.00    +0.000 C 
ENDBRANCH  14  16
ENDBRANCH   9  14
BRANCH   1  26
ATOM     26  O   UNL     1       4.966   5.370  16.323  0.00  0.00    +0.000 OA
BRANCH  26  27
ATOM     27  C   UNL     1       6.268   4.775  16.080  0.00  0.00    +0.000 C 
BRANCH  27  28
ATOM     28  C   UNL     1       6.482   4.585  14.575  0.00  0.00    +0.000 A 
ATOM     29  C   UNL     1       5.690   3.657  13.874  0.00  0.00    +0.000 A 
ATOM     30  C   UNL     1       5.907   3.406  12.517  0.00  0.00    +0.000 A 
ATOM     31  C   UNL     1       6.922   4.077  11.838  0.00  0.00    +0.000 A 
ATOM     32  C   UNL     1       7.718   4.997  12.516  0.00  0.00    +0.000 A 
ATOM     33  C   UNL     1       7.503   5.246  13.876  0.00  0.00    +0.000 A 
ENDBRANCH  27  28
BRANCH  27  34
ATOM     34  C   UNL     1       7.383   5.734  16.611  0.00  0.00    +0.000 C 
BRANCH  34  36
ATOM     35  C   UNL     1       7.429   5.800  19.057  0.00  0.00    +0.000 C 
ATOM     36  N   UNL     1       7.072   6.512  17.828  0.00  0.00    +0.000 NA
ATOM     37  C   UNL     1       7.749   7.815  17.813  0.00  0.00    +0.000 C 
ENDBRANCH  34  36
ENDBRANCH  27  34
ENDBRANCH  26  27
ENDBRANCH   1  26
TORSDOF 7
ENDMDL
MODEL 7
REMARK VINA RESULT:      -8.0      1.220      1.801
REMARK  Name = 
REMARK  12 active torsions:
REMARK  status: ('A' for Active; 'I' for Inactive)
REMARK    1  A    between atoms: C_1  and  N_2
REMARK    2  A    between atoms: N_2  and  C_3
REMARK    3  A    between atoms: N_2  and  C_4
REMARK    4  A    between atoms: C_4  and  C_5
REMARK    5  A    between atoms: C_5  and  O_6
REMARK    6  A    between atoms: C_5  and  C_30
REMARK    7  A    between atoms: O_6  and  C_7
REMARK    8  A    between atoms: C_15  and  N_16
REMARK    9  A    between atoms: N_16  and  C_17
REMARK   10  A    between atoms: N_25  and  C_26
REMARK   11  A    between atoms: C_27  and  C_28
REMARK   12  A    between atoms: C_27  and  C_29
REMARK                            x       y       z     vdW  Elec       q    Type
REMARK                         _______ _______ _______ _____ _____    ______ ____
ROOT
ATOM      1  C   UNL     1       3.845   3.350  16.936  0.00  0.00    +0.000 C 
ATOM      2  O   UNL     1       4.068   2.167  16.690  0.00  0.00    +0.000 OA
ATOM      3  N   UNL     1       3.087   3.776  18.008  0.00  0.00    +0.000 N 
ATOM      4  C   UNL     1       2.592   5.176  18.178  0.00  0.00    +0.000 C 
ATOM      5  C   UNL     1       2.361   5.241  19.637  0.00  0.00    +0.000 A 
ATOM      6  C   UNL     1       2.496   3.964  20.199  0.00  0.00    +0.000 A 
ATOM      7  N   UNL     1       2.318   3.931  21.512  0.00  0.00    +0.000 NA
ATOM      8  N   UNL     1       2.076   5.235  21.785  0.00  0.00    +0.000 N 
ATOM      9  C   UNL     1       2.094   6.089  20.689  0.00  0.00    +0.000 A 
ATOM     10  C   UNL     1       2.872   2.899  19.213  0.00  0.00    +0.000 C 
ATOM     11  C   UNL     1       1.727   1.892  19.009  0.00  0.00    +0.000 C 
ATOM     12  C   UNL     1       4.140   2.150  19.655  0.00  0.00    +0.000 C 
ATOM     13  H   UNL     1       1.905   5.527  22.739  0.00  0.00    +0.000 HD
ENDROOT
BRANCH   9  14
ATOM     14  N   UNL     1       1.900   7.431  20.858  0.00  0.00    +0.000 N 
ATOM     15  H   UNL     1       2.052   7.894  21.751  0.00  0.00    +0.000 HD
BRANCH  14  16
ATOM     16  C   UNL     1       1.647   8.365  19.809  0.00  0.00    +0.000 A 
ATOM     17  N   UNL     1       2.338   8.265  18.622  0.00  0.00    +0.000 NA
ATOM     18  C   UNL     1       2.222   9.240  17.694  0.00  0.00    +0.000 A 
ATOM     19  N   UNL     1       1.538  10.388  17.786  0.00  0.00    +0.000 NA
ATOM     20  C   UNL     1       0.808  10.414  18.911  0.00  0.00    +0.000 A 
ATOM     21  C   UNL     1       0.735   9.449  19.908  0.00  0.00    +0.000 A 
ATOM     22  N   UNL     1      -0.249   9.803  20.820  0.00  0.00    +0.000 NA
ATOM     23  C   UNL     1      -0.721  10.951  20.386  0.00  0.00    +0.000 A 
ATOM     24  N   UNL     1       0.062  11.456  19.387  0.00  0.00    +0.000 N 
ATOM     25  C   UNL     1       0.380  12.848  19.227  0.00  0.00    +0.000 C 
ENDBRANCH  14  16
ENDBRANCH   9  14
BRANCH   1  26
ATOM     26  O   UNL     1       4.382   4.381  16.224  0.00  0.00    +0.000 OA
BRANCH  26  27
ATOM     27  C   UNL     1       5.832   4.392  16.148  0.00  0.00    +0.000 C 
BRANCH  27  28
ATOM     28  C   UNL     1       6.279   4.304  14.685  0.00  0.00    +0.000 A 
ATOM     29  C   UNL     1       7.358   5.092  14.242  0.00  0.00    +0.000 A 
ATOM     30  C   UNL     1       7.744   5.091  12.899  0.00  0.00    +0.000 A 
ATOM     31  C   UNL     1       7.057   4.305  11.976  0.00  0.00    +0.000 A 
ATOM     32  C   UNL     1       5.985   3.522  12.396  0.00  0.00    +0.000 A 
ATOM     33  C   UNL     1       5.596   3.524  13.740  0.00  0.00    +0.000 A 
ENDBRANCH  27  28
BRANCH  27  34
ATOM     34  C   UNL     1       6.372   5.734  16.740  0.00  0.00    +0.000 C 
BRANCH  34  36
ATOM     35  C   UNL     1       6.058   5.504  19.156  0.00  0.00    +0.000 C 
ATOM     36  N   UNL     1       7.022   5.667  18.065  0.00  0.00    +0.000 NA
ATOM     37  C   UNL     1       8.002   4.576  18.122  0.00  0.00    +0.000 C 
ENDBRANCH  34  36
ENDBRANCH  27  34
ENDBRANCH  26  27
ENDBRANCH   1  26
TORSDOF 7
ENDMDL
MODEL 8
REMARK VINA RESULT:      -7.9      1.677      2.236
REMARK  Name = 
REMARK  12 active torsions:
REMARK  status: ('A' for Active; 'I' for Inactive)
REMARK    1  A    between atoms: C_1  and  N_2
REMARK    2  A    between atoms: N_2  and  C_3
REMARK    3  A    between atoms: N_2  and  C_4
REMARK    4  A    between atoms: C_4  and  C_5
REMARK    5  A    between atoms: C_5  and  O_6
REMARK    6  A    between atoms: C_5  and  C_30
REMARK    7  A    between atoms: O_6  and  C_7
REMARK    8  A    between atoms: C_15  and  N_16
REMARK    9  A    between atoms: N_16  and  C_17
REMARK   10  A    between atoms: N_25  and  C_26
REMARK   11  A    between atoms: C_27  and  C_28
REMARK   12  A    between atoms: C_27  and  C_29
REMARK                            x       y       z     vdW  Elec       q    Type
REMARK                         _______ _______ _______ _____ _____    ______ ____
ROOT
ATOM      1  C   UNL     1       4.155   4.953  17.215  0.00  0.00    +0.000 C 
ATOM      2  O   UNL     1       4.368   3.811  17.616  0.00  0.00    +0.000 OA
ATOM      3  N   UNL     1       3.199   5.785  17.761  0.00  0.00    +0.000 N 
ATOM      4  C   UNL     1       2.748   7.065  17.135  0.00  0.00    +0.000 C 
ATOM      5  C   UNL     1       2.200   7.795  18.297  0.00  0.00    +0.000 A 
ATOM      6  C   UNL     1       2.143   6.947  19.411  0.00  0.00    +0.000 A 
ATOM      7  N   UNL     1       1.674   7.527  20.506  0.00  0.00    +0.000 NA
ATOM      8  N   UNL     1       1.442   8.786  20.069  0.00  0.00    +0.000 N 
ATOM      9  C   UNL     1       1.747   9.021  18.733  0.00  0.00    +0.000 A 
ATOM     10  C   UNL     1       2.676   5.569  19.157  0.00  0.00    +0.000 C 
ATOM     11  C   UNL     1       1.557   4.515  19.208  0.00  0.00    +0.000 C 
ATOM     12  C   UNL     1       3.774   5.200  20.168  0.00  0.00    +0.000 C 
ATOM     13  H   UNL     1       1.077   9.483  20.706  0.00  0.00    +0.000 HD
ENDROOT
BRANCH   9  14
ATOM     14  N   UNL     1       1.587  10.269  18.198  0.00  0.00    +0.000 N 
ATOM     15  H   UNL     1       1.795  10.472  17.224  0.00  0.00    +0.000 HD
BRANCH  14  16
ATOM     16  C   UNL     1       0.960  11.370  18.852  0.00  0.00    +0.000 A 
ATOM     17  N   UNL     1       1.707  12.205  19.654  0.00  0.00    +0.000 NA
ATOM     18  C   UNL     1       1.089  13.146  20.402  0.00  0.00    +0.000 A 
ATOM     19  N   UNL     1      -0.227  13.362  20.532  0.00  0.00    +0.000 NA
ATOM     20  C   UNL     1      -0.918  12.597  19.675  0.00  0.00    +0.000 A 
ATOM     21  C   UNL     1      -0.427  11.664  18.770  0.00  0.00    +0.000 A 
ATOM     22  N   UNL     1      -1.465  11.203  17.974  0.00  0.00    +0.000 NA
ATOM     23  C   UNL     1      -2.537  11.827  18.414  0.00  0.00    +0.000 A 
ATOM     24  N   UNL     1      -2.277  12.477  19.587  0.00  0.00    +0.000 N 
ATOM     25  C   UNL     1      -3.192  12.559  20.692  0.00  0.00    +0.000 C 
ENDBRANCH  14  16
ENDBRANCH   9  14
BRANCH   1  26
ATOM     26  O   UNL     1       4.888   5.557  16.239  0.00  0.00    +0.000 OA
BRANCH  26  27
ATOM     27  C   UNL     1       6.256   5.086  16.110  0.00  0.00    +0.000 C 
BRANCH  27  28
ATOM     28  C   UNL     1       6.535   4.683  14.658  0.00  0.00    +0.000 A 
ATOM     29  C   UNL     1       7.564   5.326  13.946  0.00  0.00    +0.000 A 
ATOM     30  C   UNL     1       7.797   5.035  12.599  0.00  0.00    +0.000 A 
ATOM     31  C   UNL     1       7.004   4.097  11.942  0.00  0.00    +0.000 A 
ATOM     32  C   UNL     1       5.978   3.453  12.630  0.00  0.00    +0.000 A 
ATOM     33  C   UNL     1       5.743   3.747  13.977  0.00  0.00    +0.000 A 
ENDBRANCH  27  28
BRANCH  27  34
ATOM     34  C   UNL     1       7.239   6.240  16.490  0.00  0.00    +0.000 C 
BRANCH  34  36
ATOM     35  C   UNL     1       7.562   5.682  18.851  0.00  0.00    +0.000 C 
ATOM     36  N   UNL     1       7.198   6.722  17.886  0.00  0.00    +0.000 NA
ATOM     37  C   UNL     1       8.077   7.882  18.075  0.00  0.00    +0.000 C 
ENDBRANCH  34  36
ENDBRANCH  27  34
ENDBRANCH  26  27
ENDBRANCH   1  26
TORSDOF 7
ENDMDL
MODEL 9
REMARK VINA RESULT:      -7.8      1.431      2.433
REMARK  Name = 
REMARK  12 active torsions:
REMARK  status: ('A' for Active; 'I' for Inactive)
REMARK    1  A    between atoms: C_1  and  N_2
REMARK    2  A    between atoms: N_2  and  C_3
REMARK    3  A    between atoms: N_2  and  C_4
REMARK    4  A    between atoms: C_4  and  C_5
REMARK    5  A    between atoms: C_5  and  O_6
REMARK    6  A    between atoms: C_5  and  C_30
REMARK    7  A    between atoms: O_6  and  C_7
REMARK    8  A    between atoms: C_15  and  N_16
REMARK    9  A    between atoms: N_16  and  C_17
REMARK   10  A    between atoms: N_25  and  C_26
REMARK   11  A    between atoms: C_27  and  C_28
REMARK   12  A    between atoms: C_27  and  C_29
REMARK                            x       y       z     vdW  Elec       q    Type
REMARK                         _______ _______ _______ _____ _____    ______ ____
ROOT
ATOM      1  C   UNL     1       3.764   4.650  17.398  0.00  0.00    +0.000 C 
ATOM      2  O   UNL     1       3.945   3.464  17.665  0.00  0.00    +0.000 OA
ATOM      3  N   UNL     1       2.873   5.456  18.078  0.00  0.00    +0.000 N 
ATOM      4  C   UNL     1       2.451   6.813  17.614  0.00  0.00    +0.000 C 
ATOM      5  C   UNL     1       1.993   7.436  18.874  0.00  0.00    +0.000 A 
ATOM      6  C   UNL     1       1.952   6.476  19.894  0.00  0.00    +0.000 A 
ATOM      7  N   UNL     1       1.562   6.953  21.068  0.00  0.00    +0.000 NA
ATOM      8  N   UNL     1       1.366   8.260  20.777  0.00  0.00    +0.000 N 
ATOM      9  C   UNL     1       1.617   8.624  19.460  0.00  0.00    +0.000 A 
ATOM     10  C   UNL     1       2.410   5.112  19.469  0.00  0.00    +0.000 C 
ATOM     11  C   UNL     1       1.248   4.104  19.468  0.00  0.00    +0.000 C 
ATOM     12  C   UNL     1       3.538   4.594  20.376  0.00  0.00    +0.000 C 
ATOM     13  H   UNL     1       1.064   8.898  21.503  0.00  0.00    +0.000 HD
ENDROOT
BRANCH   9  14
ATOM     14  N   UNL     1       1.488   9.928  19.068  0.00  0.00    +0.000 N 
ATOM     15  H   UNL     1       2.228  10.423  18.577  0.00  0.00    +0.000 HD
BRANCH  14  16
ATOM     16  C   UNL     1       0.283  10.689  19.126  0.00  0.00    +0.000 A 
ATOM     17  N   UNL     1       0.131  11.658  20.092  0.00  0.00    +0.000 NA
ATOM     18  C   UNL     1      -1.067  12.264  20.253  0.00  0.00    +0.000 A 
ATOM     19  N   UNL     1      -2.214  12.005  19.611  0.00  0.00    +0.000 NA
ATOM     20  C   UNL     1      -2.012  11.123  18.621  0.00  0.00    +0.000 A 
ATOM     21  C   UNL     1      -0.826  10.494  18.260  0.00  0.00    +0.000 A 
ATOM     22  N   UNL     1      -1.024   9.775  17.090  0.00  0.00    +0.000 NA
ATOM     23  C   UNL     1      -2.291   9.954  16.787  0.00  0.00    +0.000 A 
ATOM     24  N   UNL     1      -2.960  10.553  17.817  0.00  0.00    +0.000 N 
ATOM     25  C   UNL     1      -4.300  10.223  18.218  0.00  0.00    +0.000 C 
ENDBRANCH  14  16
ENDBRANCH   9  14
BRANCH   1  26
ATOM     26  O   UNL     1       4.476   5.326  16.453  0.00  0.00    +0.000 OA
BRANCH  26  27
ATOM     27  C   UNL     1       5.889   4.998  16.388  0.00  0.00    +0.000 C 
BRANCH  27  28
ATOM     28  C   UNL     1       6.278   4.649  14.948  0.00  0.00    +0.000 A 
ATOM     29  C   UNL     1       7.413   5.251  14.373  0.00  0.00    +0.000 A 
ATOM     30  C   UNL     1       7.754   5.011  13.039  0.00  0.00    +0.000 A 
ATOM     31  C   UNL     1       6.967   4.168  12.258  0.00  0.00    +0.000 A 
ATOM     32  C   UNL     1       5.838   3.567  12.810  0.00  0.00    +0.000 A 
ATOM     33  C   UNL     1       5.494   3.809  14.144  0.00  0.00    +0.000 A 
ENDBRANCH  27  28
BRANCH  27  34
ATOM     34  C   UNL     1       6.730   6.239  16.832  0.00  0.00    +0.000 C 
BRANCH  34  36
ATOM     35  C   UNL     1       8.188   7.338  18.461  0.00  0.00    +0.000 C 
ATOM     36  N   UNL     1       7.583   6.076  18.027  0.00  0.00    +0.000 NA
ATOM     37  C   UNL     1       6.828   5.497  19.145  0.00  0.00    +0.000 C 
ENDBRANCH  34  36
ENDBRANCH  27  34
ENDBRANCH  26  27
ENDBRANCH   1  26
TORSDOF 7
ENDMDL
