MODEL 1
REMARK VINA RESULT:      -7.2      0.000      0.000
REMARK  Name = 
REMARK  5 active torsions:
REMARK  status: ('A' for Active; 'I' for Inactive)
REMARK    1  A    between atoms: C_1  and  O_2
REMARK    2  A    between atoms: O_2  and  C_3
REMARK    3  A    between atoms: C_5  and  C_6
REMARK    4  A    between atoms: C_10  and  S_11
REMARK    5  A    between atoms: S_11  and  N_14
REMARK                            x       y       z     vdW  Elec       q    Type
REMARK                         _______ _______ _______ _____ _____    ______ ____
ROOT
ATOM      1  C   UNL     1       4.158   4.907  18.754  0.00  0.00    +0.000 A 
ATOM      2  C   UNL     1       3.200   5.334  19.697  0.00  0.00    +0.000 A 
ATOM      3  C   UNL     1       2.489   6.541  19.564  0.00  0.00    +0.000 A 
ATOM      4  C   UNL     1       1.445   6.893  20.590  0.00  0.00    +0.000 C 
ATOM      5  C   UNL     1       2.776   7.360  18.472  0.00  0.00    +0.000 A 
ATOM      6 BR   UNL     1       1.869   8.999  18.172  0.00  0.00    +0.000 Br
ATOM      7  C   UNL     1       3.749   6.976  17.552  0.00  0.00    +0.000 A 
ATOM      8  C   UNL     1       4.447   5.755  17.686  0.00  0.00    +0.000 A 
ENDROOT
BRANCH   8   9
ATOM      9  S   UNL     1       5.545   5.431  16.328  0.00  0.00    +0.000 S 
ATOM     10  O   UNL     1       5.383   4.012  16.067  0.00  0.00    +0.000 OA
ATOM     11  O   UNL     1       5.228   6.395  15.295  0.00  0.00    +0.000 OA
BRANCH   9  12
ATOM     12  N   UNL     1       7.174   5.666  16.754  0.00  0.00    +0.000 NA
ATOM     13  C   UNL     1       7.732   4.770  17.798  0.00  0.00    +0.000 C 
ATOM     14  C   UNL     1       7.767   5.609  19.065  0.00  0.00    +0.000 C 
ATOM     15  C   UNL     1       8.045   7.015  18.577  0.00  0.00    +0.000 C 
ATOM     16  C   UNL     1       7.501   7.068  17.157  0.00  0.00    +0.000 C 
ENDBRANCH   9  12
ENDBRANCH   8   9
BRANCH   1  18
ATOM     17  C   UNL     1       4.229   2.768  19.782  0.00  0.00    +0.000 C 
ATOM     18  O   UNL     1       4.808   3.712  18.881  0.00  0.00    +0.000 OA
ENDBRANCH   1  18
TORSDOF 3
ENDMDL
MODEL 2
REMARK VINA RESULT:      -7.2      2.310      2.988
REMARK  Name = 
REMARK  5 active torsions:
REMARK  status: ('A' for Active; 'I' for Inactive)
REMARK    1  A    between atoms: C_1  and  O_2
REMARK    2  A    between atoms: O_2  and  C_3
REMARK    3  A    between atoms: C_5  and  C_6
REMARK    4  A    between atoms: C_10  and  S_11
REMARK    5  A    between atoms: S_11  and  N_14
REMARK                            x       y       z     vdW  Elec       q    Type
REMARK                         _______ _______ _______ _____ _____    ______ ____
ROOT
ATOM      1  C   UNL     1       3.654   6.244  17.792  0.00  0.00    +0.000 A 
ATOM      2  C   UNL     1       2.794   5.745  18.792  0.00  0.00    +0.000 A 
ATOM      3  C   UNL     1       2.633   4.369  19.039  0.00  0.00    +0.000 A 
ATOM      4  C   UNL     1       1.735   3.926  20.162  0.00  0.00    +0.000 C 
ATOM      5  C   UNL     1       3.328   3.468  18.232  0.00  0.00    +0.000 A 
ATOM      6 BR   UNL     1       3.211   1.591  18.479  0.00  0.00    +0.000 Br
ATOM      7  C   UNL     1       4.150   3.940  17.210  0.00  0.00    +0.000 A 
ATOM      8  C   UNL     1       4.316   5.324  16.981  0.00  0.00    +0.000 A 
ENDROOT
BRANCH   8   9
ATOM      9  S   UNL     1       5.505   5.678  15.709  0.00  0.00    +0.000 S 
ATOM     10  O   UNL     1       5.483   4.500  14.860  0.00  0.00    +0.000 OA
ATOM     11  O   UNL     1       5.154   6.971  15.157  0.00  0.00    +0.000 OA
BRANCH   9  12
ATOM     12  N   UNL     1       7.083   5.805  16.327  0.00  0.00    +0.000 NA
ATOM     13  C   UNL     1       7.576   4.673  17.151  0.00  0.00    +0.000 C 
ATOM     14  C   UNL     1       7.476   5.156  18.590  0.00  0.00    +0.000 C 
ATOM     15  C   UNL     1       7.753   6.642  18.507  0.00  0.00    +0.000 C 
ATOM     16  C   UNL     1       7.333   7.057  17.105  0.00  0.00    +0.000 C 
ENDBRANCH   9  12
ENDBRANCH   8   9
BRANCH   1  18
ATOM     17  C   UNL     1       2.658   8.398  17.707  0.00  0.00    +0.000 C 
ATOM     18  O   UNL     1       3.827   7.585  17.595  0.00  0.00    +0.000 OA
ENDBRANCH   1  18
TORSDOF 3
ENDMDL
MODEL 3
REMARK VINA RESULT:      -6.8      3.458      5.872
REMARK  Name = 
REMARK  5 active torsions:
REMARK  status: ('A' for Active; 'I' for Inactive)
REMARK    1  A    between atoms: C_1  and  O_2
REMARK    2  A    between atoms: O_2  and  C_3
REMARK    3  A    between atoms: C_5  and  C_6
REMARK    4  A    between atoms: C_10  and  S_11
REMARK    5  A    between atoms: S_11  and  N_14
REMARK                            x       y       z     vdW  Elec       q    Type
REMARK                         _______ _______ _______ _____ _____    ______ ____
ROOT
ATOM      1  C   UNL     1       6.900   5.276  16.507  0.00  0.00    +0.000 A 
ATOM      2  C   UNL     1       7.590   5.379  15.281  0.00  0.00    +0.000 A 
ATOM      3  C   UNL     1       7.080   4.859  14.077  0.00  0.00    +0.000 A 
ATOM      4  C   UNL     1       7.858   5.061  12.804  0.00  0.00    +0.000 C 
ATOM      5  C   UNL     1       5.861   4.184  14.113  0.00  0.00    +0.000 A 
ATOM      6 BR   UNL     1       5.060   3.458  12.554  0.00  0.00    +0.000 Br
ATOM      7  C   UNL     1       5.184   4.034  15.322  0.00  0.00    +0.000 A 
ATOM      8  C   UNL     1       5.697   4.573  16.523  0.00  0.00    +0.000 A 
ENDROOT
BRANCH   8   9
ATOM      9  S   UNL     1       4.599   4.360  17.903  0.00  0.00    +0.000 S 
ATOM     10  O   UNL     1       5.384   3.621  18.875  0.00  0.00    +0.000 OA
ATOM     11  O   UNL     1       4.088   5.674  18.238  0.00  0.00    +0.000 OA
BRANCH   9  12
ATOM     12  N   UNL     1       3.263   3.385  17.512  0.00  0.00    +0.000 NA
ATOM     13  C   UNL     1       1.918   4.001  17.647  0.00  0.00    +0.000 C 
ATOM     14  C   UNL     1       1.353   3.441  18.943  0.00  0.00    +0.000 C 
ATOM     15  C   UNL     1       1.921   2.040  19.027  0.00  0.00    +0.000 C 
ATOM     16  C   UNL     1       3.225   2.082  18.244  0.00  0.00    +0.000 C 
ENDBRANCH   9  12
ENDBRANCH   8   9
BRANCH   1  18
ATOM     17  C   UNL     1       7.508   7.247  17.684  0.00  0.00    +0.000 C 
ATOM     18  O   UNL     1       7.393   5.823  17.657  0.00  0.00    +0.000 OA
ENDBRANCH   1  18
TORSDOF 3
ENDMDL
MODEL 4
REMARK VINA RESULT:      -6.5      3.210      5.199
REMARK  Name = 
REMARK  5 active torsions:
REMARK  status: ('A' for Active; 'I' for Inactive)
REMARK    1  A    between atoms: C_1  and  O_2
REMARK    2  A    between atoms: O_2  and  C_3
REMARK    3  A    between atoms: C_5  and  C_6
REMARK    4  A    between atoms: C_10  and  S_11
REMARK    5  A    between atoms: S_11  and  N_14
REMARK                            x       y       z     vdW  Elec       q    Type
REMARK                         _______ _______ _______ _____ _____    ______ ____
ROOT
ATOM      1  C   UNL     1       3.857   5.582  18.570  0.00  0.00    +0.000 A 
ATOM      2  C   UNL     1       5.050   6.325  18.457  0.00  0.00    +0.000 A 
ATOM      3  C   UNL     1       6.005   6.082  17.452  0.00  0.00    +0.000 A 
ATOM      4  C   UNL     1       7.225   6.959  17.373  0.00  0.00    +0.000 C 
ATOM      5  C   UNL     1       5.771   5.037  16.559  0.00  0.00    +0.000 A 
ATOM      6 BR   UNL     1       6.972   4.624  15.149  0.00  0.00    +0.000 Br
ATOM      7  C   UNL     1       4.619   4.263  16.680  0.00  0.00    +0.000 A 
ATOM      8  C   UNL     1       3.659   4.525  17.682  0.00  0.00    +0.000 A 
ENDROOT
BRANCH   8   9
ATOM      9  S   UNL     1       2.223   3.486  17.557  0.00  0.00    +0.000 S 
ATOM     10  O   UNL     1       1.107   4.412  17.596  0.00  0.00    +0.000 OA
ATOM     11  O   UNL     1       2.419   2.641  16.397  0.00  0.00    +0.000 OA
BRANCH   9  12
ATOM     12  N   UNL     1       2.056   2.462  18.903  0.00  0.00    +0.000 NA
ATOM     13  C   UNL     1       0.860   2.666  19.759  0.00  0.00    +0.000 C 
ATOM     14  C   UNL     1       1.369   3.416  20.981  0.00  0.00    +0.000 C 
ATOM     15  C   UNL     1       2.775   2.892  21.184  0.00  0.00    +0.000 C 
ATOM     16  C   UNL     1       3.247   2.447  19.808  0.00  0.00    +0.000 C 
ENDBRANCH   9  12
ENDBRANCH   8   9
BRANCH   1  18
ATOM     17  C   UNL     1       2.352   7.168  19.494  0.00  0.00    +0.000 C 
ATOM     18  O   UNL     1       2.924   5.860  19.528  0.00  0.00    +0.000 OA
ENDBRANCH   1  18
TORSDOF 3
ENDMDL
MODEL 5
REMARK VINA RESULT:      -6.5      3.339      5.480
REMARK  Name = 
REMARK  5 active torsions:
REMARK  status: ('A' for Active; 'I' for Inactive)
REMARK    1  A    between atoms: C_1  and  O_2
REMARK    2  A    between atoms: O_2  and  C_3
REMARK    3  A    between atoms: C_5  and  C_6
REMARK    4  A    between atoms: C_10  and  S_11
REMARK    5  A    between atoms: S_11  and  N_14
REMARK                            x       y       z     vdW  Elec       q    Type
REMARK                         _______ _______ _______ _____ _____    ______ ____
ROOT
ATOM      1  C   UNL     1       3.354   6.607  17.939  0.00  0.00    +0.000 A 
ATOM      2  C   UNL     1       4.535   7.349  17.732  0.00  0.00    +0.000 A 
ATOM      3  C   UNL     1       5.782   6.742  17.491  0.00  0.00    +0.000 A 
ATOM      4  C   UNL     1       6.981   7.612  17.227  0.00  0.00    +0.000 C 
ATOM      5  C   UNL     1       5.850   5.350  17.498  0.00  0.00    +0.000 A 
ATOM      6 BR   UNL     1       7.467   4.415  17.166  0.00  0.00    +0.000 Br
ATOM      7  C   UNL     1       4.703   4.598  17.743  0.00  0.00    +0.000 A 
ATOM      8  C   UNL     1       3.452   5.216  17.968  0.00  0.00    +0.000 A 
ENDROOT
BRANCH   8   9
ATOM      9  S   UNL     1       2.122   4.052  18.133  0.00  0.00    +0.000 S 
ATOM     10  O   UNL     1       1.171   4.446  17.110  0.00  0.00    +0.000 OA
ATOM     11  O   UNL     1       2.715   2.731  18.096  0.00  0.00    +0.000 OA
BRANCH   9  12
ATOM     12  N   UNL     1       1.323   4.202  19.626  0.00  0.00    +0.000 NA
ATOM     13  C   UNL     1       2.093   4.806  20.743  0.00  0.00    +0.000 C 
ATOM     14  C   UNL     1       2.512   3.634  21.617  0.00  0.00    +0.000 C 
ATOM     15  C   UNL     1       1.371   2.646  21.491  0.00  0.00    +0.000 C 
ATOM     16  C   UNL     1       0.739   2.924  20.135  0.00  0.00    +0.000 C 
ENDBRANCH   9  12
ENDBRANCH   8   9
BRANCH   1  18
ATOM     17  C   UNL     1       2.050   8.578  17.713  0.00  0.00    +0.000 C 
ATOM     18  O   UNL     1       2.146   7.216  18.130  0.00  0.00    +0.000 OA
ENDBRANCH   1  18
TORSDOF 3
ENDMDL
MODEL 6
REMARK VINA RESULT:      -6.5      1.981      2.568
REMARK  Name = 
REMARK  5 active torsions:
REMARK  status: ('A' for Active; 'I' for Inactive)
REMARK    1  A    between atoms: C_1  and  O_2
REMARK    2  A    between atoms: O_2  and  C_3
REMARK    3  A    between atoms: C_5  and  C_6
REMARK    4  A    between atoms: C_10  and  S_11
REMARK    5  A    between atoms: S_11  and  N_14
REMARK                            x       y       z     vdW  Elec       q    Type
REMARK                         _______ _______ _______ _____ _____    ______ ____
ROOT
ATOM      1  C   UNL     1       2.787   4.976  20.151  0.00  0.00    +0.000 A 
ATOM      2  C   UNL     1       1.969   5.947  20.765  0.00  0.00    +0.000 A 
ATOM      3  C   UNL     1       1.725   7.208  20.190  0.00  0.00    +0.000 A 
ATOM      4  C   UNL     1       0.795   8.163  20.889  0.00  0.00    +0.000 C 
ATOM      5  C   UNL     1       2.352   7.516  18.984  0.00  0.00    +0.000 A 
ATOM      6 BR   UNL     1       2.086   9.174  18.101  0.00  0.00    +0.000 Br
ATOM      7  C   UNL     1       3.198   6.587  18.382  0.00  0.00    +0.000 A 
ATOM      8  C   UNL     1       3.424   5.317  18.958  0.00  0.00    +0.000 A 
ENDROOT
BRANCH   8   9
ATOM      9  S   UNL     1       4.439   4.267  17.947  0.00  0.00    +0.000 S 
ATOM     10  O   UNL     1       5.576   3.948  18.791  0.00  0.00    +0.000 OA
ATOM     11  O   UNL     1       3.584   3.206  17.457  0.00  0.00    +0.000 OA
BRANCH   9  12
ATOM     12  N   UNL     1       5.052   5.086  16.590  0.00  0.00    +0.000 NA
ATOM     13  C   UNL     1       4.939   4.396  15.280  0.00  0.00    +0.000 C 
ATOM     14  C   UNL     1       6.331   3.852  14.996  0.00  0.00    +0.000 C 
ATOM     15  C   UNL     1       7.265   4.873  15.611  0.00  0.00    +0.000 C 
ATOM     16  C   UNL     1       6.474   5.524  16.735  0.00  0.00    +0.000 C 
ENDBRANCH   9  12
ENDBRANCH   8   9
BRANCH   1  18
ATOM     17  C   UNL     1       1.873   3.191  21.422  0.00  0.00    +0.000 C 
ATOM     18  O   UNL     1       2.978   3.742  20.704  0.00  0.00    +0.000 OA
ENDBRANCH   1  18
TORSDOF 3
ENDMDL
MODEL 7
REMARK VINA RESULT:      -6.4      3.191      5.557
REMARK  Name = 
REMARK  5 active torsions:
REMARK  status: ('A' for Active; 'I' for Inactive)
REMARK    1  A    between atoms: C_1  and  O_2
REMARK    2  A    between atoms: O_2  and  C_3
REMARK    3  A    between atoms: C_5  and  C_6
REMARK    4  A    between atoms: C_10  and  S_11
REMARK    5  A    between atoms: S_11  and  N_14
REMARK                            x       y       z     vdW  Elec       q    Type
REMARK                         _______ _______ _______ _____ _____    ______ ____
ROOT
ATOM      1  C   UNL     1       6.316   5.080  17.396  0.00  0.00    +0.000 A 
ATOM      2  C   UNL     1       7.098   5.520  16.308  0.00  0.00    +0.000 A 
ATOM      3  C   UNL     1       6.905   5.052  14.995  0.00  0.00    +0.000 A 
ATOM      4  C   UNL     1       7.750   5.617  13.885  0.00  0.00    +0.000 C 
ATOM      5  C   UNL     1       5.923   4.086  14.776  0.00  0.00    +0.000 A 
ATOM      6 BR   UNL     1       5.554   3.394  13.049  0.00  0.00    +0.000 Br
ATOM      7  C   UNL     1       5.168   3.607  15.845  0.00  0.00    +0.000 A 
ATOM      8  C   UNL     1       5.359   4.094  17.157  0.00  0.00    +0.000 A 
ENDROOT
BRANCH   8   9
ATOM      9  S   UNL     1       4.199   3.423  18.322  0.00  0.00    +0.000 S 
ATOM     10  O   UNL     1       3.569   2.327  17.609  0.00  0.00    +0.000 OA
ATOM     11  O   UNL     1       4.935   3.161  19.542  0.00  0.00    +0.000 OA
BRANCH   9  12
ATOM     12  N   UNL     1       2.966   4.529  18.705  0.00  0.00    +0.000 NA
ATOM     13  C   UNL     1       3.128   5.309  19.958  0.00  0.00    +0.000 C 
ATOM     14  C   UNL     1       2.201   4.644  20.963  0.00  0.00    +0.000 C 
ATOM     15  C   UNL     1       1.035   4.153  20.131  0.00  0.00    +0.000 C 
ATOM     16  C   UNL     1       1.598   3.928  18.735  0.00  0.00    +0.000 C 
ENDBRANCH   9  12
ENDBRANCH   8   9
BRANCH   1  18
ATOM     17  C   UNL     1       7.836   5.880  19.035  0.00  0.00    +0.000 C 
ATOM     18  O   UNL     1       6.493   5.576  18.656  0.00  0.00    +0.000 OA
ENDBRANCH   1  18
TORSDOF 3
ENDMDL
MODEL 8
REMARK VINA RESULT:      -6.3      1.665      2.123
REMARK  Name = 
REMARK  5 active torsions:
REMARK  status: ('A' for Active; 'I' for Inactive)
REMARK    1  A    between atoms: C_1  and  O_2
REMARK    2  A    between atoms: O_2  and  C_3
REMARK    3  A    between atoms: C_5  and  C_6
REMARK    4  A    between atoms: C_10  and  S_11
REMARK    5  A    between atoms: S_11  and  N_14
REMARK                            x       y       z     vdW  Elec       q    Type
REMARK                         _______ _______ _______ _____ _____    ______ ____
ROOT
ATOM      1  C   UNL     1       2.581   5.688  19.967  0.00  0.00    +0.000 A 
ATOM      2  C   UNL     1       1.805   6.568  20.751  0.00  0.00    +0.000 A 
ATOM      3  C   UNL     1       1.455   7.860  20.319  0.00  0.00    +0.000 A 
ATOM      4  C   UNL     1       0.579   8.713  21.197  0.00  0.00    +0.000 C 
ATOM      5  C   UNL     1       1.930   8.295  19.082  0.00  0.00    +0.000 A 
ATOM      6 BR   UNL     1       1.509  10.008  18.383  0.00  0.00    +0.000 Br
ATOM      7  C   UNL     1       2.734   7.457  18.312  0.00  0.00    +0.000 A 
ATOM      8  C   UNL     1       3.067   6.155  18.747  0.00  0.00    +0.000 A 
ENDROOT
BRANCH   8   9
ATOM      9  S   UNL     1       3.995   5.237  17.542  0.00  0.00    +0.000 S 
ATOM     10  O   UNL     1       3.109   4.154  17.157  0.00  0.00    +0.000 OA
ATOM     11  O   UNL     1       4.445   6.189  16.547  0.00  0.00    +0.000 OA
BRANCH   9  12
ATOM     12  N   UNL     1       5.381   4.519  18.214  0.00  0.00    +0.000 NA
ATOM     13  C   UNL     1       6.100   5.293  19.257  0.00  0.00    +0.000 C 
ATOM     14  C   UNL     1       7.316   5.876  18.553  0.00  0.00    +0.000 C 
ATOM     15  C   UNL     1       7.689   4.830  17.523  0.00  0.00    +0.000 C 
ATOM     16  C   UNL     1       6.397   4.093  17.204  0.00  0.00    +0.000 C 
ENDBRANCH   9  12
ENDBRANCH   8   9
BRANCH   1  18
ATOM     17  C   UNL     1       1.969   3.836  21.322  0.00  0.00    +0.000 C 
ATOM     18  O   UNL     1       2.876   4.422  20.387  0.00  0.00    +0.000 OA
ENDBRANCH   1  18
TORSDOF 3
ENDMDL
MODEL 9
REMARK VINA RESULT:      -6.2      2.880      3.863
REMARK  Name = 
REMARK  5 active torsions:
REMARK  status: ('A' for Active; 'I' for Inactive)
REMARK    1  A    between atoms: C_1  and  O_2
REMARK    2  A    between atoms: O_2  and  C_3
REMARK    3  A    between atoms: C_5  and  C_6
REMARK    4  A    between atoms: C_10  and  S_11
REMARK    5  A    between atoms: S_11  and  N_14
REMARK                            x       y       z     vdW  Elec       q    Type
REMARK                         _______ _______ _______ _____ _____    ______ ____
ROOT
ATOM      1  C   UNL     1       3.237   6.557  18.012  0.00  0.00    +0.000 A 
ATOM      2  C   UNL     1       2.233   6.003  18.832  0.00  0.00    +0.000 A 
ATOM      3  C   UNL     1       2.140   4.624  19.093  0.00  0.00    +0.000 A 
ATOM      4  C   UNL     1       1.068   4.125  20.024  0.00  0.00    +0.000 C 
ATOM      5  C   UNL     1       3.059   3.773  18.481  0.00  0.00    +0.000 A 
ATOM      6 BR   UNL     1       3.050   1.898  18.771  0.00  0.00    +0.000 Br
ATOM      7  C   UNL     1       4.033   4.295  17.633  0.00  0.00    +0.000 A 
ATOM      8  C   UNL     1       4.128   5.683  17.389  0.00  0.00    +0.000 A 
ENDROOT
BRANCH   8   9
ATOM      9  S   UNL     1       5.521   6.116  16.376  0.00  0.00    +0.000 S 
ATOM     10  O   UNL     1       4.942   6.846  15.263  0.00  0.00    +0.000 OA
ATOM     11  O   UNL     1       6.483   6.767  17.242  0.00  0.00    +0.000 OA
BRANCH   9  12
ATOM     12  N   UNL     1       6.283   4.746  15.718  0.00  0.00    +0.000 NA
ATOM     13  C   UNL     1       7.614   4.952  15.094  0.00  0.00    +0.000 C 
ATOM     14  C   UNL     1       7.356   4.949  13.595  0.00  0.00    +0.000 C 
ATOM     15  C   UNL     1       6.208   3.978  13.415  0.00  0.00    +0.000 C 
ATOM     16  C   UNL     1       5.444   4.000  14.731  0.00  0.00    +0.000 C 
ENDBRANCH   9  12
ENDBRANCH   8   9
BRANCH   1  18
ATOM     17  C   UNL     1       2.126   8.654  17.929  0.00  0.00    +0.000 C 
ATOM     18  O   UNL     1       3.335   7.904  17.804  0.00  0.00    +0.000 OA
ENDBRANCH   1  18
TORSDOF 3
ENDMDL
