MODEL 1
REMARK VINA RESULT:      -7.3      0.000      0.000
REMARK  Name = 
REMARK  10 active torsions:
REMARK  status: ('A' for Active; 'I' for Inactive)
REMARK    1  A    between atoms: C_1  and  C_2
REMARK    2  A    between atoms: C_2  and  N_3
REMARK    3  A    between atoms: C_4  and  C_6
REMARK    4  A    between atoms: C_11  and  C_13
REMARK    5  A    between atoms: C_17  and  C_18
REMARK    6  A    between atoms: C_18  and  C_19
REMARK    7  A    between atoms: C_19  and  C_20
REMARK    8  A    between atoms: C_20  and  C_21
REMARK    9  A    between atoms: C_20  and  C_22
REMARK   10  A    between atoms: C_20  and  O_23
REMARK                            x       y       z     vdW  Elec       q    Type
REMARK                         _______ _______ _______ _____ _____    ______ ____
ROOT
ATOM      1  C   UNL     1       7.125   5.625  16.617  0.00  0.00    +0.000 C 
ATOM      2  C   UNL     1       7.811   4.514  17.430  0.00  0.00    +0.000 C 
ATOM      3  C   UNL     1       7.255   4.635  18.830  0.00  0.00    +0.000 C 
ATOM      4  C   UNL     1       5.890   5.274  18.661  0.00  0.00    +0.000 C 
ATOM      5  N   UNL     1       5.830   5.809  17.309  0.00  0.00    +0.000 N 
ATOM      6  C   UNL     1       4.835   6.636  16.784  0.00  0.00    +0.000 C 
ATOM      7  O   UNL     1       4.814   6.924  15.588  0.00  0.00    +0.000 OA
ENDROOT
BRANCH   6   8
ATOM      8  C   UNL     1       3.707   7.135  17.640  0.00  0.00    +0.000 A 
ATOM      9  C   UNL     1       3.164   8.401  17.394  0.00  0.00    +0.000 A 
ATOM     10  C   UNL     1       2.138   8.899  18.208  0.00  0.00    +0.000 A 
ATOM     11  C   UNL     1       1.641   8.130  19.263  0.00  0.00    +0.000 A 
ATOM     12  C   UNL     1       2.195   6.880  19.558  0.00  0.00    +0.000 A 
ATOM     13  C   UNL     1       3.246   6.422  18.751  0.00  0.00    +0.000 A 
BRANCH  12  14
ATOM     14  C   UNL     1       1.595   6.048  20.670  0.00  0.00    +0.000 C 
BRANCH  14  15
ATOM     15  C   UNL     1       2.273   4.733  21.097  0.00  0.00    +0.000 C 
BRANCH  15  16
ATOM     16  C   UNL     1       1.681   3.395  20.597  0.00  0.00    +0.000 C 
ATOM     17  C   UNL     1       2.498   2.782  19.459  0.00  0.00    +0.000 C 
ATOM     18  C   UNL     1       1.605   2.427  21.784  0.00  0.00    +0.000 C 
BRANCH  16  19
ATOM     19  O   UNL     1       0.335   3.542  20.154  0.00  0.00    +0.000 OA
ATOM     20  H   UNL     1      -0.188   3.958  20.862  0.00  0.00    +0.000 HD
ENDBRANCH  16  19
ENDBRANCH  15  16
ENDBRANCH  14  15
ENDBRANCH  12  14
ENDBRANCH   6   8
BRANCH   1  22
ATOM     21  N   UNL     1       6.395   4.007  14.924  0.00  0.00    +0.000 N 
ATOM     22  C   UNL     1       7.152   5.131  15.158  0.00  0.00    +0.000 C 
ATOM     23  O   UNL     1       7.955   5.585  14.330  0.00  0.00    +0.000 OA
ATOM     24  H   UNL     1       5.546   4.008  15.486  0.00  0.00    +0.000 HD
BRANCH  21  26
ATOM     25  C   UNL     1       5.091   4.024  12.875  0.00  0.00    +0.000 C 
ATOM     26  C   UNL     1       6.294   3.453  13.596  0.00  0.00    +0.000 C 
ENDBRANCH  21  26
ENDBRANCH   1  22
TORSDOF 7
ENDMDL
MODEL 2
REMARK VINA RESULT:      -7.2      3.649      6.650
REMARK  Name = 
REMARK  10 active torsions:
REMARK  status: ('A' for Active; 'I' for Inactive)
REMARK    1  A    between atoms: C_1  and  C_2
REMARK    2  A    between atoms: C_2  and  N_3
REMARK    3  A    between atoms: C_4  and  C_6
REMARK    4  A    between atoms: C_11  and  C_13
REMARK    5  A    between atoms: C_17  and  C_18
REMARK    6  A    between atoms: C_18  and  C_19
REMARK    7  A    between atoms: C_19  and  C_20
REMARK    8  A    between atoms: C_20  and  C_21
REMARK    9  A    between atoms: C_20  and  C_22
REMARK   10  A    between atoms: C_20  and  O_23
REMARK                            x       y       z     vdW  Elec       q    Type
REMARK                         _______ _______ _______ _____ _____    ______ ____
ROOT
ATOM      1  C   UNL     1       0.356  10.098  20.064  0.00  0.00    +0.000 C 
ATOM      2  C   UNL     1      -0.019   9.939  21.547  0.00  0.00    +0.000 C 
ATOM      3  C   UNL     1       0.107   8.463  21.841  0.00  0.00    +0.000 C 
ATOM      4  C   UNL     1       1.120   7.944  20.839  0.00  0.00    +0.000 C 
ATOM      5  N   UNL     1       1.282   8.970  19.820  0.00  0.00    +0.000 N 
ATOM      6  C   UNL     1       1.976   8.845  18.615  0.00  0.00    +0.000 C 
ATOM      7  O   UNL     1       2.161   9.817  17.885  0.00  0.00    +0.000 OA
ENDROOT
BRANCH   6   8
ATOM      8  C   UNL     1       2.594   7.540  18.206  0.00  0.00    +0.000 A 
ATOM      9  C   UNL     1       3.864   7.534  17.617  0.00  0.00    +0.000 A 
ATOM     10  C   UNL     1       4.439   6.329  17.193  0.00  0.00    +0.000 A 
ATOM     11  C   UNL     1       3.755   5.123  17.365  0.00  0.00    +0.000 A 
ATOM     12  C   UNL     1       2.466   5.105  17.911  0.00  0.00    +0.000 A 
ATOM     13  C   UNL     1       1.899   6.329  18.292  0.00  0.00    +0.000 A 
BRANCH  12  14
ATOM     14  C   UNL     1       1.778   3.778  18.137  0.00  0.00    +0.000 C 
BRANCH  14  15
ATOM     15  C   UNL     1       1.180   3.448  19.517  0.00  0.00    +0.000 C 
BRANCH  15  16
ATOM     16  C   UNL     1       2.131   3.333  20.732  0.00  0.00    +0.000 C 
ATOM     17  C   UNL     1       1.524   2.523  21.877  0.00  0.00    +0.000 C 
ATOM     18  C   UNL     1       3.442   2.693  20.260  0.00  0.00    +0.000 C 
BRANCH  16  19
ATOM     19  O   UNL     1       2.505   4.612  21.236  0.00  0.00    +0.000 OA
ATOM     20  H   UNL     1       3.418   4.807  20.958  0.00  0.00    +0.000 HD
ENDBRANCH  16  19
ENDBRANCH  15  16
ENDBRANCH  14  15
ENDBRANCH  12  14
ENDBRANCH   6   8
BRANCH   1  22
ATOM     21  N   UNL     1       0.693  12.092  18.677  0.00  0.00    +0.000 N 
ATOM     22  C   UNL     1       0.859  11.548  19.928  0.00  0.00    +0.000 C 
ATOM     23  O   UNL     1       1.544  12.087  20.810  0.00  0.00    +0.000 OA
ATOM     24  H   UNL     1      -0.170  11.770  18.244  0.00  0.00    +0.000 HD
BRANCH  21  26
ATOM     25  C   UNL     1       2.546  13.522  18.028  0.00  0.00    +0.000 C 
ATOM     26  C   UNL     1       1.083  13.455  18.410  0.00  0.00    +0.000 C 
ENDBRANCH  21  26
ENDBRANCH   1  22
TORSDOF 7
ENDMDL
MODEL 3
REMARK VINA RESULT:      -7.2      2.187      3.663
REMARK  Name = 
REMARK  10 active torsions:
REMARK  status: ('A' for Active; 'I' for Inactive)
REMARK    1  A    between atoms: C_1  and  C_2
REMARK    2  A    between atoms: C_2  and  N_3
REMARK    3  A    between atoms: C_4  and  C_6
REMARK    4  A    between atoms: C_11  and  C_13
REMARK    5  A    between atoms: C_17  and  C_18
REMARK    6  A    between atoms: C_18  and  C_19
REMARK    7  A    between atoms: C_19  and  C_20
REMARK    8  A    between atoms: C_20  and  C_21
REMARK    9  A    between atoms: C_20  and  C_22
REMARK   10  A    between atoms: C_20  and  O_23
REMARK                            x       y       z     vdW  Elec       q    Type
REMARK                         _______ _______ _______ _____ _____    ______ ____
ROOT
ATOM      1  C   UNL     1       6.637   5.728  17.186  0.00  0.00    +0.000 C 
ATOM      2  C   UNL     1       7.918   5.800  18.033  0.00  0.00    +0.000 C 
ATOM      3  C   UNL     1       7.451   5.969  19.459  0.00  0.00    +0.000 C 
ATOM      4  C   UNL     1       6.067   5.351  19.500  0.00  0.00    +0.000 C 
ATOM      5  N   UNL     1       5.634   5.172  18.122  0.00  0.00    +0.000 N 
ATOM      6  C   UNL     1       4.358   4.807  17.690  0.00  0.00    +0.000 C 
ATOM      7  O   UNL     1       4.136   4.557  16.507  0.00  0.00    +0.000 OA
ENDROOT
BRANCH   6   8
ATOM      8  C   UNL     1       3.231   4.621  18.664  0.00  0.00    +0.000 A 
ATOM      9  C   UNL     1       2.676   3.349  18.840  0.00  0.00    +0.000 A 
ATOM     10  C   UNL     1       1.597   3.165  19.715  0.00  0.00    +0.000 A 
ATOM     11  C   UNL     1       1.076   4.248  20.429  0.00  0.00    +0.000 A 
ATOM     12  C   UNL     1       1.584   5.538  20.238  0.00  0.00    +0.000 A 
ATOM     13  C   UNL     1       2.638   5.700  19.328  0.00  0.00    +0.000 A 
BRANCH  12  14
ATOM     14  C   UNL     1       1.036   6.678  21.068  0.00  0.00    +0.000 C 
BRANCH  14  15
ATOM     15  C   UNL     1       1.516   8.118  20.807  0.00  0.00    +0.000 C 
BRANCH  15  16
ATOM     16  C   UNL     1       0.587   9.293  21.191  0.00  0.00    +0.000 C 
ATOM     17  C   UNL     1      -0.102   9.917  19.977  0.00  0.00    +0.000 C 
ATOM     18  C   UNL     1      -0.454   8.778  22.192  0.00  0.00    +0.000 C 
BRANCH  16  19
ATOM     19  O   UNL     1       1.290  10.320  21.884  0.00  0.00    +0.000 OA
ATOM     20  H   UNL     1       1.665   9.950  22.703  0.00  0.00    +0.000 HD
ENDBRANCH  16  19
ENDBRANCH  15  16
ENDBRANCH  14  15
ENDBRANCH  12  14
ENDBRANCH   6   8
BRANCH   1  22
ATOM     21  N   UNL     1       6.418   5.360  14.771  0.00  0.00    +0.000 N 
ATOM     22  C   UNL     1       7.031   4.934  15.925  0.00  0.00    +0.000 C 
ATOM     23  O   UNL     1       7.675   3.877  15.993  0.00  0.00    +0.000 OA
ATOM     24  H   UNL     1       6.298   6.371  14.765  0.00  0.00    +0.000 HD
BRANCH  21  26
ATOM     25  C   UNL     1       5.677   3.692  13.169  0.00  0.00    +0.000 C 
ATOM     26  C   UNL     1       6.719   4.737  13.505  0.00  0.00    +0.000 C 
ENDBRANCH  21  26
ENDBRANCH   1  22
TORSDOF 7
ENDMDL
MODEL 4
REMARK VINA RESULT:      -7.2      3.269      5.234
REMARK  Name = 
REMARK  10 active torsions:
REMARK  status: ('A' for Active; 'I' for Inactive)
REMARK    1  A    between atoms: C_1  and  C_2
REMARK    2  A    between atoms: C_2  and  N_3
REMARK    3  A    between atoms: C_4  and  C_6
REMARK    4  A    between atoms: C_11  and  C_13
REMARK    5  A    between atoms: C_17  and  C_18
REMARK    6  A    between atoms: C_18  and  C_19
REMARK    7  A    between atoms: C_19  and  C_20
REMARK    8  A    between atoms: C_20  and  C_21
REMARK    9  A    between atoms: C_20  and  C_22
REMARK   10  A    between atoms: C_20  and  O_23
REMARK                            x       y       z     vdW  Elec       q    Type
REMARK                         _______ _______ _______ _____ _____    ______ ____
ROOT
ATOM      1  C   UNL     1       4.257   4.185  17.900  0.00  0.00    +0.000 C 
ATOM      2  C   UNL     1       3.489   2.972  17.350  0.00  0.00    +0.000 C 
ATOM      3  C   UNL     1       2.089   3.095  17.902  0.00  0.00    +0.000 C 
ATOM      4  C   UNL     1       1.890   4.577  18.152  0.00  0.00    +0.000 C 
ATOM      5  N   UNL     1       3.202   5.204  18.092  0.00  0.00    +0.000 N 
ATOM      6  C   UNL     1       3.513   6.519  18.441  0.00  0.00    +0.000 C 
ATOM      7  O   UNL     1       4.631   6.985  18.227  0.00  0.00    +0.000 OA
ENDROOT
BRANCH   6   8
ATOM      8  C   UNL     1       2.474   7.439  19.012  0.00  0.00    +0.000 A 
ATOM      9  C   UNL     1       2.176   7.379  20.378  0.00  0.00    +0.000 A 
ATOM     10  C   UNL     1       1.180   8.202  20.919  0.00  0.00    +0.000 A 
ATOM     11  C   UNL     1       0.486   9.098  20.103  0.00  0.00    +0.000 A 
ATOM     12  C   UNL     1       0.732   9.148  18.726  0.00  0.00    +0.000 A 
ATOM     13  C   UNL     1       1.707   8.286  18.204  0.00  0.00    +0.000 A 
BRANCH  12  14
ATOM     14  C   UNL     1       0.005  10.169  17.881  0.00  0.00    +0.000 C 
BRANCH  14  15
ATOM     15  C   UNL     1      -1.490   9.980  17.565  0.00  0.00    +0.000 C 
BRANCH  15  16
ATOM     16  C   UNL     1      -2.296  11.186  17.027  0.00  0.00    +0.000 C 
ATOM     17  C   UNL     1      -2.854  10.939  15.625  0.00  0.00    +0.000 C 
ATOM     18  C   UNL     1      -3.432  11.485  18.012  0.00  0.00    +0.000 C 
BRANCH  16  19
ATOM     19  O   UNL     1      -1.512  12.375  16.994  0.00  0.00    +0.000 OA
ATOM     20  H   UNL     1      -1.604  12.790  16.117  0.00  0.00    +0.000 HD
ENDBRANCH  16  19
ENDBRANCH  15  16
ENDBRANCH  14  15
ENDBRANCH  12  14
ENDBRANCH   6   8
BRANCH   1  22
ATOM     21  N   UNL     1       4.986   4.468  15.575  0.00  0.00    +0.000 N 
ATOM     22  C   UNL     1       5.392   4.436  16.889  0.00  0.00    +0.000 C 
ATOM     23  O   UNL     1       6.585   4.397  17.222  0.00  0.00    +0.000 OA
ATOM     24  H   UNL     1       4.065   4.892  15.482  0.00  0.00    +0.000 HD
BRANCH  21  26
ATOM     25  C   UNL     1       5.795   3.704  13.417  0.00  0.00    +0.000 C 
ATOM     26  C   UNL     1       5.932   4.733  14.519  0.00  0.00    +0.000 C 
ENDBRANCH  21  26
ENDBRANCH   1  22
TORSDOF 7
ENDMDL
MODEL 5
REMARK VINA RESULT:      -7.2      0.725      1.005
REMARK  Name = 
REMARK  10 active torsions:
REMARK  status: ('A' for Active; 'I' for Inactive)
REMARK    1  A    between atoms: C_1  and  C_2
REMARK    2  A    between atoms: C_2  and  N_3
REMARK    3  A    between atoms: C_4  and  C_6
REMARK    4  A    between atoms: C_11  and  C_13
REMARK    5  A    between atoms: C_17  and  C_18
REMARK    6  A    between atoms: C_18  and  C_19
REMARK    7  A    between atoms: C_19  and  C_20
REMARK    8  A    between atoms: C_20  and  C_21
REMARK    9  A    between atoms: C_20  and  C_22
REMARK   10  A    between atoms: C_20  and  O_23
REMARK                            x       y       z     vdW  Elec       q    Type
REMARK                         _______ _______ _______ _____ _____    ______ ____
ROOT
ATOM      1  C   UNL     1       7.174   5.620  16.398  0.00  0.00    +0.000 C 
ATOM      2  C   UNL     1       7.898   4.499  17.162  0.00  0.00    +0.000 C 
ATOM      3  C   UNL     1       7.378   4.572  18.578  0.00  0.00    +0.000 C 
ATOM      4  C   UNL     1       5.999   5.193  18.463  0.00  0.00    +0.000 C 
ATOM      5  N   UNL     1       5.895   5.764  17.128  0.00  0.00    +0.000 N 
ATOM      6  C   UNL     1       4.873   6.589  16.653  0.00  0.00    +0.000 C 
ATOM      7  O   UNL     1       4.817   6.909  15.467  0.00  0.00    +0.000 OA
ENDROOT
BRANCH   6   8
ATOM      8  C   UNL     1       3.761   7.046  17.551  0.00  0.00    +0.000 A 
ATOM      9  C   UNL     1       3.162   8.291  17.327  0.00  0.00    +0.000 A 
ATOM     10  C   UNL     1       2.150   8.750  18.180  0.00  0.00    +0.000 A 
ATOM     11  C   UNL     1       1.722   7.963  19.252  0.00  0.00    +0.000 A 
ATOM     12  C   UNL     1       2.333   6.734  19.525  0.00  0.00    +0.000 A 
ATOM     13  C   UNL     1       3.369   6.316  18.678  0.00  0.00    +0.000 A 
BRANCH  12  14
ATOM     14  C   UNL     1       1.808   5.881  20.658  0.00  0.00    +0.000 C 
BRANCH  14  15
ATOM     15  C   UNL     1       1.037   4.585  20.350  0.00  0.00    +0.000 C 
BRANCH  15  16
ATOM     16  C   UNL     1       1.785   3.234  20.440  0.00  0.00    +0.000 C 
ATOM     17  C   UNL     1       1.491   2.487  21.740  0.00  0.00    +0.000 C 
ATOM     18  C   UNL     1       1.389   2.381  19.230  0.00  0.00    +0.000 C 
BRANCH  16  19
ATOM     19  O   UNL     1       3.196   3.401  20.328  0.00  0.00    +0.000 OA
ATOM     20  H   UNL     1       3.595   3.317  21.213  0.00  0.00    +0.000 HD
ENDBRANCH  16  19
ENDBRANCH  15  16
ENDBRANCH  14  15
ENDBRANCH  12  14
ENDBRANCH   6   8
BRANCH   1  22
ATOM     21  N   UNL     1       6.392   4.063  14.672  0.00  0.00    +0.000 N 
ATOM     22  C   UNL     1       7.170   5.168  14.926  0.00  0.00    +0.000 C 
ATOM     23  O   UNL     1       7.967   5.631  14.098  0.00  0.00    +0.000 OA
ATOM     24  H   UNL     1       5.551   4.062  15.248  0.00  0.00    +0.000 HD
BRANCH  21  26
ATOM     25  C   UNL     1       4.862   3.795  12.805  0.00  0.00    +0.000 C 
ATOM     26  C   UNL     1       6.260   3.548  13.332  0.00  0.00    +0.000 C 
ENDBRANCH  21  26
ENDBRANCH   1  22
TORSDOF 7
ENDMDL
MODEL 6
REMARK VINA RESULT:      -7.1      3.279      7.717
REMARK  Name = 
REMARK  10 active torsions:
REMARK  status: ('A' for Active; 'I' for Inactive)
REMARK    1  A    between atoms: C_1  and  C_2
REMARK    2  A    between atoms: C_2  and  N_3
REMARK    3  A    between atoms: C_4  and  C_6
REMARK    4  A    between atoms: C_11  and  C_13
REMARK    5  A    between atoms: C_17  and  C_18
REMARK    6  A    between atoms: C_18  and  C_19
REMARK    7  A    between atoms: C_19  and  C_20
REMARK    8  A    between atoms: C_20  and  C_21
REMARK    9  A    between atoms: C_20  and  C_22
REMARK   10  A    between atoms: C_20  and  O_23
REMARK                            x       y       z     vdW  Elec       q    Type
REMARK                         _______ _______ _______ _____ _____    ______ ____
ROOT
ATOM      1  C   UNL     1       1.398   9.679  19.917  0.00  0.00    +0.000 C 
ATOM      2  C   UNL     1       1.330  10.432  18.578  0.00  0.00    +0.000 C 
ATOM      3  C   UNL     1       2.176   9.629  17.619  0.00  0.00    +0.000 C 
ATOM      4  C   UNL     1       2.146   8.211  18.154  0.00  0.00    +0.000 C 
ATOM      5  N   UNL     1       1.626   8.274  19.512  0.00  0.00    +0.000 N 
ATOM      6  C   UNL     1       1.598   7.234  20.443  0.00  0.00    +0.000 C 
ATOM      7  O   UNL     1       1.016   7.361  21.519  0.00  0.00    +0.000 OA
ENDROOT
BRANCH   6   8
ATOM      8  C   UNL     1       2.201   5.895  20.131  0.00  0.00    +0.000 A 
ATOM      9  C   UNL     1       1.465   4.733  20.384  0.00  0.00    +0.000 A 
ATOM     10  C   UNL     1       2.028   3.474  20.137  0.00  0.00    +0.000 A 
ATOM     11  C   UNL     1       3.323   3.369  19.624  0.00  0.00    +0.000 A 
ATOM     12  C   UNL     1       4.098   4.514  19.404  0.00  0.00    +0.000 A 
ATOM     13  C   UNL     1       3.524   5.760  19.696  0.00  0.00    +0.000 A 
BRANCH  12  14
ATOM     14  C   UNL     1       5.474   4.370  18.795  0.00  0.00    +0.000 C 
BRANCH  14  15
ATOM     15  C   UNL     1       6.201   5.608  18.238  0.00  0.00    +0.000 C 
BRANCH  15  16
ATOM     16  C   UNL     1       6.377   5.741  16.707  0.00  0.00    +0.000 C 
ATOM     17  C   UNL     1       6.530   4.387  16.014  0.00  0.00    +0.000 C 
ATOM     18  C   UNL     1       5.166   6.495  16.146  0.00  0.00    +0.000 C 
BRANCH  16  19
ATOM     19  O   UNL     1       7.502   6.547  16.370  0.00  0.00    +0.000 OA
ATOM     20  H   UNL     1       7.577   7.272  17.016  0.00  0.00    +0.000 HD
ENDBRANCH  16  19
ENDBRANCH  15  16
ENDBRANCH  14  15
ENDBRANCH  12  14
ENDBRANCH   6   8
BRANCH   1  22
ATOM     21  N   UNL     1       0.249  10.195  22.022  0.00  0.00    +0.000 N 
ATOM     22  C   UNL     1       0.104  10.062  20.662  0.00  0.00    +0.000 C 
ATOM     23  O   UNL     1      -1.002  10.038  20.104  0.00  0.00    +0.000 OA
ATOM     24  H   UNL     1       1.156  10.592  22.262  0.00  0.00    +0.000 HD
BRANCH  21  26
ATOM     25  C   UNL     1      -1.034  12.093  22.828  0.00  0.00    +0.000 C 
ATOM     26  C   UNL     1      -0.867  10.588  22.846  0.00  0.00    +0.000 C 
ENDBRANCH  21  26
ENDBRANCH   1  22
TORSDOF 7
ENDMDL
MODEL 7
REMARK VINA RESULT:      -7.1      2.170      3.782
REMARK  Name = 
REMARK  10 active torsions:
REMARK  status: ('A' for Active; 'I' for Inactive)
REMARK    1  A    between atoms: C_1  and  C_2
REMARK    2  A    between atoms: C_2  and  N_3
REMARK    3  A    between atoms: C_4  and  C_6
REMARK    4  A    between atoms: C_11  and  C_13
REMARK    5  A    between atoms: C_17  and  C_18
REMARK    6  A    between atoms: C_18  and  C_19
REMARK    7  A    between atoms: C_19  and  C_20
REMARK    8  A    between atoms: C_20  and  C_21
REMARK    9  A    between atoms: C_20  and  C_22
REMARK   10  A    between atoms: C_20  and  O_23
REMARK                            x       y       z     vdW  Elec       q    Type
REMARK                         _______ _______ _______ _____ _____    ______ ____
ROOT
ATOM      1  C   UNL     1       5.760   5.510  16.084  0.00  0.00    +0.000 C 
ATOM      2  C   UNL     1       7.067   6.185  16.531  0.00  0.00    +0.000 C 
ATOM      3  C   UNL     1       6.790   6.727  17.913  0.00  0.00    +0.000 C 
ATOM      4  C   UNL     1       5.691   5.845  18.473  0.00  0.00    +0.000 C 
ATOM      5  N   UNL     1       5.133   5.093  17.358  0.00  0.00    +0.000 N 
ATOM      6  C   UNL     1       3.985   4.300  17.380  0.00  0.00    +0.000 C 
ATOM      7  O   UNL     1       3.676   3.603  16.414  0.00  0.00    +0.000 OA
ENDROOT
BRANCH   6   8
ATOM      8  C   UNL     1       3.132   4.201  18.611  0.00  0.00    +0.000 A 
ATOM      9  C   UNL     1       2.840   2.941  19.147  0.00  0.00    +0.000 A 
ATOM     10  C   UNL     1       2.013   2.828  20.271  0.00  0.00    +0.000 A 
ATOM     11  C   UNL     1       1.483   3.971  20.875  0.00  0.00    +0.000 A 
ATOM     12  C   UNL     1       1.723   5.239  20.333  0.00  0.00    +0.000 A 
ATOM     13  C   UNL     1       2.523   5.321  19.185  0.00  0.00    +0.000 A 
BRANCH  12  14
ATOM     14  C   UNL     1       1.182   6.461  21.043  0.00  0.00    +0.000 C 
BRANCH  14  15
ATOM     15  C   UNL     1       1.684   7.862  20.651  0.00  0.00    +0.000 C 
BRANCH  15  16
ATOM     16  C   UNL     1       0.927   9.101  21.184  0.00  0.00    +0.000 C 
ATOM     17  C   UNL     1       0.732  10.174  20.114  0.00  0.00    +0.000 C 
ATOM     18  C   UNL     1      -0.429   8.638  21.732  0.00  0.00    +0.000 C 
BRANCH  16  19
ATOM     19  O   UNL     1       1.592   9.692  22.296  0.00  0.00    +0.000 OA
ATOM     20  H   UNL     1       1.293  10.614  22.390  0.00  0.00    +0.000 HD
ENDBRANCH  16  19
ENDBRANCH  15  16
ENDBRANCH  14  15
ENDBRANCH  12  14
ENDBRANCH   6   8
BRANCH   1  22
ATOM     21  N   UNL     1       5.423   4.418  13.913  0.00  0.00    +0.000 N 
ATOM     22  C   UNL     1       6.188   4.445  15.055  0.00  0.00    +0.000 C 
ATOM     23  O   UNL     1       7.008   3.559  15.335  0.00  0.00    +0.000 OA
ATOM     24  H   UNL     1       5.130   5.355  13.641  0.00  0.00    +0.000 HD
BRANCH  21  26
ATOM     25  C   UNL     1       4.600   3.465  11.837  0.00  0.00    +0.000 C 
ATOM     26  C   UNL     1       5.729   3.500  12.844  0.00  0.00    +0.000 C 
ENDBRANCH  21  26
ENDBRANCH   1  22
TORSDOF 7
ENDMDL
MODEL 8
REMARK VINA RESULT:      -7.0      2.994      5.061
REMARK  Name = 
REMARK  10 active torsions:
REMARK  status: ('A' for Active; 'I' for Inactive)
REMARK    1  A    between atoms: C_1  and  C_2
REMARK    2  A    between atoms: C_2  and  N_3
REMARK    3  A    between atoms: C_4  and  C_6
REMARK    4  A    between atoms: C_11  and  C_13
REMARK    5  A    between atoms: C_17  and  C_18
REMARK    6  A    between atoms: C_18  and  C_19
REMARK    7  A    between atoms: C_19  and  C_20
REMARK    8  A    between atoms: C_20  and  C_21
REMARK    9  A    between atoms: C_20  and  C_22
REMARK   10  A    between atoms: C_20  and  O_23
REMARK                            x       y       z     vdW  Elec       q    Type
REMARK                         _______ _______ _______ _____ _____    ______ ____
ROOT
ATOM      1  C   UNL     1       4.705   3.898  17.470  0.00  0.00    +0.000 C 
ATOM      2  C   UNL     1       3.923   2.691  16.925  0.00  0.00    +0.000 C 
ATOM      3  C   UNL     1       2.552   2.780  17.553  0.00  0.00    +0.000 C 
ATOM      4  C   UNL     1       2.349   4.251  17.856  0.00  0.00    +0.000 C 
ATOM      5  N   UNL     1       3.648   4.897  17.746  0.00  0.00    +0.000 N 
ATOM      6  C   UNL     1       3.962   6.206  18.118  0.00  0.00    +0.000 C 
ATOM      7  O   UNL     1       5.062   6.692  17.860  0.00  0.00    +0.000 OA
ENDROOT
BRANCH   6   8
ATOM      8  C   UNL     1       2.943   7.095  18.769  0.00  0.00    +0.000 A 
ATOM      9  C   UNL     1       2.562   6.851  20.093  0.00  0.00    +0.000 A 
ATOM     10  C   UNL     1       1.583   7.647  20.703  0.00  0.00    +0.000 A 
ATOM     11  C   UNL     1       0.989   8.697  19.998  0.00  0.00    +0.000 A 
ATOM     12  C   UNL     1       1.319   8.934  18.659  0.00  0.00    +0.000 A 
ATOM     13  C   UNL     1       2.274   8.100  18.061  0.00  0.00    +0.000 A 
BRANCH  12  14
ATOM     14  C   UNL     1       0.701  10.114  17.943  0.00  0.00    +0.000 C 
BRANCH  14  15
ATOM     15  C   UNL     1      -0.786  10.450  18.158  0.00  0.00    +0.000 C 
BRANCH  15  16
ATOM     16  C   UNL     1      -1.201  11.933  18.301  0.00  0.00    +0.000 C 
ATOM     17  C   UNL     1      -2.341  12.129  19.300  0.00  0.00    +0.000 C 
ATOM     18  C   UNL     1       0.031  12.740  18.728  0.00  0.00    +0.000 C 
BRANCH  16  19
ATOM     19  O   UNL     1      -1.597  12.496  17.053  0.00  0.00    +0.000 OA
ATOM     20  H   UNL     1      -0.847  12.451  16.434  0.00  0.00    +0.000 HD
ENDBRANCH  16  19
ENDBRANCH  15  16
ENDBRANCH  14  15
ENDBRANCH  12  14
ENDBRANCH   6   8
BRANCH   1  22
ATOM     21  N   UNL     1       5.347   4.076  15.110  0.00  0.00    +0.000 N 
ATOM     22  C   UNL     1       5.782   4.193  16.409  0.00  0.00    +0.000 C 
ATOM     23  O   UNL     1       6.978   4.313  16.708  0.00  0.00    +0.000 OA
ATOM     24  H   UNL     1       4.382   4.387  15.012  0.00  0.00    +0.000 HD
BRANCH  21  26
ATOM     25  C   UNL     1       5.878   3.508  12.809  0.00  0.00    +0.000 C 
ATOM     26  C   UNL     1       6.234   4.360  14.009  0.00  0.00    +0.000 C 
ENDBRANCH  21  26
ENDBRANCH   1  22
TORSDOF 7
ENDMDL
MODEL 9
REMARK VINA RESULT:      -7.0      2.412      7.449
REMARK  Name = 
REMARK  10 active torsions:
REMARK  status: ('A' for Active; 'I' for Inactive)
REMARK    1  A    between atoms: C_1  and  C_2
REMARK    2  A    between atoms: C_2  and  N_3
REMARK    3  A    between atoms: C_4  and  C_6
REMARK    4  A    between atoms: C_11  and  C_13
REMARK    5  A    between atoms: C_17  and  C_18
REMARK    6  A    between atoms: C_18  and  C_19
REMARK    7  A    between atoms: C_19  and  C_20
REMARK    8  A    between atoms: C_20  and  C_21
REMARK    9  A    between atoms: C_20  and  C_22
REMARK   10  A    between atoms: C_20  and  O_23
REMARK                            x       y       z     vdW  Elec       q    Type
REMARK                         _______ _______ _______ _____ _____    ______ ____
ROOT
ATOM      1  C   UNL     1       1.739   4.675  19.175  0.00  0.00    +0.000 C 
ATOM      2  C   UNL     1       1.072   3.313  19.433  0.00  0.00    +0.000 C 
ATOM      3  C   UNL     1       1.747   2.347  18.489  0.00  0.00    +0.000 C 
ATOM      4  C   UNL     1       3.121   2.934  18.234  0.00  0.00    +0.000 C 
ATOM      5  N   UNL     1       3.095   4.311  18.704  0.00  0.00    +0.000 N 
ATOM      6  C   UNL     1       4.080   5.280  18.503  0.00  0.00    +0.000 C 
ATOM      7  O   UNL     1       4.015   6.376  19.057  0.00  0.00    +0.000 OA
ENDROOT
BRANCH   6   8
ATOM      8  C   UNL     1       5.297   4.990  17.673  0.00  0.00    +0.000 A 
ATOM      9  C   UNL     1       6.542   4.861  18.299  0.00  0.00    +0.000 A 
ATOM     10  C   UNL     1       7.694   4.630  17.536  0.00  0.00    +0.000 A 
ATOM     11  C   UNL     1       7.607   4.515  16.146  0.00  0.00    +0.000 A 
ATOM     12  C   UNL     1       6.382   4.685  15.491  0.00  0.00    +0.000 A 
ATOM     13  C   UNL     1       5.251   4.952  16.275  0.00  0.00    +0.000 A 
BRANCH  12  14
ATOM     14  C   UNL     1       6.312   4.497  13.992  0.00  0.00    +0.000 C 
BRANCH  14  15
ATOM     15  C   UNL     1       5.355   3.451  13.392  0.00  0.00    +0.000 C 
BRANCH  15  16
ATOM     16  C   UNL     1       5.544   3.029  11.916  0.00  0.00    +0.000 C 
ATOM     17  C   UNL     1       4.331   3.367  11.050  0.00  0.00    +0.000 C 
ATOM     18  C   UNL     1       6.800   3.721  11.373  0.00  0.00    +0.000 C 
BRANCH  16  19
ATOM     19  O   UNL     1       5.808   1.635  11.793  0.00  0.00    +0.000 OA
ATOM     20  H   UNL     1       6.427   1.494  11.054  0.00  0.00    +0.000 HD
ENDBRANCH  16  19
ENDBRANCH  15  16
ENDBRANCH  14  15
ENDBRANCH  12  14
ENDBRANCH   6   8
BRANCH   1  22
ATOM     21  N   UNL     1       1.361   6.811  20.318  0.00  0.00    +0.000 N 
ATOM     22  C   UNL     1       1.569   5.463  20.488  0.00  0.00    +0.000 C 
ATOM     23  O   UNL     1       1.814   4.955  21.591  0.00  0.00    +0.000 OA
ATOM     24  H   UNL     1       0.798   6.999  19.490  0.00  0.00    +0.000 HD
BRANCH  21  26
ATOM     25  C   UNL     1       0.725   9.053  21.003  0.00  0.00    +0.000 C 
ATOM     26  C   UNL     1       1.145   7.671  21.456  0.00  0.00    +0.000 C 
ENDBRANCH  21  26
ENDBRANCH   1  22
TORSDOF 7
ENDMDL
