MODEL 1
REMARK VINA RESULT:      -5.1      0.000      0.000
REMARK  Name = 
REMARK  6 active torsions:
REMARK  status: ('A' for Active; 'I' for Inactive)
REMARK    1  A    between atoms: O_1  and  C_2
REMARK    2  A    between atoms: C_2  and  C_3
REMARK    3  A    between atoms: C_5  and  S_6
REMARK    4  A    between atoms: C_7  and  O_8
REMARK    5  A    between atoms: C_9  and  O_10
REMARK    6  A    between atoms: C_11  and  O_12
REMARK                            x       y       z     vdW  Elec       q    Type
REMARK                         _______ _______ _______ _____ _____    ______ ____
ROOT
ATOM      1  C   UNL     1       6.674   4.931  18.731  0.00  0.00    +0.000 C 
ATOM      2  O   UNL     1       5.425   5.416  19.261  0.00  0.00    +0.000 OA
ATOM      3  C   UNL     1       4.327   4.565  18.932  0.00  0.00    +0.000 C 
ATOM      4  C   UNL     1       4.101   4.566  17.403  0.00  0.00    +0.000 C 
ATOM      5  C   UNL     1       5.413   4.139  16.716  0.00  0.00    +0.000 C 
ATOM      6  C   UNL     1       6.620   4.955  17.198  0.00  0.00    +0.000 C 
ENDROOT
BRANCH   3   7
ATOM      7  S   UNL     1       2.845   5.126  19.833  0.00  0.00    +0.000 S 
ATOM      8  H   UNL     1       3.038   6.435  19.628  0.00  0.00    +0.000 HD
ENDBRANCH   3   7
BRANCH   4   9
ATOM      9  O   UNL     1       3.051   3.674  17.025  0.00  0.00    +0.000 OA
ATOM     10  H   UNL     1       2.722   3.946  16.145  0.00  0.00    +0.000 HD
ENDBRANCH   4   9
BRANCH   5  11
ATOM     11  O   UNL     1       5.272   4.232  15.284  0.00  0.00    +0.000 OA
ATOM     12  H   UNL     1       4.399   3.870  15.036  0.00  0.00    +0.000 HD
ENDBRANCH   5  11
BRANCH   6  13
ATOM     13  O   UNL     1       7.839   4.449  16.651  0.00  0.00    +0.000 OA
ATOM     14  H   UNL     1       8.575   5.020  16.943  0.00  0.00    +0.000 HD
ENDBRANCH   6  13
BRANCH   1  15
ATOM     15  C   UNL     1       7.801   5.822  19.263  0.00  0.00    +0.000 C 
BRANCH  15  16
ATOM     16  O   UNL     1       8.112   5.439  20.604  0.00  0.00    +0.000 OA
ATOM     17  H   UNL     1       8.323   6.253  21.092  0.00  0.00    +0.000 HD
ENDBRANCH  15  16
ENDBRANCH   1  15
TORSDOF 6
ENDMDL
MODEL 2
REMARK VINA RESULT:      -5.1      1.439      3.368
REMARK  Name = 
REMARK  6 active torsions:
REMARK  status: ('A' for Active; 'I' for Inactive)
REMARK    1  A    between atoms: O_1  and  C_2
REMARK    2  A    between atoms: C_2  and  C_3
REMARK    3  A    between atoms: C_5  and  S_6
REMARK    4  A    between atoms: C_7  and  O_8
REMARK    5  A    between atoms: C_9  and  O_10
REMARK    6  A    between atoms: C_11  and  O_12
REMARK                            x       y       z     vdW  Elec       q    Type
REMARK                         _______ _______ _______ _____ _____    ______ ____
ROOT
ATOM      1  C   UNL     1       5.546   4.923  16.238  0.00  0.00    +0.000 C 
ATOM      2  O   UNL     1       4.305   4.272  16.573  0.00  0.00    +0.000 OA
ATOM      3  C   UNL     1       3.615   4.930  17.636  0.00  0.00    +0.000 C 
ATOM      4  C   UNL     1       4.442   4.833  18.938  0.00  0.00    +0.000 C 
ATOM      5  C   UNL     1       5.838   5.429  18.674  0.00  0.00    +0.000 C 
ATOM      6  C   UNL     1       6.507   4.830  17.430  0.00  0.00    +0.000 C 
ENDROOT
BRANCH   3   7
ATOM      7  S   UNL     1       1.963   4.185  17.829  0.00  0.00    +0.000 S 
ATOM      8  H   UNL     1       1.448   4.680  16.697  0.00  0.00    +0.000 HD
ENDBRANCH   3   7
BRANCH   4   9
ATOM      9  O   UNL     1       3.817   5.536  20.013  0.00  0.00    +0.000 OA
ATOM     10  H   UNL     1       2.977   5.914  19.683  0.00  0.00    +0.000 HD
ENDBRANCH   4   9
BRANCH   5  11
ATOM     11  O   UNL     1       6.675   5.258  19.837  0.00  0.00    +0.000 OA
ATOM     12  H   UNL     1       6.109   4.985  20.585  0.00  0.00    +0.000 HD
ENDBRANCH   5  11
BRANCH   6  13
ATOM     13  O   UNL     1       7.735   5.495  17.130  0.00  0.00    +0.000 OA
ATOM     14  H   UNL     1       7.544   6.431  16.929  0.00  0.00    +0.000 HD
ENDBRANCH   6  13
BRANCH   1  15
ATOM     15  C   UNL     1       6.129   4.239  14.997  0.00  0.00    +0.000 C 
BRANCH  15  16
ATOM     16  O   UNL     1       6.982   5.156  14.311  0.00  0.00    +0.000 OA
ATOM     17  H   UNL     1       7.670   5.432  14.941  0.00  0.00    +0.000 HD
ENDBRANCH  15  16
ENDBRANCH   1  15
TORSDOF 6
ENDMDL
MODEL 3
REMARK VINA RESULT:      -5.0      2.137      4.533
REMARK  Name = 
REMARK  6 active torsions:
REMARK  status: ('A' for Active; 'I' for Inactive)
REMARK    1  A    between atoms: O_1  and  C_2
REMARK    2  A    between atoms: C_2  and  C_3
REMARK    3  A    between atoms: C_5  and  S_6
REMARK    4  A    between atoms: C_7  and  O_8
REMARK    5  A    between atoms: C_9  and  O_10
REMARK    6  A    between atoms: C_11  and  O_12
REMARK                            x       y       z     vdW  Elec       q    Type
REMARK                         _______ _______ _______ _____ _____    ______ ____
ROOT
ATOM      1  C   UNL     1       3.851   4.553  17.875  0.00  0.00    +0.000 C 
ATOM      2  O   UNL     1       4.445   4.737  16.575  0.00  0.00    +0.000 OA
ATOM      3  C   UNL     1       5.724   4.112  16.468  0.00  0.00    +0.000 C 
ATOM      4  C   UNL     1       6.724   4.795  17.427  0.00  0.00    +0.000 C 
ATOM      5  C   UNL     1       6.150   4.735  18.856  0.00  0.00    +0.000 C 
ATOM      6  C   UNL     1       4.710   5.261  18.931  0.00  0.00    +0.000 C 
ENDROOT
BRANCH   3   7
ATOM      7  S   UNL     1       6.286   4.194  14.736  0.00  0.00    +0.000 S 
ATOM      8  H   UNL     1       6.772   5.440  14.801  0.00  0.00    +0.000 HD
ENDBRANCH   3   7
BRANCH   4   9
ATOM      9  O   UNL     1       8.002   4.157  17.398  0.00  0.00    +0.000 OA
ATOM     10  H   UNL     1       8.591   4.678  16.816  0.00  0.00    +0.000 HD
ENDBRANCH   4   9
BRANCH   5  11
ATOM     11  O   UNL     1       7.006   5.458  19.762  0.00  0.00    +0.000 OA
ATOM     12  H   UNL     1       6.528   5.582  20.605  0.00  0.00    +0.000 HD
ENDBRANCH   5  11
BRANCH   6  13
ATOM     13  O   UNL     1       4.155   5.065  20.233  0.00  0.00    +0.000 OA
ATOM     14  H   UNL     1       4.706   4.420  20.716  0.00  0.00    +0.000 HD
ENDBRANCH   6  13
BRANCH   1  15
ATOM     15  C   UNL     1       2.429   5.122  17.840  0.00  0.00    +0.000 C 
BRANCH  15  16
ATOM     16  O   UNL     1       1.524   4.103  17.411  0.00  0.00    +0.000 OA
ATOM     17  H   UNL     1       1.655   3.990  16.453  0.00  0.00    +0.000 HD
ENDBRANCH  15  16
ENDBRANCH   1  15
TORSDOF 6
ENDMDL
MODEL 4
REMARK VINA RESULT:      -5.0      2.595      4.038
REMARK  Name = 
REMARK  6 active torsions:
REMARK  status: ('A' for Active; 'I' for Inactive)
REMARK    1  A    between atoms: O_1  and  C_2
REMARK    2  A    between atoms: C_2  and  C_3
REMARK    3  A    between atoms: C_5  and  S_6
REMARK    4  A    between atoms: C_7  and  O_8
REMARK    5  A    between atoms: C_9  and  O_10
REMARK    6  A    between atoms: C_11  and  O_12
REMARK                            x       y       z     vdW  Elec       q    Type
REMARK                         _______ _______ _______ _____ _____    ______ ____
ROOT
ATOM      1  C   UNL     1       2.689   3.391  19.700  0.00  0.00    +0.000 C 
ATOM      2  O   UNL     1       2.439   4.793  19.916  0.00  0.00    +0.000 OA
ATOM      3  C   UNL     1       2.945   5.606  18.857  0.00  0.00    +0.000 C 
ATOM      4  C   UNL     1       4.487   5.512  18.813  0.00  0.00    +0.000 C 
ATOM      5  C   UNL     1       4.881   4.029  18.667  0.00  0.00    +0.000 C 
ATOM      6  C   UNL     1       4.202   3.136  19.714  0.00  0.00    +0.000 C 
ENDROOT
BRANCH   3   7
ATOM      7  S   UNL     1       2.381   7.322  19.097  0.00  0.00    +0.000 S 
ATOM      8  H   UNL     1       1.148   7.139  18.609  0.00  0.00    +0.000 HD
ENDBRANCH   3   7
BRANCH   4   9
ATOM      9  O   UNL     1       5.030   6.260  17.724  0.00  0.00    +0.000 OA
ATOM     10  H   UNL     1       5.994   6.350  17.866  0.00  0.00    +0.000 HD
ENDBRANCH   4   9
BRANCH   5  11
ATOM     11  O   UNL     1       6.315   3.891  18.731  0.00  0.00    +0.000 OA
ATOM     12  H   UNL     1       6.526   3.125  19.299  0.00  0.00    +0.000 HD
ENDBRANCH   5  11
BRANCH   6  13
ATOM     13  O   UNL     1       4.474   1.754  19.472  0.00  0.00    +0.000 OA
ATOM     14  H   UNL     1       4.861   1.364  20.278  0.00  0.00    +0.000 HD
ENDBRANCH   6  13
BRANCH   1  15
ATOM     15  C   UNL     1       1.980   2.599  20.803  0.00  0.00    +0.000 C 
BRANCH  15  16
ATOM     16  O   UNL     1       2.838   2.503  21.941  0.00  0.00    +0.000 OA
ATOM     17  H   UNL     1       3.356   1.685  21.839  0.00  0.00    +0.000 HD
ENDBRANCH  15  16
ENDBRANCH   1  15
TORSDOF 6
ENDMDL
MODEL 5
REMARK VINA RESULT:      -5.0      2.314      4.656
REMARK  Name = 
REMARK  6 active torsions:
REMARK  status: ('A' for Active; 'I' for Inactive)
REMARK    1  A    between atoms: O_1  and  C_2
REMARK    2  A    between atoms: C_2  and  C_3
REMARK    3  A    between atoms: C_5  and  S_6
REMARK    4  A    between atoms: C_7  and  O_8
REMARK    5  A    between atoms: C_9  and  O_10
REMARK    6  A    between atoms: C_11  and  O_12
REMARK                            x       y       z     vdW  Elec       q    Type
REMARK                         _______ _______ _______ _____ _____    ______ ____
ROOT
ATOM      1  C   UNL     1       3.973   3.245  17.464  0.00  0.00    +0.000 C 
ATOM      2  O   UNL     1       4.422   3.877  16.250  0.00  0.00    +0.000 OA
ATOM      3  C   UNL     1       5.846   3.924  16.155  0.00  0.00    +0.000 C 
ATOM      4  C   UNL     1       6.417   4.828  17.271  0.00  0.00    +0.000 C 
ATOM      5  C   UNL     1       5.928   4.292  18.631  0.00  0.00    +0.000 C 
ATOM      6  C   UNL     1       4.407   4.090  18.669  0.00  0.00    +0.000 C 
ENDROOT
BRANCH   3   7
ATOM      7  S   UNL     1       6.316   4.521  14.498  0.00  0.00    +0.000 S 
ATOM      8  H   UNL     1       6.821   3.359  14.065  0.00  0.00    +0.000 HD
ENDBRANCH   3   7
BRANCH   4   9
ATOM      9  O   UNL     1       7.845   4.850  17.253  0.00  0.00    +0.000 OA
ATOM     10  H   UNL     1       8.139   5.766  17.432  0.00  0.00    +0.000 HD
ENDBRANCH   4   9
BRANCH   5  11
ATOM     11  O   UNL     1       6.352   5.174  19.690  0.00  0.00    +0.000 OA
ATOM     12  H   UNL     1       7.110   5.699  19.368  0.00  0.00    +0.000 HD
ENDBRANCH   5  11
BRANCH   6  13
ATOM     13  O   UNL     1       3.997   3.465  19.887  0.00  0.00    +0.000 OA
ATOM     14  H   UNL     1       3.630   4.147  20.481  0.00  0.00    +0.000 HD
ENDBRANCH   6  13
BRANCH   1  15
ATOM     15  C   UNL     1       2.449   3.106  17.400  0.00  0.00    +0.000 C 
BRANCH  15  16
ATOM     16  O   UNL     1       2.059   1.888  18.036  0.00  0.00    +0.000 OA
ATOM     17  H   UNL     1       2.864   1.351  18.143  0.00  0.00    +0.000 HD
ENDBRANCH  15  16
ENDBRANCH   1  15
TORSDOF 6
ENDMDL
MODEL 6
REMARK VINA RESULT:      -5.0      2.891      4.671
REMARK  Name = 
REMARK  6 active torsions:
REMARK  status: ('A' for Active; 'I' for Inactive)
REMARK    1  A    between atoms: O_1  and  C_2
REMARK    2  A    between atoms: C_2  and  C_3
REMARK    3  A    between atoms: C_5  and  S_6
REMARK    4  A    between atoms: C_7  and  O_8
REMARK    5  A    between atoms: C_9  and  O_10
REMARK    6  A    between atoms: C_11  and  O_12
REMARK                            x       y       z     vdW  Elec       q    Type
REMARK                         _______ _______ _______ _____ _____    ______ ____
ROOT
ATOM      1  C   UNL     1       1.770   3.821  18.994  0.00  0.00    +0.000 C 
ATOM      2  O   UNL     1       2.740   4.885  18.932  0.00  0.00    +0.000 OA
ATOM      3  C   UNL     1       3.544   4.822  17.754  0.00  0.00    +0.000 C 
ATOM      4  C   UNL     1       4.407   3.540  17.775  0.00  0.00    +0.000 C 
ATOM      5  C   UNL     1       3.471   2.324  17.925  0.00  0.00    +0.000 C 
ATOM      6  C   UNL     1       2.498   2.475  19.101  0.00  0.00    +0.000 C 
ENDROOT
BRANCH   3   7
ATOM      7  S   UNL     1       4.570   6.324  17.648  0.00  0.00    +0.000 S 
ATOM      8  H   UNL     1       3.552   7.185  17.520  0.00  0.00    +0.000 HD
ENDBRANCH   3   7
BRANCH   4   9
ATOM      9  O   UNL     1       5.179   3.405  16.581  0.00  0.00    +0.000 OA
ATOM     10  H   UNL     1       5.038   2.505  16.226  0.00  0.00    +0.000 HD
ENDBRANCH   4   9
BRANCH   5  11
ATOM     11  O   UNL     1       4.249   1.117  18.056  0.00  0.00    +0.000 OA
ATOM     12  H   UNL     1       3.644   0.353  18.000  0.00  0.00    +0.000 HD
ENDBRANCH   5  11
BRANCH   6  13
ATOM     13  O   UNL     1       1.554   1.402  19.133  0.00  0.00    +0.000 OA
ATOM     14  H   UNL     1       1.988   0.614  19.512  0.00  0.00    +0.000 HD
ENDBRANCH   6  13
BRANCH   1  15
ATOM     15  C   UNL     1       0.865   4.064  20.206  0.00  0.00    +0.000 C 
BRANCH  15  16
ATOM     16  O   UNL     1       1.351   3.309  21.317  0.00  0.00    +0.000 OA
ATOM     17  H   UNL     1       1.888   2.583  20.955  0.00  0.00    +0.000 HD
ENDBRANCH  15  16
ENDBRANCH   1  15
TORSDOF 6
ENDMDL
MODEL 7
REMARK VINA RESULT:      -4.9      2.490      3.655
REMARK  Name = 
REMARK  6 active torsions:
REMARK  status: ('A' for Active; 'I' for Inactive)
REMARK    1  A    between atoms: O_1  and  C_2
REMARK    2  A    between atoms: C_2  and  C_3
REMARK    3  A    between atoms: C_5  and  S_6
REMARK    4  A    between atoms: C_7  and  O_8
REMARK    5  A    between atoms: C_9  and  O_10
REMARK    6  A    between atoms: C_11  and  O_12
REMARK                            x       y       z     vdW  Elec       q    Type
REMARK                         _______ _______ _______ _____ _____    ______ ____
ROOT
ATOM      1  C   UNL     1       4.322   3.811  18.699  0.00  0.00    +0.000 C 
ATOM      2  O   UNL     1       3.535   4.978  19.003  0.00  0.00    +0.000 OA
ATOM      3  C   UNL     1       2.581   4.738  20.038  0.00  0.00    +0.000 C 
ATOM      4  C   UNL     1       1.535   3.706  19.559  0.00  0.00    +0.000 C 
ATOM      5  C   UNL     1       2.276   2.427  19.123  0.00  0.00    +0.000 C 
ATOM      6  C   UNL     1       3.410   2.716  18.130  0.00  0.00    +0.000 C 
ENDROOT
BRANCH   3   7
ATOM      7  S   UNL     1       1.803   6.317  20.512  0.00  0.00    +0.000 S 
ATOM      8  H   UNL     1       0.549   5.850  20.560  0.00  0.00    +0.000 HD
ENDBRANCH   3   7
BRANCH   4   9
ATOM      9  O   UNL     1       0.599   3.388  20.590  0.00  0.00    +0.000 OA
ATOM     10  H   UNL     1       0.551   2.414  20.670  0.00  0.00    +0.000 HD
ENDBRANCH   4   9
BRANCH   5  11
ATOM     11  O   UNL     1       1.341   1.480  18.569  0.00  0.00    +0.000 OA
ATOM     12  H   UNL     1       1.294   1.621  17.604  0.00  0.00    +0.000 HD
ENDBRANCH   5  11
BRANCH   6  13
ATOM     13  O   UNL     1       4.166   1.536  17.850  0.00  0.00    +0.000 OA
ATOM     14  H   UNL     1       4.578   1.224  18.678  0.00  0.00    +0.000 HD
ENDBRANCH   6  13
BRANCH   1  15
ATOM     15  C   UNL     1       5.408   4.209  17.695  0.00  0.00    +0.000 C 
BRANCH  15  16
ATOM     16  O   UNL     1       6.686   4.136  18.330  0.00  0.00    +0.000 OA
ATOM     17  H   UNL     1       6.701   3.312  18.848  0.00  0.00    +0.000 HD
ENDBRANCH  15  16
ENDBRANCH   1  15
TORSDOF 6
ENDMDL
MODEL 8
REMARK VINA RESULT:      -4.9      2.365      4.308
REMARK  Name = 
REMARK  6 active torsions:
REMARK  status: ('A' for Active; 'I' for Inactive)
REMARK    1  A    between atoms: O_1  and  C_2
REMARK    2  A    between atoms: C_2  and  C_3
REMARK    3  A    between atoms: C_5  and  S_6
REMARK    4  A    between atoms: C_7  and  O_8
REMARK    5  A    between atoms: C_9  and  O_10
REMARK    6  A    between atoms: C_11  and  O_12
REMARK                            x       y       z     vdW  Elec       q    Type
REMARK                         _______ _______ _______ _____ _____    ______ ____
ROOT
ATOM      1  C   UNL     1       2.597   3.605  18.503  0.00  0.00    +0.000 C 
ATOM      2  O   UNL     1       2.343   5.001  18.753  0.00  0.00    +0.000 OA
ATOM      3  C   UNL     1       3.185   5.855  17.979  0.00  0.00    +0.000 C 
ATOM      4  C   UNL     1       4.658   5.668  18.407  0.00  0.00    +0.000 C 
ATOM      5  C   UNL     1       5.024   4.179  18.261  0.00  0.00    +0.000 C 
ATOM      6  C   UNL     1       4.019   3.256  18.963  0.00  0.00    +0.000 C 
ENDROOT
BRANCH   3   7
ATOM      7  S   UNL     1       2.637   7.581  18.183  0.00  0.00    +0.000 S 
ATOM      8  H   UNL     1       3.419   7.857  19.234  0.00  0.00    +0.000 HD
ENDBRANCH   3   7
BRANCH   4   9
ATOM      9  O   UNL     1       5.543   6.458  17.611  0.00  0.00    +0.000 OA
ATOM     10  H   UNL     1       5.574   7.359  17.991  0.00  0.00    +0.000 HD
ENDBRANCH   4   9
BRANCH   5  11
ATOM     11  O   UNL     1       6.360   3.948  18.754  0.00  0.00    +0.000 OA
ATOM     12  H   UNL     1       6.805   4.812  18.853  0.00  0.00    +0.000 HD
ENDBRANCH   5  11
BRANCH   6  13
ATOM     13  O   UNL     1       4.303   1.881  18.696  0.00  0.00    +0.000 OA
ATOM     14  H   UNL     1       3.810   1.609  17.898  0.00  0.00    +0.000 HD
ENDBRANCH   6  13
BRANCH   1  15
ATOM     15  C   UNL     1       1.549   2.781  19.257  0.00  0.00    +0.000 C 
BRANCH  15  16
ATOM     16  O   UNL     1       1.380   1.522  18.606  0.00  0.00    +0.000 OA
ATOM     17  H   UNL     1       2.174   1.372  18.063  0.00  0.00    +0.000 HD
ENDBRANCH  15  16
ENDBRANCH   1  15
TORSDOF 6
ENDMDL
MODEL 9
REMARK VINA RESULT:      -4.9      1.351      1.351
REMARK  Name = 
REMARK  6 active torsions:
REMARK  status: ('A' for Active; 'I' for Inactive)
REMARK    1  A    between atoms: O_1  and  C_2
REMARK    2  A    between atoms: C_2  and  C_3
REMARK    3  A    between atoms: C_5  and  S_6
REMARK    4  A    between atoms: C_7  and  O_8
REMARK    5  A    between atoms: C_9  and  O_10
REMARK    6  A    between atoms: C_11  and  O_12
REMARK                            x       y       z     vdW  Elec       q    Type
REMARK                         _______ _______ _______ _____ _____    ______ ____
ROOT
ATOM      1  C   UNL     1       7.176   5.240  18.471  0.00  0.00    +0.000 C 
ATOM      2  O   UNL     1       6.092   4.724  19.267  0.00  0.00    +0.000 OA
ATOM      3  C   UNL     1       5.205   3.900  18.511  0.00  0.00    +0.000 C 
ATOM      4  C   UNL     1       4.495   4.745  17.429  0.00  0.00    +0.000 C 
ATOM      5  C   UNL     1       5.569   5.423  16.557  0.00  0.00    +0.000 C 
ATOM      6  C   UNL     1       6.615   6.175  17.392  0.00  0.00    +0.000 C 
ENDROOT
BRANCH   3   7
ATOM      7  S   UNL     1       4.012   3.110  19.640  0.00  0.00    +0.000 S 
ATOM      8  H   UNL     1       4.394   3.772  20.739  0.00  0.00    +0.000 HD
ENDBRANCH   3   7
BRANCH   4   9
ATOM      9  O   UNL     1       3.646   3.944  16.606  0.00  0.00    +0.000 OA
ATOM     10  H   UNL     1       2.724   4.069  16.906  0.00  0.00    +0.000 HD
ENDBRANCH   4   9
BRANCH   5  11
ATOM     11  O   UNL     1       4.945   6.307  15.604  0.00  0.00    +0.000 OA
ATOM     12  H   UNL     1       4.547   5.764  14.895  0.00  0.00    +0.000 HD
ENDBRANCH   5  11
BRANCH   6  13
ATOM     13  O   UNL     1       7.672   6.675  16.571  0.00  0.00    +0.000 OA
ATOM     14  H   UNL     1       7.284   7.204  15.848  0.00  0.00    +0.000 HD
ENDBRANCH   6  13
BRANCH   1  15
ATOM     15  C   UNL     1       8.146   5.978  19.399  0.00  0.00    +0.000 C 
BRANCH  15  16
ATOM     16  O   UNL     1       8.141   5.351  20.682  0.00  0.00    +0.000 OA
ATOM     17  H   UNL     1       8.439   6.016  21.327  0.00  0.00    +0.000 HD
ENDBRANCH  15  16
ENDBRANCH   1  15
TORSDOF 6
ENDMDL
