MODEL 1
REMARK VINA RESULT:      -6.4      0.000      0.000
REMARK  Name = 
REMARK  6 active torsions:
REMARK  status: ('A' for Active; 'I' for Inactive)
REMARK    1  A    between atoms: C_1  and  O_2
REMARK    2  A    between atoms: O_2  and  C_3
REMARK    3  A    between atoms: C_3  and  C_5
REMARK    4  A    between atoms: C_5  and  C_6
REMARK    5  A    between atoms: C_6  and  C_7
REMARK    6  A    between atoms: C_21  and  C_23
REMARK                            x       y       z     vdW  Elec       q    Type
REMARK                         _______ _______ _______ _____ _____    ______ ____
ROOT
ATOM      1  C   UNL     1      -0.921  12.782  20.115  0.00  0.00    +0.000 C 
ATOM      2  C   UNL     1       0.526  13.415  20.263  0.00  0.00    +0.000 C 
ATOM      3  C   UNL     1       1.823  12.706  19.848  0.00  0.00    +0.000 C 
ATOM      4  C   UNL     1       1.835  11.920  18.550  0.00  0.00    +0.000 C 
ATOM      5  C   UNL     1       1.501  10.428  18.687  0.00  0.00    +0.000 C 
ATOM      6  C   UNL     1       0.188   9.931  19.317  0.00  0.00    +0.000 C 
ATOM      7  C   UNL     1      -0.104  10.390  20.737  0.00  0.00    +0.000 C 
ATOM      8  N   UNL     1      -0.979  11.549  21.032  0.00  0.00    +0.000 N 
ATOM      9  C   UNL     1      -1.018  11.656  22.479  0.00  0.00    +0.000 C 
ATOM     10  O   UNL     1      -0.403  10.876  23.219  0.00  0.00    +0.000 OA
ENDROOT
BRANCH   9  11
ATOM     11  C   UNL     1      -1.852  12.638  23.213  0.00  0.00    +0.000 A 
ATOM     12  C   UNL     1      -3.175  12.372  23.565  0.00  0.00    +0.000 A 
ATOM     13  C   UNL     1      -3.927  13.343  24.230  0.00  0.00    +0.000 A 
ATOM     14  C   UNL     1      -3.324  14.530  24.657  0.00  0.00    +0.000 A 
ATOM     15  C   UNL     1      -1.975  14.751  24.424  0.00  0.00    +0.000 A 
ATOM     16  C   UNL     1      -1.241  13.812  23.697  0.00  0.00    +0.000 A 
ENDBRANCH   9  11
BRANCH   1  17
ATOM     17  C   UNL     1      -1.827  14.027  20.448  0.00  0.00    +0.000 C 
ATOM     18  O   UNL     1      -3.043  13.995  20.603  0.00  0.00    +0.000 OA
BRANCH  17  20
ATOM     19  C   UNL     1      -1.795  16.354  20.937  0.00  0.00    +0.000 C 
ATOM     20  O   UNL     1      -1.083  15.156  20.627  0.00  0.00    +0.000 OA
ENDBRANCH  17  20
ENDBRANCH   1  17
BRANCH   1  21
ATOM     21  C   UNL     1      -1.262  12.550  18.555  0.00  0.00    +0.000 C 
BRANCH  21  22
ATOM     22  C   UNL     1      -2.460  11.879  17.867  0.00  0.00    +0.000 A 
ATOM     23  C   UNL     1      -3.646  11.493  18.493  0.00  0.00    +0.000 A 
ATOM     24  C   UNL     1      -4.555  10.637  17.835  0.00  0.00    +0.000 A 
ATOM     25  C   UNL     1      -4.295  10.158  16.548  0.00  0.00    +0.000 A 
ATOM     26  C   UNL     1      -3.149  10.579  15.891  0.00  0.00    +0.000 A 
ATOM     27 CL   UNL     1      -2.804   9.996  14.309  0.00  0.00    +0.000 Cl
ATOM     28  C   UNL     1      -2.250  11.435  16.542  0.00  0.00    +0.000 A 
ENDBRANCH  21  22
ENDBRANCH   1  21
TORSDOF 5
ENDMDL
MODEL 2
REMARK VINA RESULT:      -6.4      1.011      1.321
REMARK  Name = 
REMARK  6 active torsions:
REMARK  status: ('A' for Active; 'I' for Inactive)
REMARK    1  A    between atoms: C_1  and  O_2
REMARK    2  A    between atoms: O_2  and  C_3
REMARK    3  A    between atoms: C_3  and  C_5
REMARK    4  A    between atoms: C_5  and  C_6
REMARK    5  A    between atoms: C_6  and  C_7
REMARK    6  A    between atoms: C_21  and  C_23
REMARK                            x       y       z     vdW  Elec       q    Type
REMARK                         _______ _______ _______ _____ _____    ______ ____
ROOT
ATOM      1  C   UNL     1      -0.893  12.731  20.045  0.00  0.00    +0.000 C 
ATOM      2  C   UNL     1       0.513  13.451  20.182  0.00  0.00    +0.000 C 
ATOM      3  C   UNL     1       1.847  12.821  19.761  0.00  0.00    +0.000 C 
ATOM      4  C   UNL     1       1.899  12.033  18.465  0.00  0.00    +0.000 C 
ATOM      5  C   UNL     1       1.658  10.523  18.609  0.00  0.00    +0.000 C 
ATOM      6  C   UNL     1       0.381   9.950  19.250  0.00  0.00    +0.000 C 
ATOM      7  C   UNL     1       0.071  10.395  20.670  0.00  0.00    +0.000 C 
ATOM      8  N   UNL     1      -0.871  11.500  20.967  0.00  0.00    +0.000 N 
ATOM      9  C   UNL     1      -0.907  11.609  22.414  0.00  0.00    +0.000 C 
ATOM     10  O   UNL     1      -0.241  10.871  23.152  0.00  0.00    +0.000 OA
ENDROOT
BRANCH   9  11
ATOM     11  C   UNL     1      -1.795  12.541  23.150  0.00  0.00    +0.000 A 
ATOM     12  C   UNL     1      -3.098  12.199  23.507  0.00  0.00    +0.000 A 
ATOM     13  C   UNL     1      -3.903  13.125  24.174  0.00  0.00    +0.000 A 
ATOM     14  C   UNL     1      -3.370  14.345  24.598  0.00  0.00    +0.000 A 
ATOM     15  C   UNL     1      -2.037  14.645  24.359  0.00  0.00    +0.000 A 
ATOM     16  C   UNL     1      -1.252  13.750  23.631  0.00  0.00    +0.000 A 
ENDBRANCH   9  11
BRANCH   1  17
ATOM     17  C   UNL     1      -1.872  13.919  20.381  0.00  0.00    +0.000 C 
ATOM     18  O   UNL     1      -3.081  13.813  20.555  0.00  0.00    +0.000 OA
BRANCH  17  20
ATOM     19  C   UNL     1      -1.976  16.245  20.871  0.00  0.00    +0.000 C 
ATOM     20  O   UNL     1      -1.198  15.096  20.537  0.00  0.00    +0.000 OA
ENDBRANCH  17  20
ENDBRANCH   1  17
BRANCH   1  21
ATOM     21  C   UNL     1      -1.231  12.473  18.489  0.00  0.00    +0.000 C 
BRANCH  21  22
ATOM     22  C   UNL     1      -2.223  11.519  17.809  0.00  0.00    +0.000 A 
ATOM     23  C   UNL     1      -1.924  10.648  16.760  0.00  0.00    +0.000 A 
ATOM     24  C   UNL     1      -2.961  10.030  16.027  0.00  0.00    +0.000 A 
ATOM     25  C   UNL     1      -4.304  10.270  16.332  0.00  0.00    +0.000 A 
ATOM     26  C   UNL     1      -4.615  11.088  17.407  0.00  0.00    +0.000 A 
ATOM     27 CL   UNL     1      -6.262  11.405  17.796  0.00  0.00    +0.000 Cl
ATOM     28  C   UNL     1      -3.585  11.695  18.140  0.00  0.00    +0.000 A 
ENDBRANCH  21  22
ENDBRANCH   1  21
TORSDOF 5
ENDMDL
MODEL 3
REMARK VINA RESULT:      -6.0      2.759      5.569
REMARK  Name = 
REMARK  6 active torsions:
REMARK  status: ('A' for Active; 'I' for Inactive)
REMARK    1  A    between atoms: C_1  and  O_2
REMARK    2  A    between atoms: O_2  and  C_3
REMARK    3  A    between atoms: C_3  and  C_5
REMARK    4  A    between atoms: C_5  and  C_6
REMARK    5  A    between atoms: C_6  and  C_7
REMARK    6  A    between atoms: C_21  and  C_23
REMARK                            x       y       z     vdW  Elec       q    Type
REMARK                         _______ _______ _______ _____ _____    ______ ____
ROOT
ATOM      1  C   UNL     1      -0.591  13.296  20.865  0.00  0.00    +0.000 C 
ATOM      2  C   UNL     1      -0.465  13.413  22.442  0.00  0.00    +0.000 C 
ATOM      3  C   UNL     1      -1.643  13.261  23.413  0.00  0.00    +0.000 C 
ATOM      4  C   UNL     1      -2.663  12.170  23.150  0.00  0.00    +0.000 C 
ATOM      5  C   UNL     1      -3.883  12.601  22.323  0.00  0.00    +0.000 C 
ATOM      6  C   UNL     1      -3.751  13.223  20.921  0.00  0.00    +0.000 C 
ATOM      7  C   UNL     1      -2.907  14.483  20.810  0.00  0.00    +0.000 C 
ATOM      8  N   UNL     1      -1.486  14.452  20.389  0.00  0.00    +0.000 N 
ATOM      9  C   UNL     1      -1.043  15.834  20.394  0.00  0.00    +0.000 C 
ATOM     10  O   UNL     1      -1.792  16.770  20.706  0.00  0.00    +0.000 OA
ENDROOT
BRANCH   9  11
ATOM     11  C   UNL     1       0.303  16.272  19.952  0.00  0.00    +0.000 A 
ATOM     12  C   UNL     1       0.621  16.449  18.606  0.00  0.00    +0.000 A 
ATOM     13  C   UNL     1       1.913  16.834  18.241  0.00  0.00    +0.000 A 
ATOM     14  C   UNL     1       2.852  17.166  19.222  0.00  0.00    +0.000 A 
ATOM     15  C   UNL     1       2.508  17.115  20.564  0.00  0.00    +0.000 A 
ATOM     16  C   UNL     1       1.240  16.663  20.931  0.00  0.00    +0.000 A 
ENDBRANCH   9  11
BRANCH   1  17
ATOM     17  C   UNL     1       0.927  13.282  20.444  0.00  0.00    +0.000 C 
ATOM     18  O   UNL     1       1.877  13.255  21.220  0.00  0.00    +0.000 OA
BRANCH  17  20
ATOM     19  C   UNL     1       2.402  13.080  18.589  0.00  0.00    +0.000 C 
ATOM     20  O   UNL     1       1.072  13.221  19.089  0.00  0.00    +0.000 OA
ENDBRANCH  17  20
ENDBRANCH   1  17
BRANCH   1  21
ATOM     21  C   UNL     1      -1.046  11.803  20.459  0.00  0.00    +0.000 C 
BRANCH  21  22
ATOM     22  C   UNL     1      -0.331  10.450  20.595  0.00  0.00    +0.000 A 
ATOM     23  C   UNL     1      -0.097   9.773  21.793  0.00  0.00    +0.000 A 
ATOM     24  C   UNL     1       0.808   8.690  21.836  0.00  0.00    +0.000 A 
ATOM     25  C   UNL     1       1.486   8.270  20.688  0.00  0.00    +0.000 A 
ATOM     26  C   UNL     1       1.220   8.896  19.480  0.00  0.00    +0.000 A 
ATOM     27 CL   UNL     1       2.050   8.401  18.056  0.00  0.00    +0.000 Cl
ATOM     28  C   UNL     1       0.316   9.966  19.437  0.00  0.00    +0.000 A 
ENDBRANCH  21  22
ENDBRANCH   1  21
TORSDOF 5
ENDMDL
MODEL 4
REMARK VINA RESULT:      -5.9      7.692     10.488
REMARK  Name = 
REMARK  6 active torsions:
REMARK  status: ('A' for Active; 'I' for Inactive)
REMARK    1  A    between atoms: C_1  and  O_2
REMARK    2  A    between atoms: O_2  and  C_3
REMARK    3  A    between atoms: C_3  and  C_5
REMARK    4  A    between atoms: C_5  and  C_6
REMARK    5  A    between atoms: C_6  and  C_7
REMARK    6  A    between atoms: C_21  and  C_23
REMARK                            x       y       z     vdW  Elec       q    Type
REMARK                         _______ _______ _______ _____ _____    ______ ____
ROOT
ATOM      1  C   UNL     1       7.838  13.949  22.423  0.00  0.00    +0.000 C 
ATOM      2  C   UNL     1       8.076  14.966  23.617  0.00  0.00    +0.000 C 
ATOM      3  C   UNL     1       8.026  14.577  25.101  0.00  0.00    +0.000 C 
ATOM      4  C   UNL     1       8.660  13.266  25.528  0.00  0.00    +0.000 C 
ATOM      5  C   UNL     1       7.708  12.062  25.564  0.00  0.00    +0.000 C 
ATOM      6  C   UNL     1       6.902  11.610  24.333  0.00  0.00    +0.000 C 
ATOM      7  C   UNL     1       5.984  12.644  23.701  0.00  0.00    +0.000 C 
ATOM      8  N   UNL     1       6.387  13.451  22.526  0.00  0.00    +0.000 N 
ATOM      9  C   UNL     1       5.249  14.299  22.220  0.00  0.00    +0.000 C 
ATOM     10  O   UNL     1       4.201  14.267  22.880  0.00  0.00    +0.000 OA
ENDROOT
BRANCH   9  11
ATOM     11  C   UNL     1       5.189  15.214  21.055  0.00  0.00    +0.000 A 
ATOM     12  C   UNL     1       4.750  14.790  19.801  0.00  0.00    +0.000 A 
ATOM     13  C   UNL     1       4.742  15.685  18.728  0.00  0.00    +0.000 A 
ATOM     14  C   UNL     1       5.049  17.033  18.933  0.00  0.00    +0.000 A 
ATOM     15  C   UNL     1       5.365  17.492  20.203  0.00  0.00    +0.000 A 
ATOM     16  C   UNL     1       5.442  16.585  21.261  0.00  0.00    +0.000 A 
ENDBRANCH   9  11
BRANCH   1  17
ATOM     17  C   UNL     1       8.257  14.835  21.189  0.00  0.00    +0.000 C 
ATOM     18  O   UNL     1       8.865  15.898  21.255  0.00  0.00    +0.000 OA
BRANCH  17  20
ATOM     19  C   UNL     1       8.515  14.783  18.825  0.00  0.00    +0.000 C 
ATOM     20  O   UNL     1       7.930  14.236  20.007  0.00  0.00    +0.000 OA
ENDBRANCH  17  20
ENDBRANCH   1  17
BRANCH   1  21
ATOM     21  C   UNL     1       8.997  12.828  22.416  0.00  0.00    +0.000 C 
BRANCH  21  22
ATOM     22  C   UNL     1       9.770  12.172  21.261  0.00  0.00    +0.000 A 
ATOM     23  C   UNL     1      10.967  12.639  20.717  0.00  0.00    +0.000 A 
ATOM     24  C   UNL     1      11.439  12.131  19.487  0.00  0.00    +0.000 A 
ATOM     25  C   UNL     1      10.725  11.153  18.788  0.00  0.00    +0.000 A 
ATOM     26  C   UNL     1       9.564  10.639  19.345  0.00  0.00    +0.000 A 
ATOM     27 CL   UNL     1       8.665   9.440  18.498  0.00  0.00    +0.000 Cl
ATOM     28  C   UNL     1       9.100  11.138  20.570  0.00  0.00    +0.000 A 
ENDBRANCH  21  22
ENDBRANCH   1  21
TORSDOF 5
ENDMDL
MODEL 5
REMARK VINA RESULT:      -5.8      2.300      4.858
REMARK  Name = 
REMARK  6 active torsions:
REMARK  status: ('A' for Active; 'I' for Inactive)
REMARK    1  A    between atoms: C_1  and  O_2
REMARK    2  A    between atoms: O_2  and  C_3
REMARK    3  A    between atoms: C_3  and  C_5
REMARK    4  A    between atoms: C_5  and  C_6
REMARK    5  A    between atoms: C_6  and  C_7
REMARK    6  A    between atoms: C_21  and  C_23
REMARK                            x       y       z     vdW  Elec       q    Type
REMARK                         _______ _______ _______ _____ _____    ______ ____
ROOT
ATOM      1  C   UNL     1      -1.241  13.428  20.406  0.00  0.00    +0.000 C 
ATOM      2  C   UNL     1      -0.418  13.301  21.756  0.00  0.00    +0.000 C 
ATOM      3  C   UNL     1      -1.043  12.959  23.115  0.00  0.00    +0.000 C 
ATOM      4  C   UNL     1      -2.116  11.888  23.171  0.00  0.00    +0.000 C 
ATOM      5  C   UNL     1      -3.558  12.402  23.055  0.00  0.00    +0.000 C 
ATOM      6  C   UNL     1      -4.042  13.239  21.857  0.00  0.00    +0.000 C 
ATOM      7  C   UNL     1      -3.287  14.528  21.577  0.00  0.00    +0.000 C 
ATOM      8  N   UNL     1      -2.207  14.612  20.566  0.00  0.00    +0.000 N 
ATOM      9  C   UNL     1      -1.754  15.991  20.587  0.00  0.00    +0.000 C 
ATOM     10  O   UNL     1      -2.246  16.841  21.341  0.00  0.00    +0.000 OA
ENDROOT
BRANCH   9  11
ATOM     11  C   UNL     1      -0.731  16.538  19.663  0.00  0.00    +0.000 A 
ATOM     12  C   UNL     1      -1.064  17.070  18.417  0.00  0.00    +0.000 A 
ATOM     13  C   UNL     1      -0.059  17.545  17.572  0.00  0.00    +0.000 A 
ATOM     14  C   UNL     1       1.264  17.609  18.018  0.00  0.00    +0.000 A 
ATOM     15  C   UNL     1       1.588  17.200  19.303  0.00  0.00    +0.000 A 
ATOM     16  C   UNL     1       0.596  16.659  20.122  0.00  0.00    +0.000 A 
ENDBRANCH   9  11
BRANCH   1  17
ATOM     17  C   UNL     1      -0.072  13.531  19.353  0.00  0.00    +0.000 C 
ATOM     18  O   UNL     1      -0.214  13.783  18.162  0.00  0.00    +0.000 OA
BRANCH  17  20
ATOM     19  C   UNL     1       2.245  13.065  19.085  0.00  0.00    +0.000 C 
ATOM     20  O   UNL     1       1.150  13.383  19.943  0.00  0.00    +0.000 OA
ENDBRANCH  17  20
ENDBRANCH   1  17
BRANCH   1  21
ATOM     21  C   UNL     1      -1.888  12.002  20.020  0.00  0.00    +0.000 C 
BRANCH  21  22
ATOM     22  C   UNL     1      -2.578  11.512  18.738  0.00  0.00    +0.000 A 
ATOM     23  C   UNL     1      -1.945  10.882  17.666  0.00  0.00    +0.000 A 
ATOM     24  C   UNL     1      -2.613  10.732  16.430  0.00  0.00    +0.000 A 
ATOM     25  C   UNL     1      -3.915  11.205  16.251  0.00  0.00    +0.000 A 
ATOM     26  C   UNL     1      -4.576  11.782  17.324  0.00  0.00    +0.000 A 
ATOM     27 CL   UNL     1      -6.178  12.380  17.124  0.00  0.00    +0.000 Cl
ATOM     28  C   UNL     1      -3.916  11.924  18.553  0.00  0.00    +0.000 A 
ENDBRANCH  21  22
ENDBRANCH   1  21
TORSDOF 5
ENDMDL
MODEL 6
REMARK VINA RESULT:      -5.8      2.180      4.697
REMARK  Name = 
REMARK  6 active torsions:
REMARK  status: ('A' for Active; 'I' for Inactive)
REMARK    1  A    between atoms: C_1  and  O_2
REMARK    2  A    between atoms: O_2  and  C_3
REMARK    3  A    between atoms: C_3  and  C_5
REMARK    4  A    between atoms: C_5  and  C_6
REMARK    5  A    between atoms: C_6  and  C_7
REMARK    6  A    between atoms: C_21  and  C_23
REMARK                            x       y       z     vdW  Elec       q    Type
REMARK                         _______ _______ _______ _____ _____    ______ ____
ROOT
ATOM      1  C   UNL     1       0.196  11.804  20.182  0.00  0.00    +0.000 C 
ATOM      2  C   UNL     1       1.235  10.838  20.891  0.00  0.00    +0.000 C 
ATOM      3  C   UNL     1       0.979  10.131  22.229  0.00  0.00    +0.000 C 
ATOM      4  C   UNL     1      -0.394   9.537  22.483  0.00  0.00    +0.000 C 
ATOM      5  C   UNL     1      -1.383  10.462  23.207  0.00  0.00    +0.000 C 
ATOM      6  C   UNL     1      -1.761  11.851  22.664  0.00  0.00    +0.000 C 
ATOM      7  C   UNL     1      -0.619  12.828  22.432  0.00  0.00    +0.000 C 
ATOM      8  N   UNL     1       0.001  13.022  21.100  0.00  0.00    +0.000 N 
ATOM      9  C   UNL     1       1.028  14.030  21.287  0.00  0.00    +0.000 C 
ATOM     10  O   UNL     1       1.252  14.555  22.386  0.00  0.00    +0.000 OA
ENDROOT
BRANCH   9  11
ATOM     11  C   UNL     1       1.845  14.592  20.184  0.00  0.00    +0.000 A 
ATOM     12  C   UNL     1       1.386  15.630  19.375  0.00  0.00    +0.000 A 
ATOM     13  C   UNL     1       2.183  16.103  18.329  0.00  0.00    +0.000 A 
ATOM     14  C   UNL     1       3.488  15.629  18.169  0.00  0.00    +0.000 A 
ATOM     15  C   UNL     1       4.001  14.685  19.047  0.00  0.00    +0.000 A 
ATOM     16  C   UNL     1       3.181  14.162  20.048  0.00  0.00    +0.000 A 
ENDBRANCH   9  11
BRANCH   1  17
ATOM     17  C   UNL     1       0.886  12.007  18.780  0.00  0.00    +0.000 C 
ATOM     18  O   UNL     1       0.552  12.836  17.940  0.00  0.00    +0.000 OA
BRANCH  17  20
ATOM     19  C   UNL     1       1.791  10.021  17.833  0.00  0.00    +0.000 C 
ATOM     20  O   UNL     1       1.970  11.192  18.631  0.00  0.00    +0.000 OA
ENDBRANCH  17  20
ENDBRANCH   1  17
BRANCH   1  21
ATOM     21  C   UNL     1      -1.127  10.980  19.768  0.00  0.00    +0.000 C 
BRANCH  21  22
ATOM     22  C   UNL     1      -2.238  11.286  18.753  0.00  0.00    +0.000 A 
ATOM     23  C   UNL     1      -3.450  11.915  19.040  0.00  0.00    +0.000 A 
ATOM     24  C   UNL     1      -4.507  11.892  18.104  0.00  0.00    +0.000 A 
ATOM     25  C   UNL     1      -4.367  11.245  16.873  0.00  0.00    +0.000 A 
ATOM     26  C   UNL     1      -3.149  10.665  16.550  0.00  0.00    +0.000 A 
ATOM     27 CL   UNL     1      -2.956   9.856  15.043  0.00  0.00    +0.000 Cl
ATOM     28  C   UNL     1      -2.098  10.696  17.477  0.00  0.00    +0.000 A 
ENDBRANCH  21  22
ENDBRANCH   1  21
TORSDOF 5
ENDMDL
MODEL 7
REMARK VINA RESULT:      -5.7      6.887     10.543
REMARK  Name = 
REMARK  6 active torsions:
REMARK  status: ('A' for Active; 'I' for Inactive)
REMARK    1  A    between atoms: C_1  and  O_2
REMARK    2  A    between atoms: O_2  and  C_3
REMARK    3  A    between atoms: C_3  and  C_5
REMARK    4  A    between atoms: C_5  and  C_6
REMARK    5  A    between atoms: C_6  and  C_7
REMARK    6  A    between atoms: C_21  and  C_23
REMARK                            x       y       z     vdW  Elec       q    Type
REMARK                         _______ _______ _______ _____ _____    ______ ____
ROOT
ATOM      1  C   UNL     1       3.277   5.270  18.740  0.00  0.00    +0.000 C 
ATOM      2  C   UNL     1       1.965   4.798  17.984  0.00  0.00    +0.000 C 
ATOM      3  C   UNL     1       0.876   3.921  18.616  0.00  0.00    +0.000 C 
ATOM      4  C   UNL     1       0.462   4.201  20.049  0.00  0.00    +0.000 C 
ATOM      5  C   UNL     1       1.212   3.390  21.116  0.00  0.00    +0.000 C 
ATOM      6  C   UNL     1       2.746   3.415  21.244  0.00  0.00    +0.000 C 
ATOM      7  C   UNL     1       3.540   3.014  20.011  0.00  0.00    +0.000 C 
ATOM      8  N   UNL     1       4.097   4.011  19.067  0.00  0.00    +0.000 N 
ATOM      9  C   UNL     1       4.789   3.244  18.046  0.00  0.00    +0.000 C 
ATOM     10  O   UNL     1       4.838   2.007  18.065  0.00  0.00    +0.000 OA
ENDROOT
BRANCH   9  11
ATOM     11  C   UNL     1       5.568   3.853  16.942  0.00  0.00    +0.000 A 
ATOM     12  C   UNL     1       6.892   4.262  17.105  0.00  0.00    +0.000 A 
ATOM     13  C   UNL     1       7.572   4.858  16.041  0.00  0.00    +0.000 A 
ATOM     14  C   UNL     1       6.978   4.931  14.777  0.00  0.00    +0.000 A 
ATOM     15  C   UNL     1       5.708   4.413  14.572  0.00  0.00    +0.000 A 
ATOM     16  C   UNL     1       5.001   3.881  15.651  0.00  0.00    +0.000 A 
ENDBRANCH   9  11
BRANCH   1  17
ATOM     17  C   UNL     1       3.856   6.313  17.710  0.00  0.00    +0.000 C 
ATOM     18  O   UNL     1       3.294   6.681  16.684  0.00  0.00    +0.000 OA
BRANCH  17  20
ATOM     19  C   UNL     1       5.793   7.591  17.186  0.00  0.00    +0.000 C 
ATOM     20  O   UNL     1       5.043   6.834  18.137  0.00  0.00    +0.000 OA
ENDBRANCH  17  20
ENDBRANCH   1  17
BRANCH   1  21
ATOM     21  C   UNL     1       2.886   6.229  19.976  0.00  0.00    +0.000 C 
BRANCH  21  22
ATOM     22  C   UNL     1       1.966   7.457  20.058  0.00  0.00    +0.000 A 
ATOM     23  C   UNL     1       1.771   8.394  19.043  0.00  0.00    +0.000 A 
ATOM     24  C   UNL     1       1.134   9.624  19.319  0.00  0.00    +0.000 A 
ATOM     25  C   UNL     1       0.683   9.931  20.606  0.00  0.00    +0.000 A 
ATOM     26  C   UNL     1       0.818   8.985  21.611  0.00  0.00    +0.000 A 
ATOM     27 CL   UNL     1       0.278   9.344  23.205  0.00  0.00    +0.000 Cl
ATOM     28  C   UNL     1       1.444   7.761  21.334  0.00  0.00    +0.000 A 
ENDBRANCH  21  22
ENDBRANCH   1  21
TORSDOF 5
ENDMDL
MODEL 8
REMARK VINA RESULT:      -5.7      2.122      4.720
REMARK  Name = 
REMARK  6 active torsions:
REMARK  status: ('A' for Active; 'I' for Inactive)
REMARK    1  A    between atoms: C_1  and  O_2
REMARK    2  A    between atoms: O_2  and  C_3
REMARK    3  A    between atoms: C_3  and  C_5
REMARK    4  A    between atoms: C_5  and  C_6
REMARK    5  A    between atoms: C_6  and  C_7
REMARK    6  A    between atoms: C_21  and  C_23
REMARK                            x       y       z     vdW  Elec       q    Type
REMARK                         _______ _______ _______ _____ _____    ______ ____
ROOT
ATOM      1  C   UNL     1      -1.324  13.557  20.411  0.00  0.00    +0.000 C 
ATOM      2  C   UNL     1      -0.468  13.267  21.715  0.00  0.00    +0.000 C 
ATOM      3  C   UNL     1      -1.072  12.892  23.075  0.00  0.00    +0.000 C 
ATOM      4  C   UNL     1      -2.237  11.920  23.107  0.00  0.00    +0.000 C 
ATOM      5  C   UNL     1      -3.629  12.567  23.086  0.00  0.00    +0.000 C 
ATOM      6  C   UNL     1      -4.076  13.523  21.965  0.00  0.00    +0.000 C 
ATOM      7  C   UNL     1      -3.216  14.756  21.736  0.00  0.00    +0.000 C 
ATOM      8  N   UNL     1      -2.170  14.810  20.688  0.00  0.00    +0.000 N 
ATOM      9  C   UNL     1      -1.591  16.138  20.776  0.00  0.00    +0.000 C 
ATOM     10  O   UNL     1      -1.976  16.976  21.604  0.00  0.00    +0.000 OA
ENDROOT
BRANCH   9  11
ATOM     11  C   UNL     1      -0.557  16.653  19.847  0.00  0.00    +0.000 A 
ATOM     12  C   UNL     1      -0.876  17.154  18.585  0.00  0.00    +0.000 A 
ATOM     13  C   UNL     1       0.140  17.598  17.736  0.00  0.00    +0.000 A 
ATOM     14  C   UNL     1       1.461  17.663  18.191  0.00  0.00    +0.000 A 
ATOM     15  C   UNL     1       1.771  17.285  19.488  0.00  0.00    +0.000 A 
ATOM     16  C   UNL     1       0.768  16.774  20.314  0.00  0.00    +0.000 A 
ENDBRANCH   9  11
BRANCH   1  17
ATOM     17  C   UNL     1      -0.190  13.626  19.319  0.00  0.00    +0.000 C 
ATOM     18  O   UNL     1      -0.365  13.874  18.131  0.00  0.00    +0.000 OA
BRANCH  17  20
ATOM     19  C   UNL     1       2.113  13.141  18.970  0.00  0.00    +0.000 C 
ATOM     20  O   UNL     1       1.048  13.452  19.868  0.00  0.00    +0.000 OA
ENDBRANCH  17  20
ENDBRANCH   1  17
BRANCH   1  21
ATOM     21  C   UNL     1      -2.114  12.224  19.964  0.00  0.00    +0.000 C 
BRANCH  21  22
ATOM     22  C   UNL     1      -3.118  11.971  18.829  0.00  0.00    +0.000 A 
ATOM     23  C   UNL     1      -4.507  12.010  18.951  0.00  0.00    +0.000 A 
ATOM     24  C   UNL     1      -5.329  11.489  17.928  0.00  0.00    +0.000 A 
ATOM     25  C   UNL     1      -4.777  10.926  16.774  0.00  0.00    +0.000 A 
ATOM     26  C   UNL     1      -3.400  10.932  16.614  0.00  0.00    +0.000 A 
ATOM     27 CL   UNL     1      -2.696  10.236  15.205  0.00  0.00    +0.000 Cl
ATOM     28  C   UNL     1      -2.584  11.457  17.626  0.00  0.00    +0.000 A 
ENDBRANCH  21  22
ENDBRANCH   1  21
TORSDOF 5
ENDMDL
MODEL 9
REMARK VINA RESULT:      -5.6      3.029      5.696
REMARK  Name = 
REMARK  6 active torsions:
REMARK  status: ('A' for Active; 'I' for Inactive)
REMARK    1  A    between atoms: C_1  and  O_2
REMARK    2  A    between atoms: O_2  and  C_3
REMARK    3  A    between atoms: C_3  and  C_5
REMARK    4  A    between atoms: C_5  and  C_6
REMARK    5  A    between atoms: C_6  and  C_7
REMARK    6  A    between atoms: C_21  and  C_23
REMARK                            x       y       z     vdW  Elec       q    Type
REMARK                         _______ _______ _______ _____ _____    ______ ____
ROOT
ATOM      1  C   UNL     1      -1.372  13.700  21.359  0.00  0.00    +0.000 C 
ATOM      2  C   UNL     1      -1.287  14.022  22.910  0.00  0.00    +0.000 C 
ATOM      3  C   UNL     1      -2.463  13.875  23.885  0.00  0.00    +0.000 C 
ATOM      4  C   UNL     1      -3.367  12.663  23.752  0.00  0.00    +0.000 C 
ATOM      5  C   UNL     1      -4.607  12.867  22.869  0.00  0.00    +0.000 C 
ATOM      6  C   UNL     1      -4.510  13.322  21.402  0.00  0.00    +0.000 C 
ATOM      7  C   UNL     1      -3.791  14.635  21.141  0.00  0.00    +0.000 C 
ATOM      8  N   UNL     1      -2.366  14.694  20.737  0.00  0.00    +0.000 N 
ATOM      9  C   UNL     1      -2.060  16.103  20.574  0.00  0.00    +0.000 C 
ATOM     10  O   UNL     1      -2.902  16.992  20.761  0.00  0.00    +0.000 OA
ENDROOT
BRANCH   9  11
ATOM     11  C   UNL     1      -0.755  16.615  20.090  0.00  0.00    +0.000 A 
ATOM     12  C   UNL     1      -0.359  16.496  18.758  0.00  0.00    +0.000 A 
ATOM     13  C   UNL     1       0.894  16.968  18.360  0.00  0.00    +0.000 A 
ATOM     14  C   UNL     1       1.700  17.671  19.259  0.00  0.00    +0.000 A 
ATOM     15  C   UNL     1       1.262  17.905  20.554  0.00  0.00    +0.000 A 
ATOM     16  C   UNL     1       0.041  17.373  20.972  0.00  0.00    +0.000 A 
ENDBRANCH   9  11
BRANCH   1  17
ATOM     17  C   UNL     1       0.149  13.784  20.954  0.00  0.00    +0.000 C 
ATOM     18  O   UNL     1       0.589  13.624  19.820  0.00  0.00    +0.000 OA
BRANCH  17  20
ATOM     19  C   UNL     1       2.267  14.551  21.717  0.00  0.00    +0.000 C 
ATOM     20  O   UNL     1       0.932  14.141  22.013  0.00  0.00    +0.000 OA
ENDBRANCH  17  20
ENDBRANCH   1  17
BRANCH   1  21
ATOM     21  C   UNL     1      -1.671  12.130  21.138  0.00  0.00    +0.000 C 
BRANCH  21  22
ATOM     22  C   UNL     1      -0.865  10.879  21.515  0.00  0.00    +0.000 A 
ATOM     23  C   UNL     1      -0.589  10.452  22.815  0.00  0.00    +0.000 A 
ATOM     24  C   UNL     1       0.390   9.461  23.048  0.00  0.00    +0.000 A 
ATOM     25  C   UNL     1       1.101   8.884  21.992  0.00  0.00    +0.000 A 
ATOM     26  C   UNL     1       0.797   9.258  20.692  0.00  0.00    +0.000 A 
ATOM     27 CL   UNL     1       1.665   8.567  19.376  0.00  0.00    +0.000 Cl
ATOM     28  C   UNL     1      -0.180  10.236  20.460  0.00  0.00    +0.000 A 
ENDBRANCH  21  22
ENDBRANCH   1  21
TORSDOF 5
ENDMDL
