MODEL 1
REMARK VINA RESULT:      -8.0      0.000      0.000
REMARK  Name = 
REMARK  3 active torsions:
REMARK  status: ('A' for Active; 'I' for Inactive)
REMARK    1  A    between atoms: C_2  and  C_3
REMARK    2  A    between atoms: N_5  and  C_6
REMARK    3  A    between atoms: C_6  and  C_7
REMARK                            x       y       z     vdW  Elec       q    Type
REMARK                         _______ _______ _______ _____ _____    ______ ____
ROOT
ATOM      1  C   UNL     1       6.461   5.500  18.371  0.00  0.00    +0.000 A 
ATOM      2  C   UNL     1       5.150   5.640  18.778  0.00  0.00    +0.000 A 
ATOM      3  N   UNL     1       4.325   5.368  17.716  0.00  0.00    +0.000 N 
ATOM      4  C   UNL     1       5.082   5.029  16.612  0.00  0.00    +0.000 A 
ATOM      5  C   UNL     1       4.708   4.672  15.307  0.00  0.00    +0.000 A 
ATOM      6  C   UNL     1       5.713   4.382  14.383  0.00  0.00    +0.000 A 
ATOM      7  C   UNL     1       7.054   4.456  14.741  0.00  0.00    +0.000 A 
ATOM      8  C   UNL     1       7.424   4.819  16.039  0.00  0.00    +0.000 A 
ATOM      9  C   UNL     1       6.428   5.109  16.997  0.00  0.00    +0.000 A 
ENDROOT
BRANCH   1  11
ATOM     10  O   UNL     1       7.720   5.332  20.369  0.00  0.00    +0.000 OA
ATOM     11  C   UNL     1       7.622   5.726  19.212  0.00  0.00    +0.000 C 
ENDBRANCH   1  11
BRANCH   3  12
ATOM     12  C   UNL     1       2.869   5.533  17.745  0.00  0.00    +0.000 C 
BRANCH  12  13
ATOM     13  C   UNL     1       2.179   4.499  18.599  0.00  0.00    +0.000 A 
ATOM     14  C   UNL     1       2.021   3.197  18.103  0.00  0.00    +0.000 A 
ATOM     15  F   UNL     1       2.526   2.868  16.907  0.00  0.00    +0.000 F 
ATOM     16  C   UNL     1       1.378   2.196  18.828  0.00  0.00    +0.000 A 
ATOM     17  C   UNL     1       0.898   2.469  20.101  0.00  0.00    +0.000 A 
ATOM     18  C   UNL     1       1.076   3.743  20.640  0.00  0.00    +0.000 A 
ATOM     19  C   UNL     1       1.712   4.749  19.897  0.00  0.00    +0.000 A 
ATOM     20 CL   UNL     1       1.918   6.274  20.683  0.00  0.00    +0.000 Cl
ENDBRANCH  12  13
ENDBRANCH   3  12
TORSDOF 3
ENDMDL
MODEL 2
REMARK VINA RESULT:      -7.9      1.688      1.997
REMARK  Name = 
REMARK  3 active torsions:
REMARK  status: ('A' for Active; 'I' for Inactive)
REMARK    1  A    between atoms: C_2  and  C_3
REMARK    2  A    between atoms: N_5  and  C_6
REMARK    3  A    between atoms: C_6  and  C_7
REMARK                            x       y       z     vdW  Elec       q    Type
REMARK                         _______ _______ _______ _____ _____    ______ ____
ROOT
ATOM      1  C   UNL     1       6.615   5.386  18.426  0.00  0.00    +0.000 A 
ATOM      2  C   UNL     1       5.323   5.449  18.907  0.00  0.00    +0.000 A 
ATOM      3  N   UNL     1       4.454   5.161  17.885  0.00  0.00    +0.000 N 
ATOM      4  C   UNL     1       5.164   4.889  16.733  0.00  0.00    +0.000 A 
ATOM      5  C   UNL     1       4.736   4.546  15.440  0.00  0.00    +0.000 A 
ATOM      6  C   UNL     1       5.701   4.331  14.455  0.00  0.00    +0.000 A 
ATOM      7  C   UNL     1       7.054   4.464  14.741  0.00  0.00    +0.000 A 
ATOM      8  C   UNL     1       7.478   4.813  16.027  0.00  0.00    +0.000 A 
ATOM      9  C   UNL     1       6.524   5.028  17.045  0.00  0.00    +0.000 A 
ENDROOT
BRANCH   1  11
ATOM     10  O   UNL     1       7.906   5.427  20.410  0.00  0.00    +0.000 OA
ATOM     11  C   UNL     1       7.808   5.650  19.208  0.00  0.00    +0.000 C 
ENDBRANCH   1  11
BRANCH   3  12
ATOM     12  C   UNL     1       2.996   5.251  17.998  0.00  0.00    +0.000 C 
BRANCH  12  13
ATOM     13  C   UNL     1       2.431   4.319  19.040  0.00  0.00    +0.000 A 
ATOM     14  C   UNL     1       2.015   4.843  20.273  0.00  0.00    +0.000 A 
ATOM     15  F   UNL     1       2.073   6.162  20.495  0.00  0.00    +0.000 F 
ATOM     16  C   UNL     1       1.500   4.041  21.288  0.00  0.00    +0.000 A 
ATOM     17  C   UNL     1       1.357   2.676  21.081  0.00  0.00    +0.000 A 
ATOM     18  C   UNL     1       1.722   2.130  19.851  0.00  0.00    +0.000 A 
ATOM     19  C   UNL     1       2.252   2.943  18.839  0.00  0.00    +0.000 A 
ATOM     20 CL   UNL     1       2.627   2.166  17.341  0.00  0.00    +0.000 Cl
ENDBRANCH  12  13
ENDBRANCH   3  12
TORSDOF 3
ENDMDL
MODEL 3
REMARK VINA RESULT:      -7.5      1.676      1.893
REMARK  Name = 
REMARK  3 active torsions:
REMARK  status: ('A' for Active; 'I' for Inactive)
REMARK    1  A    between atoms: C_2  and  C_3
REMARK    2  A    between atoms: N_5  and  C_6
REMARK    3  A    between atoms: C_6  and  C_7
REMARK                            x       y       z     vdW  Elec       q    Type
REMARK                         _______ _______ _______ _____ _____    ______ ____
ROOT
ATOM      1  C   UNL     1       6.512   4.967  18.310  0.00  0.00    +0.000 A 
ATOM      2  C   UNL     1       5.503   4.144  18.770  0.00  0.00    +0.000 A 
ATOM      3  N   UNL     1       4.905   3.534  17.696  0.00  0.00    +0.000 N 
ATOM      4  C   UNL     1       5.524   3.932  16.529  0.00  0.00    +0.000 A 
ATOM      5  C   UNL     1       5.281   3.592  15.188  0.00  0.00    +0.000 A 
ATOM      6  C   UNL     1       6.080   4.168  14.200  0.00  0.00    +0.000 A 
ATOM      7  C   UNL     1       7.086   5.068  14.531  0.00  0.00    +0.000 A 
ATOM      8  C   UNL     1       7.321   5.411  15.866  0.00  0.00    +0.000 A 
ATOM      9  C   UNL     1       6.534   4.837  16.887  0.00  0.00    +0.000 A 
ENDROOT
BRANCH   1  11
ATOM     10  O   UNL     1       7.757   5.467  20.260  0.00  0.00    +0.000 OA
ATOM     11  C   UNL     1       7.357   5.796  19.149  0.00  0.00    +0.000 C 
ENDBRANCH   1  11
BRANCH   3  12
ATOM     12  C   UNL     1       3.716   2.682  17.795  0.00  0.00    +0.000 C 
BRANCH  12  13
ATOM     13  C   UNL     1       2.883   2.977  19.016  0.00  0.00    +0.000 A 
ATOM     14  C   UNL     1       3.263   2.433  20.252  0.00  0.00    +0.000 A 
ATOM     15  F   UNL     1       4.383   1.705  20.349  0.00  0.00    +0.000 F 
ATOM     16  C   UNL     1       2.532   2.649  21.418  0.00  0.00    +0.000 A 
ATOM     17  C   UNL     1       1.402   3.453  21.382  0.00  0.00    +0.000 A 
ATOM     18  C   UNL     1       1.021   4.043  20.178  0.00  0.00    +0.000 A 
ATOM     19  C   UNL     1       1.755   3.809  19.005  0.00  0.00    +0.000 A 
ATOM     20 CL   UNL     1       1.217   4.628  17.582  0.00  0.00    +0.000 Cl
ENDBRANCH  12  13
ENDBRANCH   3  12
TORSDOF 3
ENDMDL
MODEL 4
REMARK VINA RESULT:      -7.5      1.730      1.943
REMARK  Name = 
REMARK  3 active torsions:
REMARK  status: ('A' for Active; 'I' for Inactive)
REMARK    1  A    between atoms: C_2  and  C_3
REMARK    2  A    between atoms: N_5  and  C_6
REMARK    3  A    between atoms: C_6  and  C_7
REMARK                            x       y       z     vdW  Elec       q    Type
REMARK                         _______ _______ _______ _____ _____    ______ ____
ROOT
ATOM      1  C   UNL     1       6.445   5.016  18.208  0.00  0.00    +0.000 A 
ATOM      2  C   UNL     1       5.370   4.271  18.648  0.00  0.00    +0.000 A 
ATOM      3  N   UNL     1       4.766   3.683  17.565  0.00  0.00    +0.000 N 
ATOM      4  C   UNL     1       5.446   4.019  16.412  0.00  0.00    +0.000 A 
ATOM      5  C   UNL     1       5.223   3.671  15.070  0.00  0.00    +0.000 A 
ATOM      6  C   UNL     1       6.090   4.176  14.099  0.00  0.00    +0.000 A 
ATOM      7  C   UNL     1       7.143   5.012  14.448  0.00  0.00    +0.000 A 
ATOM      8  C   UNL     1       7.359   5.362  15.785  0.00  0.00    +0.000 A 
ATOM      9  C   UNL     1       6.503   4.860  16.788  0.00  0.00    +0.000 A 
ENDROOT
BRANCH   1  11
ATOM     10  O   UNL     1       7.678   5.455  20.180  0.00  0.00    +0.000 OA
ATOM     11  C   UNL     1       7.318   5.802  19.060  0.00  0.00    +0.000 C 
ENDBRANCH   1  11
BRANCH   3  12
ATOM     12  C   UNL     1       3.520   2.915  17.638  0.00  0.00    +0.000 C 
BRANCH  12  13
ATOM     13  C   UNL     1       2.813   3.069  18.961  0.00  0.00    +0.000 A 
ATOM     14  C   UNL     1       1.609   3.787  19.013  0.00  0.00    +0.000 A 
ATOM     15  F   UNL     1       1.073   4.282  17.890  0.00  0.00    +0.000 F 
ATOM     16  C   UNL     1       0.911   3.986  20.202  0.00  0.00    +0.000 A 
ATOM     17  C   UNL     1       1.390   3.435  21.382  0.00  0.00    +0.000 A 
ATOM     18  C   UNL     1       2.562   2.680  21.357  0.00  0.00    +0.000 A 
ATOM     19  C   UNL     1       3.267   2.497  20.157  0.00  0.00    +0.000 A 
ATOM     20 CL   UNL     1       4.680   1.506  20.236  0.00  0.00    +0.000 Cl
ENDBRANCH  12  13
ENDBRANCH   3  12
TORSDOF 3
ENDMDL
MODEL 5
REMARK VINA RESULT:      -7.4      2.203      3.336
REMARK  Name = 
REMARK  3 active torsions:
REMARK  status: ('A' for Active; 'I' for Inactive)
REMARK    1  A    between atoms: C_2  and  C_3
REMARK    2  A    between atoms: N_5  and  C_6
REMARK    3  A    between atoms: C_6  and  C_7
REMARK                            x       y       z     vdW  Elec       q    Type
REMARK                         _______ _______ _______ _____ _____    ______ ____
ROOT
ATOM      1  C   UNL     1       5.462   4.783  16.371  0.00  0.00    +0.000 A 
ATOM      2  C   UNL     1       4.959   3.509  16.545  0.00  0.00    +0.000 A 
ATOM      3  N   UNL     1       3.764   3.592  17.214  0.00  0.00    +0.000 N 
ATOM      4  C   UNL     1       3.461   4.915  17.466  0.00  0.00    +0.000 A 
ATOM      5  C   UNL     1       2.364   5.508  18.112  0.00  0.00    +0.000 A 
ATOM      6  C   UNL     1       2.332   6.898  18.227  0.00  0.00    +0.000 A 
ATOM      7  C   UNL     1       3.365   7.680  17.725  0.00  0.00    +0.000 A 
ATOM      8  C   UNL     1       4.459   7.087  17.088  0.00  0.00    +0.000 A 
ATOM      9  C   UNL     1       4.515   5.683  16.950  0.00  0.00    +0.000 A 
ENDROOT
BRANCH   1  11
ATOM     10  O   UNL     1       7.509   5.946  16.130  0.00  0.00    +0.000 OA
ATOM     11  C   UNL     1       6.721   5.099  15.724  0.00  0.00    +0.000 C 
ENDBRANCH   1  11
BRANCH   3  12
ATOM     12  C   UNL     1       3.002   2.429  17.678  0.00  0.00    +0.000 C 
BRANCH  12  13
ATOM     13  C   UNL     1       2.507   2.580  19.094  0.00  0.00    +0.000 A 
ATOM     14  C   UNL     1       1.137   2.774  19.323  0.00  0.00    +0.000 A 
ATOM     15  F   UNL     1       0.278   2.772  18.295  0.00  0.00    +0.000 F 
ATOM     16  C   UNL     1       0.610   2.940  20.602  0.00  0.00    +0.000 A 
ATOM     17  C   UNL     1       1.451   2.882  21.704  0.00  0.00    +0.000 A 
ATOM     18  C   UNL     1       2.812   2.648  21.514  0.00  0.00    +0.000 A 
ATOM     19  C   UNL     1       3.336   2.497  20.221  0.00  0.00    +0.000 A 
ATOM     20 CL   UNL     1       5.029   2.166  20.108  0.00  0.00    +0.000 Cl
ENDBRANCH  12  13
ENDBRANCH   3  12
TORSDOF 3
ENDMDL
MODEL 6
REMARK VINA RESULT:      -7.4      2.490      5.716
REMARK  Name = 
REMARK  3 active torsions:
REMARK  status: ('A' for Active; 'I' for Inactive)
REMARK    1  A    between atoms: C_2  and  C_3
REMARK    2  A    between atoms: N_5  and  C_6
REMARK    3  A    between atoms: C_6  and  C_7
REMARK                            x       y       z     vdW  Elec       q    Type
REMARK                         _______ _______ _______ _____ _____    ______ ____
ROOT
ATOM      1  C   UNL     1       2.694   6.366  19.664  0.00  0.00    +0.000 A 
ATOM      2  C   UNL     1       3.977   6.247  19.170  0.00  0.00    +0.000 A 
ATOM      3  N   UNL     1       4.343   4.925  19.200  0.00  0.00    +0.000 N 
ATOM      4  C   UNL     1       3.303   4.164  19.694  0.00  0.00    +0.000 A 
ATOM      5  C   UNL     1       3.189   2.782  19.914  0.00  0.00    +0.000 A 
ATOM      6  C   UNL     1       1.994   2.288  20.439  0.00  0.00    +0.000 A 
ATOM      7  C   UNL     1       0.943   3.144  20.748  0.00  0.00    +0.000 A 
ATOM      8  C   UNL     1       1.062   4.520  20.535  0.00  0.00    +0.000 A 
ATOM      9  C   UNL     1       2.256   5.046  19.997  0.00  0.00    +0.000 A 
ENDROOT
BRANCH   1  11
ATOM     10  O   UNL     1       1.478   8.006  20.862  0.00  0.00    +0.000 OA
ATOM     11  C   UNL     1       1.970   7.615  19.809  0.00  0.00    +0.000 C 
ENDBRANCH   1  11
BRANCH   3  12
ATOM     12  C   UNL     1       5.684   4.438  18.862  0.00  0.00    +0.000 C 
BRANCH  12  13
ATOM     13  C   UNL     1       6.024   4.619  17.405  0.00  0.00    +0.000 A 
ATOM     14  C   UNL     1       5.394   3.807  16.450  0.00  0.00    +0.000 A 
ATOM     15  F   UNL     1       4.465   2.921  16.829  0.00  0.00    +0.000 F 
ATOM     16  C   UNL     1       5.672   3.906  15.088  0.00  0.00    +0.000 A 
ATOM     17  C   UNL     1       6.577   4.856  14.638  0.00  0.00    +0.000 A 
ATOM     18  C   UNL     1       7.189   5.707  15.558  0.00  0.00    +0.000 A 
ATOM     19  C   UNL     1       6.914   5.591  16.929  0.00  0.00    +0.000 A 
ATOM     20 CL   UNL     1       7.695   6.728  17.971  0.00  0.00    +0.000 Cl
ENDBRANCH  12  13
ENDBRANCH   3  12
TORSDOF 3
ENDMDL
MODEL 7
REMARK VINA RESULT:      -7.3      1.795      2.549
REMARK  Name = 
REMARK  3 active torsions:
REMARK  status: ('A' for Active; 'I' for Inactive)
REMARK    1  A    between atoms: C_2  and  C_3
REMARK    2  A    between atoms: N_5  and  C_6
REMARK    3  A    between atoms: C_6  and  C_7
REMARK                            x       y       z     vdW  Elec       q    Type
REMARK                         _______ _______ _______ _____ _____    ______ ____
ROOT
ATOM      1  C   UNL     1       6.611   5.312  18.642  0.00  0.00    +0.000 A 
ATOM      2  C   UNL     1       5.336   5.210  19.162  0.00  0.00    +0.000 A 
ATOM      3  N   UNL     1       4.472   4.867  18.153  0.00  0.00    +0.000 N 
ATOM      4  C   UNL     1       5.169   4.721  16.971  0.00  0.00    +0.000 A 
ATOM      5  C   UNL     1       4.740   4.382  15.678  0.00  0.00    +0.000 A 
ATOM      6  C   UNL     1       5.690   4.316  14.657  0.00  0.00    +0.000 A 
ATOM      7  C   UNL     1       7.029   4.589  14.910  0.00  0.00    +0.000 A 
ATOM      8  C   UNL     1       7.453   4.933  16.197  0.00  0.00    +0.000 A 
ATOM      9  C   UNL     1       6.515   5.000  17.250  0.00  0.00    +0.000 A 
ENDROOT
BRANCH   1  11
ATOM     10  O   UNL     1       8.039   5.268  20.530  0.00  0.00    +0.000 OA
ATOM     11  C   UNL     1       7.793   5.678  19.400  0.00  0.00    +0.000 C 
ENDBRANCH   1  11
BRANCH   3  12
ATOM     12  C   UNL     1       3.017   4.788  18.312  0.00  0.00    +0.000 C 
BRANCH  12  13
ATOM     13  C   UNL     1       2.451   5.936  19.107  0.00  0.00    +0.000 A 
ATOM     14  C   UNL     1       2.464   7.224  18.553  0.00  0.00    +0.000 A 
ATOM     15  F   UNL     1       2.928   7.416  17.311  0.00  0.00    +0.000 F 
ATOM     16  C   UNL     1       1.975   8.335  19.236  0.00  0.00    +0.000 A 
ATOM     17  C   UNL     1       1.422   8.177  20.499  0.00  0.00    +0.000 A 
ATOM     18  C   UNL     1       1.355   6.903  21.061  0.00  0.00    +0.000 A 
ATOM     19  C   UNL     1       1.863   5.792  20.372  0.00  0.00    +0.000 A 
ATOM     20 CL   UNL     1       1.685   4.257  21.145  0.00  0.00    +0.000 Cl
ENDBRANCH  12  13
ENDBRANCH   3  12
TORSDOF 3
ENDMDL
MODEL 8
REMARK VINA RESULT:      -7.1      2.399      3.493
REMARK  Name = 
REMARK  3 active torsions:
REMARK  status: ('A' for Active; 'I' for Inactive)
REMARK    1  A    between atoms: C_2  and  C_3
REMARK    2  A    between atoms: N_5  and  C_6
REMARK    3  A    between atoms: C_6  and  C_7
REMARK                            x       y       z     vdW  Elec       q    Type
REMARK                         _______ _______ _______ _____ _____    ______ ____
ROOT
ATOM      1  C   UNL     1       5.654   4.250  15.766  0.00  0.00    +0.000 A 
ATOM      2  C   UNL     1       4.304   4.476  15.945  0.00  0.00    +0.000 A 
ATOM      3  N   UNL     1       4.101   4.965  17.210  0.00  0.00    +0.000 N 
ATOM      4  C   UNL     1       5.310   5.083  17.864  0.00  0.00    +0.000 A 
ATOM      5  C   UNL     1       5.624   5.531  19.158  0.00  0.00    +0.000 A 
ATOM      6  C   UNL     1       6.962   5.533  19.555  0.00  0.00    +0.000 A 
ATOM      7  C   UNL     1       7.962   5.093  18.695  0.00  0.00    +0.000 A 
ATOM      8  C   UNL     1       7.646   4.642  17.410  0.00  0.00    +0.000 A 
ATOM      9  C   UNL     1       6.302   4.637  16.980  0.00  0.00    +0.000 A 
ENDROOT
BRANCH   1  11
ATOM     10  O   UNL     1       6.694   4.402  13.644  0.00  0.00    +0.000 OA
ATOM     11  C   UNL     1       6.255   3.713  14.559  0.00  0.00    +0.000 C 
ENDBRANCH   1  11
BRANCH   3  12
ATOM     12  C   UNL     1       2.777   5.207  17.793  0.00  0.00    +0.000 C 
BRANCH  12  13
ATOM     13  C   UNL     1       2.511   4.363  19.013  0.00  0.00    +0.000 A 
ATOM     14  C   UNL     1       2.333   4.992  20.254  0.00  0.00    +0.000 A 
ATOM     15  F   UNL     1       2.348   6.329  20.338  0.00  0.00    +0.000 F 
ATOM     16  C   UNL     1       2.102   4.276  21.427  0.00  0.00    +0.000 A 
ATOM     17  C   UNL     1       2.009   2.893  21.381  0.00  0.00    +0.000 A 
ATOM     18  C   UNL     1       2.140   2.239  20.156  0.00  0.00    +0.000 A 
ATOM     19  C   UNL     1       2.387   2.967  18.982  0.00  0.00    +0.000 A 
ATOM     20 CL   UNL     1       2.486   2.057  17.516  0.00  0.00    +0.000 Cl
ENDBRANCH  12  13
ENDBRANCH   3  12
TORSDOF 3
ENDMDL
MODEL 9
REMARK VINA RESULT:      -7.1      2.440      5.551
REMARK  Name = 
REMARK  3 active torsions:
REMARK  status: ('A' for Active; 'I' for Inactive)
REMARK    1  A    between atoms: C_2  and  C_3
REMARK    2  A    between atoms: N_5  and  C_6
REMARK    3  A    between atoms: C_6  and  C_7
REMARK                            x       y       z     vdW  Elec       q    Type
REMARK                         _______ _______ _______ _____ _____    ______ ____
ROOT
ATOM      1  C   UNL     1       4.583   2.555  20.148  0.00  0.00    +0.000 A 
ATOM      2  C   UNL     1       5.238   3.521  19.412  0.00  0.00    +0.000 A 
ATOM      3  N   UNL     1       4.354   4.529  19.118  0.00  0.00    +0.000 N 
ATOM      4  C   UNL     1       3.122   4.246  19.673  0.00  0.00    +0.000 A 
ATOM      5  C   UNL     1       1.912   4.957  19.654  0.00  0.00    +0.000 A 
ATOM      6  C   UNL     1       0.808   4.410  20.310  0.00  0.00    +0.000 A 
ATOM      7  C   UNL     1       0.900   3.184  20.958  0.00  0.00    +0.000 A 
ATOM      8  C   UNL     1       2.104   2.475  20.970  0.00  0.00    +0.000 A 
ATOM      9  C   UNL     1       3.239   3.008  20.322  0.00  0.00    +0.000 A 
ENDROOT
BRANCH   1  11
ATOM     10  O   UNL     1       5.602   1.161  21.769  0.00  0.00    +0.000 OA
ATOM     11  C   UNL     1       5.184   1.324  20.627  0.00  0.00    +0.000 C 
ENDBRANCH   1  11
BRANCH   3  12
ATOM     12  C   UNL     1       4.667   5.666  18.247  0.00  0.00    +0.000 C 
BRANCH  12  13
ATOM     13  C   UNL     1       5.412   5.262  17.001  0.00  0.00    +0.000 A 
ATOM     14  C   UNL     1       4.807   4.375  16.100  0.00  0.00    +0.000 A 
ATOM     15  F   UNL     1       3.561   3.936  16.323  0.00  0.00    +0.000 F 
ATOM     16  C   UNL     1       5.442   3.943  14.937  0.00  0.00    +0.000 A 
ATOM     17  C   UNL     1       6.707   4.423  14.626  0.00  0.00    +0.000 A 
ATOM     18  C   UNL     1       7.319   5.339  15.481  0.00  0.00    +0.000 A 
ATOM     19  C   UNL     1       6.678   5.757  16.656  0.00  0.00    +0.000 A 
ATOM     20 CL   UNL     1       7.511   6.929  17.615  0.00  0.00    +0.000 Cl
ENDBRANCH  12  13
ENDBRANCH   3  12
TORSDOF 3
ENDMDL
