MODEL 1
REMARK VINA RESULT:      -7.0      0.000      0.000
REMARK  Name = 
REMARK  15 active torsions:
REMARK  status: ('A' for Active; 'I' for Inactive)
REMARK    1  A    between atoms: C_1  and  C_2
REMARK    2  A    between atoms: C_2  and  C_3
REMARK    3  A    between atoms: C_3  and  C_4
REMARK    4  A    between atoms: C_4  and  C_5
REMARK    5  A    between atoms: C_5  and  C_6
REMARK    6  A    between atoms: C_6  and  C_7
REMARK    7  A    between atoms: C_7  and  C_8
REMARK    8  A    between atoms: C_8  and  C_9
REMARK    9  A    between atoms: C_9  and  C_10
REMARK   10  A    between atoms: C_10  and  O_12
REMARK   11  A    between atoms: O_12  and  C_13
REMARK   12  A    between atoms: C_14  and  O_15
REMARK   13  A    between atoms: C_16  and  N_17
REMARK   14  A    between atoms: C_26  and  C_27
REMARK   15  A    between atoms: C_27  and  O_28
REMARK                            x       y       z     vdW  Elec       q    Type
REMARK                         _______ _______ _______ _____ _____    ______ ____
ROOT
ATOM      1  C   UNL     1       6.912   6.315  17.304  0.00  0.00    +0.000 C 
ATOM      2  C   UNL     1       5.853   5.830  18.288  0.00  0.00    +0.000 C 
ATOM      3  C   UNL     1       4.560   5.911  17.436  0.00  0.00    +0.000 C 
ATOM      4  O   UNL     1       4.931   5.734  16.057  0.00  0.00    +0.000 OA
ATOM      5  C   UNL     1       6.364   5.851  15.940  0.00  0.00    +0.000 C 
ENDROOT
BRANCH   3   6
ATOM      6  N   UNL     1       3.499   4.976  17.786  0.00  0.00    +0.000 N 
ATOM      7  C   UNL     1       3.405   3.758  17.153  0.00  0.00    +0.000 A 
ATOM      8  C   UNL     1       2.503   2.852  17.514  0.00  0.00    +0.000 A 
ATOM      9  C   UNL     1       1.571   3.272  18.584  0.00  0.00    +0.000 A 
ATOM     10  N   UNL     1       0.584   2.417  18.978  0.00  0.00    +0.000 N 
ATOM     11  N   UNL     1       1.637   4.424  19.163  0.00  0.00    +0.000 NA
ATOM     12  C   UNL     1       2.627   5.319  18.830  0.00  0.00    +0.000 A 
ATOM     13  O   UNL     1       2.744   6.382  19.417  0.00  0.00    +0.000 OA
ATOM     14  H   UNL     1       0.240   1.731  18.314  0.00  0.00    +0.000 HD
ATOM     15  H   UNL     1      -0.147   2.889  19.502  0.00  0.00    +0.000 HD
ENDBRANCH   3   6
BRANCH   2  16
ATOM     16  O   UNL     1       6.241   4.526  18.743  0.00  0.00    +0.000 OA
ATOM     17  H   UNL     1       6.224   3.917  17.975  0.00  0.00    +0.000 HD
ENDBRANCH   2  16
BRANCH   1  18
ATOM     18  O   UNL     1       7.037   7.762  17.295  0.00  0.00    +0.000 OA
BRANCH  18  19
ATOM     19  C   UNL     1       8.013   8.287  18.092  0.00  0.00    +0.000 C 
ATOM     20  O   UNL     1       8.681   7.635  18.890  0.00  0.00    +0.000 OA
BRANCH  19  21
ATOM     21  C   UNL     1       8.214   9.764  17.805  0.00  0.00    +0.000 C 
BRANCH  21  22
ATOM     22  C   UNL     1       9.224  10.463  18.722  0.00  0.00    +0.000 C 
BRANCH  22  23
ATOM     23  C   UNL     1      10.156  11.370  17.907  0.00  0.00    +0.000 C 
BRANCH  23  24
ATOM     24  C   UNL     1      11.447  11.665  18.667  0.00  0.00    +0.000 C 
BRANCH  24  25
ATOM     25  C   UNL     1      11.184  11.891  20.156  0.00  0.00    +0.000 C 
BRANCH  25  26
ATOM     26  C   UNL     1      10.865  13.361  20.424  0.00  0.00    +0.000 C 
BRANCH  26  27
ATOM     27  C   UNL     1       9.463  13.527  21.004  0.00  0.00    +0.000 C 
BRANCH  27  29
ATOM     28  C   UNL     1       9.211  14.842  18.878  0.00  0.00    +0.000 C 
ATOM     29  C   UNL     1       8.489  14.037  19.945  0.00  0.00    +0.000 C 
ENDBRANCH  27  29
ENDBRANCH  26  27
ENDBRANCH  25  26
ENDBRANCH  24  25
ENDBRANCH  23  24
ENDBRANCH  22  23
ENDBRANCH  21  22
ENDBRANCH  19  21
ENDBRANCH  18  19
ENDBRANCH   1  18
BRANCH   5  30
ATOM     30  C   UNL     1       6.940   4.504  15.457  0.00  0.00    +0.000 C 
BRANCH  30  31
ATOM     31  O   UNL     1       7.860   3.936  16.391  0.00  0.00    +0.000 OA
ATOM     32  H   UNL     1       7.931   2.982  16.180  0.00  0.00    +0.000 HD
ENDBRANCH  30  31
ENDBRANCH   5  30
TORSDOF 14
ENDMDL
MODEL 2
REMARK VINA RESULT:      -6.8      1.031      1.240
REMARK  Name = 
REMARK  15 active torsions:
REMARK  status: ('A' for Active; 'I' for Inactive)
REMARK    1  A    between atoms: C_1  and  C_2
REMARK    2  A    between atoms: C_2  and  C_3
REMARK    3  A    between atoms: C_3  and  C_4
REMARK    4  A    between atoms: C_4  and  C_5
REMARK    5  A    between atoms: C_5  and  C_6
REMARK    6  A    between atoms: C_6  and  C_7
REMARK    7  A    between atoms: C_7  and  C_8
REMARK    8  A    between atoms: C_8  and  C_9
REMARK    9  A    between atoms: C_9  and  C_10
REMARK   10  A    between atoms: C_10  and  O_12
REMARK   11  A    between atoms: O_12  and  C_13
REMARK   12  A    between atoms: C_14  and  O_15
REMARK   13  A    between atoms: C_16  and  N_17
REMARK   14  A    between atoms: C_26  and  C_27
REMARK   15  A    between atoms: C_27  and  O_28
REMARK                            x       y       z     vdW  Elec       q    Type
REMARK                         _______ _______ _______ _____ _____    ______ ____
ROOT
ATOM      1  C   UNL     1       6.920   5.745  16.855  0.00  0.00    +0.000 C 
ATOM      2  C   UNL     1       5.978   5.396  18.001  0.00  0.00    +0.000 C 
ATOM      3  C   UNL     1       4.588   5.667  17.370  0.00  0.00    +0.000 C 
ATOM      4  O   UNL     1       4.703   5.461  15.950  0.00  0.00    +0.000 OA
ATOM      5  C   UNL     1       6.099   5.381  15.602  0.00  0.00    +0.000 C 
ENDROOT
BRANCH   3   6
ATOM      6  N   UNL     1       3.478   4.882  17.895  0.00  0.00    +0.000 N 
ATOM      7  C   UNL     1       3.125   3.691  17.305  0.00  0.00    +0.000 A 
ATOM      8  C   UNL     1       2.176   2.914  17.815  0.00  0.00    +0.000 A 
ATOM      9  C   UNL     1       1.486   3.452  19.009  0.00  0.00    +0.000 A 
ATOM     10  N   UNL     1       0.466   2.736  19.565  0.00  0.00    +0.000 N 
ATOM     11  N   UNL     1       1.794   4.581  19.552  0.00  0.00    +0.000 NA
ATOM     12  C   UNL     1       2.833   5.336  19.055  0.00  0.00    +0.000 A 
ATOM     13  O   UNL     1       3.181   6.371  19.600  0.00  0.00    +0.000 OA
ATOM     14  H   UNL     1      -0.065   2.106  18.974  0.00  0.00    +0.000 HD
ATOM     15  H   UNL     1      -0.105   3.300  20.187  0.00  0.00    +0.000 HD
ENDBRANCH   3   6
BRANCH   2  16
ATOM     16  O   UNL     1       6.250   4.043  18.397  0.00  0.00    +0.000 OA
ATOM     17  H   UNL     1       5.762   3.864  19.228  0.00  0.00    +0.000 HD
ENDBRANCH   2  16
BRANCH   1  18
ATOM     18  O   UNL     1       7.242   7.160  16.814  0.00  0.00    +0.000 OA
BRANCH  18  19
ATOM     19  C   UNL     1       7.875   7.665  17.913  0.00  0.00    +0.000 C 
ATOM     20  O   UNL     1       8.365   6.980  18.806  0.00  0.00    +0.000 OA
BRANCH  19  21
ATOM     21  C   UNL     1       7.960   9.179  17.845  0.00  0.00    +0.000 C 
BRANCH  21  22
ATOM     22  C   UNL     1       9.016   9.804  18.764  0.00  0.00    +0.000 C 
BRANCH  22  23
ATOM     23  C   UNL     1       9.606  11.068  18.125  0.00  0.00    +0.000 C 
BRANCH  23  24
ATOM     24  C   UNL     1      10.073  12.060  19.189  0.00  0.00    +0.000 C 
BRANCH  24  25
ATOM     25  C   UNL     1       9.920  11.487  20.598  0.00  0.00    +0.000 C 
BRANCH  25  26
ATOM     26  C   UNL     1       9.733  12.613  21.614  0.00  0.00    +0.000 C 
BRANCH  26  27
ATOM     27  C   UNL     1      10.319  13.926  21.101  0.00  0.00    +0.000 C 
BRANCH  27  29
ATOM     28  C   UNL     1       8.685  15.051  22.642  0.00  0.00    +0.000 C 
ATOM     29  C   UNL     1      10.107  15.052  22.109  0.00  0.00    +0.000 C 
ENDBRANCH  27  29
ENDBRANCH  26  27
ENDBRANCH  25  26
ENDBRANCH  24  25
ENDBRANCH  23  24
ENDBRANCH  22  23
ENDBRANCH  21  22
ENDBRANCH  19  21
ENDBRANCH  18  19
ENDBRANCH   1  18
BRANCH   5  30
ATOM     30  C   UNL     1       6.397   3.975  15.041  0.00  0.00    +0.000 C 
BRANCH  30  31
ATOM     31  O   UNL     1       5.963   2.934  15.919  0.00  0.00    +0.000 OA
ATOM     32  H   UNL     1       6.708   2.303  16.006  0.00  0.00    +0.000 HD
ENDBRANCH  30  31
ENDBRANCH   5  30
TORSDOF 14
ENDMDL
MODEL 3
REMARK VINA RESULT:      -6.8      1.052      1.468
REMARK  Name = 
REMARK  15 active torsions:
REMARK  status: ('A' for Active; 'I' for Inactive)
REMARK    1  A    between atoms: C_1  and  C_2
REMARK    2  A    between atoms: C_2  and  C_3
REMARK    3  A    between atoms: C_3  and  C_4
REMARK    4  A    between atoms: C_4  and  C_5
REMARK    5  A    between atoms: C_5  and  C_6
REMARK    6  A    between atoms: C_6  and  C_7
REMARK    7  A    between atoms: C_7  and  C_8
REMARK    8  A    between atoms: C_8  and  C_9
REMARK    9  A    between atoms: C_9  and  C_10
REMARK   10  A    between atoms: C_10  and  O_12
REMARK   11  A    between atoms: O_12  and  C_13
REMARK   12  A    between atoms: C_14  and  O_15
REMARK   13  A    between atoms: C_16  and  N_17
REMARK   14  A    between atoms: C_26  and  C_27
REMARK   15  A    between atoms: C_27  and  O_28
REMARK                            x       y       z     vdW  Elec       q    Type
REMARK                         _______ _______ _______ _____ _____    ______ ____
ROOT
ATOM      1  C   UNL     1       6.752   6.011  17.081  0.00  0.00    +0.000 C 
ATOM      2  C   UNL     1       5.803   5.595  18.199  0.00  0.00    +0.000 C 
ATOM      3  C   UNL     1       4.415   5.821  17.546  0.00  0.00    +0.000 C 
ATOM      4  O   UNL     1       4.566   5.654  16.124  0.00  0.00    +0.000 OA
ATOM      5  C   UNL     1       5.972   5.642  15.803  0.00  0.00    +0.000 C 
ENDROOT
BRANCH   3   6
ATOM      6  N   UNL     1       3.330   4.977  18.030  0.00  0.00    +0.000 N 
ATOM      7  C   UNL     1       3.034   3.792  17.399  0.00  0.00    +0.000 A 
ATOM      8  C   UNL     1       2.110   2.962  17.871  0.00  0.00    +0.000 A 
ATOM      9  C   UNL     1       1.381   3.435  19.070  0.00  0.00    +0.000 A 
ATOM     10  N   UNL     1       0.383   2.663  19.588  0.00  0.00    +0.000 N 
ATOM     11  N   UNL     1       1.636   4.560  19.650  0.00  0.00    +0.000 NA
ATOM     12  C   UNL     1       2.650   5.370  19.193  0.00  0.00    +0.000 A 
ATOM     13  O   UNL     1       2.948   6.401  19.773  0.00  0.00    +0.000 OA
ATOM     14  H   UNL     1      -0.114   2.031  18.970  0.00  0.00    +0.000 HD
ATOM     15  H   UNL     1      -0.219   3.186  20.218  0.00  0.00    +0.000 HD
ENDBRANCH   3   6
BRANCH   2  16
ATOM     16  O   UNL     1       6.125   4.246  18.570  0.00  0.00    +0.000 OA
ATOM     17  H   UNL     1       6.654   4.274  19.394  0.00  0.00    +0.000 HD
ENDBRANCH   2  16
BRANCH   1  18
ATOM     18  O   UNL     1       7.012   7.439  17.078  0.00  0.00    +0.000 OA
BRANCH  18  19
ATOM     19  C   UNL     1       7.915   7.887  17.999  0.00  0.00    +0.000 C 
ATOM     20  O   UNL     1       8.515   7.164  18.790  0.00  0.00    +0.000 OA
BRANCH  19  21
ATOM     21  C   UNL     1       8.134   9.383  17.863  0.00  0.00    +0.000 C 
BRANCH  21  22
ATOM     22  C   UNL     1       9.049   9.997  18.930  0.00  0.00    +0.000 C 
BRANCH  22  23
ATOM     23  C   UNL     1      10.038  10.980  18.291  0.00  0.00    +0.000 C 
BRANCH  23  24
ATOM     24  C   UNL     1      10.889  11.677  19.351  0.00  0.00    +0.000 C 
BRANCH  24  25
ATOM     25  C   UNL     1      10.180  11.716  20.705  0.00  0.00    +0.000 C 
BRANCH  25  26
ATOM     26  C   UNL     1       9.989  13.161  21.165  0.00  0.00    +0.000 C 
BRANCH  26  27
ATOM     27  C   UNL     1       9.074  13.237  22.384  0.00  0.00    +0.000 C 
BRANCH  27  29
ATOM     28  C   UNL     1       8.050  11.640  24.032  0.00  0.00    +0.000 C 
ATOM     29  C   UNL     1       8.287  11.941  22.561  0.00  0.00    +0.000 C 
ENDBRANCH  27  29
ENDBRANCH  26  27
ENDBRANCH  25  26
ENDBRANCH  24  25
ENDBRANCH  23  24
ENDBRANCH  22  23
ENDBRANCH  21  22
ENDBRANCH  19  21
ENDBRANCH  18  19
ENDBRANCH   1  18
BRANCH   5  30
ATOM     30  C   UNL     1       6.341   4.263  15.217  0.00  0.00    +0.000 C 
BRANCH  30  31
ATOM     31  O   UNL     1       7.158   3.494  16.102  0.00  0.00    +0.000 OA
ATOM     32  H   UNL     1       6.619   2.732  16.400  0.00  0.00    +0.000 HD
ENDBRANCH  30  31
ENDBRANCH   5  30
TORSDOF 14
ENDMDL
MODEL 4
REMARK VINA RESULT:      -6.6      1.208      1.632
REMARK  Name = 
REMARK  15 active torsions:
REMARK  status: ('A' for Active; 'I' for Inactive)
REMARK    1  A    between atoms: C_1  and  C_2
REMARK    2  A    between atoms: C_2  and  C_3
REMARK    3  A    between atoms: C_3  and  C_4
REMARK    4  A    between atoms: C_4  and  C_5
REMARK    5  A    between atoms: C_5  and  C_6
REMARK    6  A    between atoms: C_6  and  C_7
REMARK    7  A    between atoms: C_7  and  C_8
REMARK    8  A    between atoms: C_8  and  C_9
REMARK    9  A    between atoms: C_9  and  C_10
REMARK   10  A    between atoms: C_10  and  O_12
REMARK   11  A    between atoms: O_12  and  C_13
REMARK   12  A    between atoms: C_14  and  O_15
REMARK   13  A    between atoms: C_16  and  N_17
REMARK   14  A    between atoms: C_26  and  C_27
REMARK   15  A    between atoms: C_27  and  O_28
REMARK                            x       y       z     vdW  Elec       q    Type
REMARK                         _______ _______ _______ _____ _____    ______ ____
ROOT
ATOM      1  C   UNL     1       6.892   5.680  16.893  0.00  0.00    +0.000 C 
ATOM      2  C   UNL     1       5.933   5.362  18.035  0.00  0.00    +0.000 C 
ATOM      3  C   UNL     1       4.552   5.614  17.375  0.00  0.00    +0.000 C 
ATOM      4  O   UNL     1       4.689   5.369  15.963  0.00  0.00    +0.000 OA
ATOM      5  C   UNL     1       6.091   5.282  15.638  0.00  0.00    +0.000 C 
ENDROOT
BRANCH   3   6
ATOM      6  N   UNL     1       3.435   4.842  17.905  0.00  0.00    +0.000 N 
ATOM      7  C   UNL     1       3.090   3.637  17.340  0.00  0.00    +0.000 A 
ATOM      8  C   UNL     1       2.134   2.872  17.857  0.00  0.00    +0.000 A 
ATOM      9  C   UNL     1       1.428   3.440  19.027  0.00  0.00    +0.000 A 
ATOM     10  N   UNL     1       0.401   2.738  19.588  0.00  0.00    +0.000 N 
ATOM     11  N   UNL     1       1.729   4.583  19.545  0.00  0.00    +0.000 NA
ATOM     12  C   UNL     1       2.774   5.326  19.044  0.00  0.00    +0.000 A 
ATOM     13  O   UNL     1       3.115   6.374  19.566  0.00  0.00    +0.000 OA
ATOM     14  H   UNL     1      -0.123   2.094  19.005  0.00  0.00    +0.000 HD
ATOM     15  H   UNL     1      -0.179   3.318  20.187  0.00  0.00    +0.000 HD
ENDBRANCH   3   6
BRANCH   2  16
ATOM     16  O   UNL     1       6.200   4.021  18.471  0.00  0.00    +0.000 OA
ATOM     17  H   UNL     1       6.558   4.062  19.383  0.00  0.00    +0.000 HD
ENDBRANCH   2  16
BRANCH   1  18
ATOM     18  O   UNL     1       7.213   7.095  16.818  0.00  0.00    +0.000 OA
BRANCH  18  19
ATOM     19  C   UNL     1       7.892   7.615  17.882  0.00  0.00    +0.000 C 
ATOM     20  O   UNL     1       8.419   6.942  18.763  0.00  0.00    +0.000 OA
BRANCH  19  21
ATOM     21  C   UNL     1       7.971   9.128  17.790  0.00  0.00    +0.000 C 
BRANCH  21  22
ATOM     22  C   UNL     1       8.880   9.787  18.834  0.00  0.00    +0.000 C 
BRANCH  22  23
ATOM     23  C   UNL     1       9.860  10.757  18.160  0.00  0.00    +0.000 C 
BRANCH  23  24
ATOM     24  C   UNL     1       9.666  12.183  18.671  0.00  0.00    +0.000 C 
BRANCH  24  25
ATOM     25  C   UNL     1       8.638  12.946  17.835  0.00  0.00    +0.000 C 
BRANCH  25  26
ATOM     26  C   UNL     1       8.785  14.451  18.052  0.00  0.00    +0.000 C 
BRANCH  26  27
ATOM     27  C   UNL     1      10.166  14.800  18.600  0.00  0.00    +0.000 C 
BRANCH  27  29
ATOM     28  C   UNL     1      10.461  16.625  16.899  0.00  0.00    +0.000 C 
ATOM     29  C   UNL     1      11.063  15.368  17.503  0.00  0.00    +0.000 C 
ENDBRANCH  27  29
ENDBRANCH  26  27
ENDBRANCH  25  26
ENDBRANCH  24  25
ENDBRANCH  23  24
ENDBRANCH  22  23
ENDBRANCH  21  22
ENDBRANCH  19  21
ENDBRANCH  18  19
ENDBRANCH   1  18
BRANCH   5  30
ATOM     30  C   UNL     1       6.398   3.860  15.121  0.00  0.00    +0.000 C 
BRANCH  30  31
ATOM     31  O   UNL     1       6.740   3.846  13.734  0.00  0.00    +0.000 OA
ATOM     32  H   UNL     1       7.153   4.711  13.532  0.00  0.00    +0.000 HD
ENDBRANCH  30  31
ENDBRANCH   5  30
TORSDOF 14
ENDMDL
MODEL 5
REMARK VINA RESULT:      -6.6      4.531      7.951
REMARK  Name = 
REMARK  15 active torsions:
REMARK  status: ('A' for Active; 'I' for Inactive)
REMARK    1  A    between atoms: C_1  and  C_2
REMARK    2  A    between atoms: C_2  and  C_3
REMARK    3  A    between atoms: C_3  and  C_4
REMARK    4  A    between atoms: C_4  and  C_5
REMARK    5  A    between atoms: C_5  and  C_6
REMARK    6  A    between atoms: C_6  and  C_7
REMARK    7  A    between atoms: C_7  and  C_8
REMARK    8  A    between atoms: C_8  and  C_9
REMARK    9  A    between atoms: C_9  and  C_10
REMARK   10  A    between atoms: C_10  and  O_12
REMARK   11  A    between atoms: O_12  and  C_13
REMARK   12  A    between atoms: C_14  and  O_15
REMARK   13  A    between atoms: C_16  and  N_17
REMARK   14  A    between atoms: C_26  and  C_27
REMARK   15  A    between atoms: C_27  and  O_28
REMARK                            x       y       z     vdW  Elec       q    Type
REMARK                         _______ _______ _______ _____ _____    ______ ____
ROOT
ATOM      1  C   UNL     1       5.265   6.055  17.384  0.00  0.00    +0.000 C 
ATOM      2  C   UNL     1       3.883   5.772  17.963  0.00  0.00    +0.000 C 
ATOM      3  C   UNL     1       3.980   4.264  18.307  0.00  0.00    +0.000 C 
ATOM      4  O   UNL     1       5.361   3.964  18.582  0.00  0.00    +0.000 OA
ATOM      5  C   UNL     1       6.174   5.072  18.148  0.00  0.00    +0.000 C 
ENDROOT
BRANCH   3   6
ATOM      6  N   UNL     1       3.145   3.800  19.408  0.00  0.00    +0.000 N 
ATOM      7  C   UNL     1       1.856   4.258  19.547  0.00  0.00    +0.000 A 
ATOM      8  C   UNL     1       1.045   3.786  20.488  0.00  0.00    +0.000 A 
ATOM      9  C   UNL     1       1.646   2.796  21.409  0.00  0.00    +0.000 A 
ATOM     10  N   UNL     1       0.894   2.298  22.432  0.00  0.00    +0.000 N 
ATOM     11  N   UNL     1       2.864   2.381  21.299  0.00  0.00    +0.000 NA
ATOM     12  C   UNL     1       3.665   2.823  20.271  0.00  0.00    +0.000 A 
ATOM     13  O   UNL     1       4.794   2.388  20.115  0.00  0.00    +0.000 OA
ATOM     14  H   UNL     1       0.137   2.865  22.800  0.00  0.00    +0.000 HD
ATOM     15  H   UNL     1       1.463   1.853  23.147  0.00  0.00    +0.000 HD
ENDBRANCH   3   6
BRANCH   2  16
ATOM     16  O   UNL     1       3.677   6.670  19.064  0.00  0.00    +0.000 OA
ATOM     17  H   UNL     1       3.528   7.568  18.702  0.00  0.00    +0.000 HD
ENDBRANCH   2  16
BRANCH   1  18
ATOM     18  O   UNL     1       5.341   5.759  15.964  0.00  0.00    +0.000 OA
BRANCH  18  19
ATOM     19  C   UNL     1       6.588   5.512  15.467  0.00  0.00    +0.000 C 
ATOM     20  O   UNL     1       7.605   6.098  15.825  0.00  0.00    +0.000 OA
BRANCH  19  21
ATOM     21  C   UNL     1       6.559   4.366  14.471  0.00  0.00    +0.000 C 
BRANCH  21  22
ATOM     22  C   UNL     1       7.400   4.592  13.209  0.00  0.00    +0.000 C 
BRANCH  22  23
ATOM     23  C   UNL     1       6.787   3.851  12.013  0.00  0.00    +0.000 C 
BRANCH  23  24
ATOM     24  C   UNL     1       5.374   3.366  12.328  0.00  0.00    +0.000 C 
BRANCH  24  25
ATOM     25  C   UNL     1       4.742   2.658  11.130  0.00  0.00    +0.000 C 
BRANCH  25  26
ATOM     26  C   UNL     1       3.232   2.888  11.110  0.00  0.00    +0.000 C 
BRANCH  26  27
ATOM     27  C   UNL     1       2.741   3.224   9.704  0.00  0.00    +0.000 C 
BRANCH  27  29
ATOM     28  C   UNL     1       1.942   5.324   8.581  0.00  0.00    +0.000 C 
ATOM     29  C   UNL     1       3.085   4.664   9.333  0.00  0.00    +0.000 C 
ENDBRANCH  27  29
ENDBRANCH  26  27
ENDBRANCH  25  26
ENDBRANCH  24  25
ENDBRANCH  23  24
ENDBRANCH  22  23
ENDBRANCH  21  22
ENDBRANCH  19  21
ENDBRANCH  18  19
ENDBRANCH   1  18
BRANCH   5  30
ATOM     30  C   UNL     1       6.875   5.690  19.376  0.00  0.00    +0.000 C 
BRANCH  30  31
ATOM     31  O   UNL     1       8.174   6.199  19.065  0.00  0.00    +0.000 OA
ATOM     32  H   UNL     1       8.736   6.052  19.855  0.00  0.00    +0.000 HD
ENDBRANCH  30  31
ENDBRANCH   5  30
TORSDOF 14
ENDMDL
MODEL 6
REMARK VINA RESULT:      -6.6      1.118      1.335
REMARK  Name = 
REMARK  15 active torsions:
REMARK  status: ('A' for Active; 'I' for Inactive)
REMARK    1  A    between atoms: C_1  and  C_2
REMARK    2  A    between atoms: C_2  and  C_3
REMARK    3  A    between atoms: C_3  and  C_4
REMARK    4  A    between atoms: C_4  and  C_5
REMARK    5  A    between atoms: C_5  and  C_6
REMARK    6  A    between atoms: C_6  and  C_7
REMARK    7  A    between atoms: C_7  and  C_8
REMARK    8  A    between atoms: C_8  and  C_9
REMARK    9  A    between atoms: C_9  and  C_10
REMARK   10  A    between atoms: C_10  and  O_12
REMARK   11  A    between atoms: O_12  and  C_13
REMARK   12  A    between atoms: C_14  and  O_15
REMARK   13  A    between atoms: C_16  and  N_17
REMARK   14  A    between atoms: C_26  and  C_27
REMARK   15  A    between atoms: C_27  and  O_28
REMARK                            x       y       z     vdW  Elec       q    Type
REMARK                         _______ _______ _______ _____ _____    ______ ____
ROOT
ATOM      1  C   UNL     1       6.971   5.988  17.079  0.00  0.00    +0.000 C 
ATOM      2  C   UNL     1       5.913   5.493  18.059  0.00  0.00    +0.000 C 
ATOM      3  C   UNL     1       4.620   5.577  17.208  0.00  0.00    +0.000 C 
ATOM      4  O   UNL     1       4.992   5.411  15.827  0.00  0.00    +0.000 OA
ATOM      5  C   UNL     1       6.424   5.533  15.712  0.00  0.00    +0.000 C 
ENDROOT
BRANCH   3   6
ATOM      6  N   UNL     1       3.561   4.636  17.551  0.00  0.00    +0.000 N 
ATOM      7  C   UNL     1       3.565   3.362  17.033  0.00  0.00    +0.000 A 
ATOM      8  C   UNL     1       2.662   2.458  17.397  0.00  0.00    +0.000 A 
ATOM      9  C   UNL     1       1.623   2.938  18.335  0.00  0.00    +0.000 A 
ATOM     10  N   UNL     1       0.631   2.084  18.721  0.00  0.00    +0.000 N 
ATOM     11  N   UNL     1       1.598   4.140  18.803  0.00  0.00    +0.000 NA
ATOM     12  C   UNL     1       2.586   5.040  18.475  0.00  0.00    +0.000 A 
ATOM     13  O   UNL     1       2.615   6.158  18.965  0.00  0.00    +0.000 OA
ATOM     14  H   UNL     1       0.371   1.327  18.098  0.00  0.00    +0.000 HD
ATOM     15  H   UNL     1      -0.160   2.574  19.129  0.00  0.00    +0.000 HD
ENDBRANCH   3   6
BRANCH   2  16
ATOM     16  O   UNL     1       6.305   4.186  18.504  0.00  0.00    +0.000 OA
ATOM     17  H   UNL     1       5.558   3.797  19.006  0.00  0.00    +0.000 HD
ENDBRANCH   2  16
BRANCH   1  18
ATOM     18  O   UNL     1       7.092   7.435  17.081  0.00  0.00    +0.000 OA
BRANCH  18  19
ATOM     19  C   UNL     1       7.931   7.967  18.017  0.00  0.00    +0.000 C 
ATOM     20  O   UNL     1       8.550   7.308  18.848  0.00  0.00    +0.000 OA
BRANCH  19  21
ATOM     21  C   UNL     1       8.055   9.470  17.846  0.00  0.00    +0.000 C 
BRANCH  21  22
ATOM     22  C   UNL     1       9.367  10.069  18.364  0.00  0.00    +0.000 C 
BRANCH  22  23
ATOM     23  C   UNL     1       9.215  10.520  19.823  0.00  0.00    +0.000 C 
BRANCH  23  24
ATOM     24  C   UNL     1      10.358  11.443  20.240  0.00  0.00    +0.000 C 
BRANCH  24  25
ATOM     25  C   UNL     1      11.048  12.068  19.027  0.00  0.00    +0.000 C 
BRANCH  25  26
ATOM     26  C   UNL     1      12.297  12.834  19.460  0.00  0.00    +0.000 C 
BRANCH  26  27
ATOM     27  C   UNL     1      12.332  14.230  18.845  0.00  0.00    +0.000 C 
BRANCH  27  29
ATOM     28  C   UNL     1      10.415  15.808  18.461  0.00  0.00    +0.000 C 
ATOM     29  C   UNL     1      11.300  15.144  19.502  0.00  0.00    +0.000 C 
ENDBRANCH  27  29
ENDBRANCH  26  27
ENDBRANCH  25  26
ENDBRANCH  24  25
ENDBRANCH  23  24
ENDBRANCH  22  23
ENDBRANCH  21  22
ENDBRANCH  19  21
ENDBRANCH  18  19
ENDBRANCH   1  18
BRANCH   5  30
ATOM     30  C   UNL     1       7.003   4.190  15.218  0.00  0.00    +0.000 C 
BRANCH  30  31
ATOM     31  O   UNL     1       6.110   3.499  14.342  0.00  0.00    +0.000 OA
ATOM     32  H   UNL     1       6.354   3.752  13.427  0.00  0.00    +0.000 HD
ENDBRANCH  30  31
ENDBRANCH   5  30
TORSDOF 14
ENDMDL
MODEL 7
REMARK VINA RESULT:      -6.4      0.812      1.214
REMARK  Name = 
REMARK  15 active torsions:
REMARK  status: ('A' for Active; 'I' for Inactive)
REMARK    1  A    between atoms: C_1  and  C_2
REMARK    2  A    between atoms: C_2  and  C_3
REMARK    3  A    between atoms: C_3  and  C_4
REMARK    4  A    between atoms: C_4  and  C_5
REMARK    5  A    between atoms: C_5  and  C_6
REMARK    6  A    between atoms: C_6  and  C_7
REMARK    7  A    between atoms: C_7  and  C_8
REMARK    8  A    between atoms: C_8  and  C_9
REMARK    9  A    between atoms: C_9  and  C_10
REMARK   10  A    between atoms: C_10  and  O_12
REMARK   11  A    between atoms: O_12  and  C_13
REMARK   12  A    between atoms: C_14  and  O_15
REMARK   13  A    between atoms: C_16  and  N_17
REMARK   14  A    between atoms: C_26  and  C_27
REMARK   15  A    between atoms: C_27  and  O_28
REMARK                            x       y       z     vdW  Elec       q    Type
REMARK                         _______ _______ _______ _____ _____    ______ ____
ROOT
ATOM      1  C   UNL     1       6.835   6.281  17.317  0.00  0.00    +0.000 C 
ATOM      2  C   UNL     1       5.782   5.770  18.295  0.00  0.00    +0.000 C 
ATOM      3  C   UNL     1       4.485   5.869  17.453  0.00  0.00    +0.000 C 
ATOM      4  O   UNL     1       4.848   5.727  16.067  0.00  0.00    +0.000 OA
ATOM      5  C   UNL     1       6.279   5.850  15.946  0.00  0.00    +0.000 C 
ENDROOT
BRANCH   3   6
ATOM      6  N   UNL     1       3.427   4.923  17.786  0.00  0.00    +0.000 N 
ATOM      7  C   UNL     1       3.361   3.701  17.159  0.00  0.00    +0.000 A 
ATOM      8  C   UNL     1       2.462   2.787  17.505  0.00  0.00    +0.000 A 
ATOM      9  C   UNL     1       1.502   3.202  18.552  0.00  0.00    +0.000 A 
ATOM     10  N   UNL     1       0.517   2.338  18.931  0.00  0.00    +0.000 N 
ATOM     11  N   UNL     1       1.542   4.358  19.125  0.00  0.00    +0.000 NA
ATOM     12  C   UNL     1       2.529   5.263  18.808  0.00  0.00    +0.000 A 
ATOM     13  O   UNL     1       2.620   6.331  19.391  0.00  0.00    +0.000 OA
ATOM     14  H   UNL     1       0.195   1.644  18.264  0.00  0.00    +0.000 HD
ATOM     15  H   UNL     1      -0.231   2.804  19.435  0.00  0.00    +0.000 HD
ENDBRANCH   3   6
BRANCH   2  16
ATOM     16  O   UNL     1       6.176   4.455  18.715  0.00  0.00    +0.000 OA
ATOM     17  H   UNL     1       6.932   4.170  18.161  0.00  0.00    +0.000 HD
ENDBRANCH   2  16
BRANCH   1  18
ATOM     18  O   UNL     1       6.957   7.728  17.343  0.00  0.00    +0.000 OA
BRANCH  18  19
ATOM     19  C   UNL     1       7.991   8.231  18.080  0.00  0.00    +0.000 C 
ATOM     20  O   UNL     1       8.633   7.586  18.903  0.00  0.00    +0.000 OA
BRANCH  19  21
ATOM     21  C   UNL     1       8.288   9.668  17.690  0.00  0.00    +0.000 C 
BRANCH  21  22
ATOM     22  C   UNL     1       9.137  10.444  18.703  0.00  0.00    +0.000 C 
BRANCH  22  23
ATOM     23  C   UNL     1      10.147  11.346  17.982  0.00  0.00    +0.000 C 
BRANCH  23  24
ATOM     24  C   UNL     1       9.539  12.709  17.657  0.00  0.00    +0.000 C 
BRANCH  24  25
ATOM     25  C   UNL     1       9.253  13.515  18.924  0.00  0.00    +0.000 C 
BRANCH  25  26
ATOM     26  C   UNL     1      10.530  13.693  19.743  0.00  0.00    +0.000 C 
BRANCH  26  27
ATOM     27  C   UNL     1      10.217  13.873  21.225  0.00  0.00    +0.000 C 
BRANCH  27  29
ATOM     28  C   UNL     1       9.742  15.583  23.004  0.00  0.00    +0.000 C 
ATOM     29  C   UNL     1      10.379  15.331  21.648  0.00  0.00    +0.000 C 
ENDBRANCH  27  29
ENDBRANCH  26  27
ENDBRANCH  25  26
ENDBRANCH  24  25
ENDBRANCH  23  24
ENDBRANCH  22  23
ENDBRANCH  21  22
ENDBRANCH  19  21
ENDBRANCH  18  19
ENDBRANCH   1  18
BRANCH   5  30
ATOM     30  C   UNL     1       6.855   4.516  15.425  0.00  0.00    +0.000 C 
BRANCH  30  31
ATOM     31  O   UNL     1       7.804   3.941  16.327  0.00  0.00    +0.000 OA
ATOM     32  H   UNL     1       8.324   3.287  15.815  0.00  0.00    +0.000 HD
ENDBRANCH  30  31
ENDBRANCH   5  30
TORSDOF 14
ENDMDL
MODEL 8
REMARK VINA RESULT:      -6.4      1.176      1.641
REMARK  Name = 
REMARK  15 active torsions:
REMARK  status: ('A' for Active; 'I' for Inactive)
REMARK    1  A    between atoms: C_1  and  C_2
REMARK    2  A    between atoms: C_2  and  C_3
REMARK    3  A    between atoms: C_3  and  C_4
REMARK    4  A    between atoms: C_4  and  C_5
REMARK    5  A    between atoms: C_5  and  C_6
REMARK    6  A    between atoms: C_6  and  C_7
REMARK    7  A    between atoms: C_7  and  C_8
REMARK    8  A    between atoms: C_8  and  C_9
REMARK    9  A    between atoms: C_9  and  C_10
REMARK   10  A    between atoms: C_10  and  O_12
REMARK   11  A    between atoms: O_12  and  C_13
REMARK   12  A    between atoms: C_14  and  O_15
REMARK   13  A    between atoms: C_16  and  N_17
REMARK   14  A    between atoms: C_26  and  C_27
REMARK   15  A    between atoms: C_27  and  O_28
REMARK                            x       y       z     vdW  Elec       q    Type
REMARK                         _______ _______ _______ _____ _____    ______ ____
ROOT
ATOM      1  C   UNL     1       7.001   6.002  17.057  0.00  0.00    +0.000 C 
ATOM      2  C   UNL     1       5.955   5.527  18.059  0.00  0.00    +0.000 C 
ATOM      3  C   UNL     1       4.643   5.666  17.246  0.00  0.00    +0.000 C 
ATOM      4  O   UNL     1       4.970   5.509  15.853  0.00  0.00    +0.000 OA
ATOM      5  C   UNL     1       6.402   5.585  15.699  0.00  0.00    +0.000 C 
ENDROOT
BRANCH   3   6
ATOM      6  N   UNL     1       3.563   4.756  17.605  0.00  0.00    +0.000 N 
ATOM      7  C   UNL     1       3.528   3.479  17.096  0.00  0.00    +0.000 A 
ATOM      8  C   UNL     1       2.606   2.601  17.475  0.00  0.00    +0.000 A 
ATOM      9  C   UNL     1       1.588   3.114  18.420  0.00  0.00    +0.000 A 
ATOM     10  N   UNL     1       0.579   2.289  18.821  0.00  0.00    +0.000 N 
ATOM     11  N   UNL     1       1.600   4.320  18.880  0.00  0.00    +0.000 NA
ATOM     12  C   UNL     1       2.608   5.191  18.537  0.00  0.00    +0.000 A 
ATOM     13  O   UNL     1       2.670   6.311  19.018  0.00  0.00    +0.000 OA
ATOM     14  H   UNL     1       0.293   1.535  18.206  0.00  0.00    +0.000 HD
ATOM     15  H   UNL     1      -0.195   2.802  19.233  0.00  0.00    +0.000 HD
ENDBRANCH   3   6
BRANCH   2  16
ATOM     16  O   UNL     1       6.315   4.202  18.475  0.00  0.00    +0.000 OA
ATOM     17  H   UNL     1       6.857   4.273  19.288  0.00  0.00    +0.000 HD
ENDBRANCH   2  16
BRANCH   1  18
ATOM     18  O   UNL     1       7.170   7.444  17.075  0.00  0.00    +0.000 OA
BRANCH  18  19
ATOM     19  C   UNL     1       7.995   7.941  18.043  0.00  0.00    +0.000 C 
ATOM     20  O   UNL     1       8.573   7.254  18.880  0.00  0.00    +0.000 OA
BRANCH  19  21
ATOM     21  C   UNL     1       8.160   9.443  17.900  0.00  0.00    +0.000 C 
BRANCH  21  22
ATOM     22  C   UNL     1       9.113  10.084  18.915  0.00  0.00    +0.000 C 
BRANCH  22  23
ATOM     23  C   UNL     1       9.395  11.545  18.542  0.00  0.00    +0.000 C 
BRANCH  23  24
ATOM     24  C   UNL     1       9.417  12.438  19.781  0.00  0.00    +0.000 C 
BRANCH  24  25
ATOM     25  C   UNL     1       8.630  13.729  19.558  0.00  0.00    +0.000 C 
BRANCH  25  26
ATOM     26  C   UNL     1       8.845  14.248  18.137  0.00  0.00    +0.000 C 
BRANCH  26  27
ATOM     27  C   UNL     1       7.777  15.268  17.753  0.00  0.00    +0.000 C 
BRANCH  27  29
ATOM     28  C   UNL     1       5.327  14.725  17.883  0.00  0.00    +0.000 C 
ATOM     29  C   UNL     1       6.557  15.156  18.664  0.00  0.00    +0.000 C 
ENDBRANCH  27  29
ENDBRANCH  26  27
ENDBRANCH  25  26
ENDBRANCH  24  25
ENDBRANCH  23  24
ENDBRANCH  22  23
ENDBRANCH  21  22
ENDBRANCH  19  21
ENDBRANCH  18  19
ENDBRANCH   1  18
BRANCH   5  30
ATOM     30  C   UNL     1       6.922   4.232  15.171  0.00  0.00    +0.000 C 
BRANCH  30  31
ATOM     31  O   UNL     1       5.871   3.288  14.957  0.00  0.00    +0.000 OA
ATOM     32  H   UNL     1       5.153   3.513  15.585  0.00  0.00    +0.000 HD
ENDBRANCH  30  31
ENDBRANCH   5  30
TORSDOF 14
ENDMDL
MODEL 9
REMARK VINA RESULT:      -6.4      4.840      7.568
REMARK  Name = 
REMARK  15 active torsions:
REMARK  status: ('A' for Active; 'I' for Inactive)
REMARK    1  A    between atoms: C_1  and  C_2
REMARK    2  A    between atoms: C_2  and  C_3
REMARK    3  A    between atoms: C_3  and  C_4
REMARK    4  A    between atoms: C_4  and  C_5
REMARK    5  A    between atoms: C_5  and  C_6
REMARK    6  A    between atoms: C_6  and  C_7
REMARK    7  A    between atoms: C_7  and  C_8
REMARK    8  A    between atoms: C_8  and  C_9
REMARK    9  A    between atoms: C_9  and  C_10
REMARK   10  A    between atoms: C_10  and  O_12
REMARK   11  A    between atoms: O_12  and  C_13
REMARK   12  A    between atoms: C_14  and  O_15
REMARK   13  A    between atoms: C_16  and  N_17
REMARK   14  A    between atoms: C_26  and  C_27
REMARK   15  A    between atoms: C_27  and  O_28
REMARK                            x       y       z     vdW  Elec       q    Type
REMARK                         _______ _______ _______ _____ _____    ______ ____
ROOT
ATOM      1  C   UNL     1       3.006   3.935  19.371  0.00  0.00    +0.000 C 
ATOM      2  C   UNL     1       3.443   4.708  18.132  0.00  0.00    +0.000 C 
ATOM      3  C   UNL     1       4.984   4.741  18.299  0.00  0.00    +0.000 C 
ATOM      4  O   UNL     1       5.369   3.575  19.050  0.00  0.00    +0.000 OA
ATOM      5  C   UNL     1       4.189   2.979  19.624  0.00  0.00    +0.000 C 
ENDROOT
BRANCH   3   6
ATOM      6  N   UNL     1       5.763   4.817  17.070  0.00  0.00    +0.000 N 
ATOM      7  C   UNL     1       5.599   3.876  16.080  0.00  0.00    +0.000 A 
ATOM      8  C   UNL     1       6.231   3.971  14.916  0.00  0.00    +0.000 A 
ATOM      9  C   UNL     1       7.168   5.109  14.790  0.00  0.00    +0.000 A 
ATOM     10  N   UNL     1       7.892   5.250  13.642  0.00  0.00    +0.000 N 
ATOM     11  N   UNL     1       7.347   5.980  15.725  0.00  0.00    +0.000 NA
ATOM     12  C   UNL     1       6.625   5.910  16.895  0.00  0.00    +0.000 A 
ATOM     13  O   UNL     1       6.733   6.765  17.759  0.00  0.00    +0.000 OA
ATOM     14  H   UNL     1       8.101   4.422  13.094  0.00  0.00    +0.000 HD
ATOM     15  H   UNL     1       8.681   5.878  13.760  0.00  0.00    +0.000 HD
ENDBRANCH   3   6
BRANCH   2  16
ATOM     16  O   UNL     1       2.937   4.016  16.981  0.00  0.00    +0.000 OA
ATOM     17  H   UNL     1       3.692   3.804  16.395  0.00  0.00    +0.000 HD
ENDBRANCH   2  16
BRANCH   1  18
ATOM     18  O   UNL     1       2.839   4.794  20.530  0.00  0.00    +0.000 OA
BRANCH  18  19
ATOM     19  C   UNL     1       1.665   5.488  20.599  0.00  0.00    +0.000 C 
ATOM     20  O   UNL     1       0.552   4.970  20.592  0.00  0.00    +0.000 OA
BRANCH  19  21
ATOM     21  C   UNL     1       1.921   6.976  20.760  0.00  0.00    +0.000 C 
BRANCH  21  22
ATOM     22  C   UNL     1       0.694   7.797  21.173  0.00  0.00    +0.000 C 
BRANCH  22  23
ATOM     23  C   UNL     1       1.117   9.184  21.675  0.00  0.00    +0.000 C 
BRANCH  23  24
ATOM     24  C   UNL     1       0.222  10.278  21.099  0.00  0.00    +0.000 C 
BRANCH  24  25
ATOM     25  C   UNL     1       0.932  11.067  20.000  0.00  0.00    +0.000 C 
BRANCH  25  26
ATOM     26  C   UNL     1      -0.036  11.386  18.861  0.00  0.00    +0.000 C 
BRANCH  26  27
ATOM     27  C   UNL     1      -0.526  10.112  18.178  0.00  0.00    +0.000 C 
BRANCH  27  29
ATOM     28  C   UNL     1      -2.425   9.945  16.542  0.00  0.00    +0.000 C 
ATOM     29  C   UNL     1      -2.042  10.135  18.000  0.00  0.00    +0.000 C 
ENDBRANCH  27  29
ENDBRANCH  26  27
ENDBRANCH  25  26
ENDBRANCH  24  25
ENDBRANCH  23  24
ENDBRANCH  22  23
ENDBRANCH  21  22
ENDBRANCH  19  21
ENDBRANCH  18  19
ENDBRANCH   1  18
BRANCH   5  30
ATOM     30  C   UNL     1       3.997   1.569  19.025  0.00  0.00    +0.000 C 
BRANCH  30  31
ATOM     31  O   UNL     1       2.701   1.392  18.449  0.00  0.00    +0.000 OA
ATOM     32  H   UNL     1       2.355   2.286  18.243  0.00  0.00    +0.000 HD
ENDBRANCH  30  31
ENDBRANCH   5  30
TORSDOF 14
ENDMDL
