MODEL 1
REMARK VINA RESULT:      -7.3      0.000      0.000
REMARK  Name = 
REMARK  6 active torsions:
REMARK  status: ('A' for Active; 'I' for Inactive)
REMARK    1  A    between atoms: C_1  and  O_2
REMARK    2  A    between atoms: O_2  and  C_3
REMARK    3  A    between atoms: C_4  and  C_5
REMARK    4  A    between atoms: C_8  and  O_9
REMARK    5  A    between atoms: O_9  and  C_10
REMARK    6  A    between atoms: C_10  and  C_11
REMARK                            x       y       z     vdW  Elec       q    Type
REMARK                         _______ _______ _______ _____ _____    ______ ____
ROOT
ATOM      1  C   UNL     1       7.079   4.930  14.388  0.00  0.00    +0.000 A 
ATOM      2  C   UNL     1       6.099   4.130  13.813  0.00  0.00    +0.000 A 
ATOM      3  C   UNL     1       6.036   3.388  12.534  0.00  0.00    +0.000 C 
ATOM      4  N   UNL     1       5.007   4.033  14.641  0.00  0.00    +0.000 NA
ATOM      5  C   UNL     1       5.300   4.716  15.727  0.00  0.00    +0.000 A 
ATOM      6  C   UNL     1       4.572   4.939  16.944  0.00  0.00    +0.000 A 
ATOM      7  C   UNL     1       5.105   5.731  17.896  0.00  0.00    +0.000 A 
ATOM      8  C   UNL     1       6.418   6.339  17.742  0.00  0.00    +0.000 A 
ATOM      9  C   UNL     1       7.118   6.096  16.623  0.00  0.00    +0.000 A 
ATOM     10  N   UNL     1       6.561   5.292  15.625  0.00  0.00    +0.000 N 
ENDROOT
BRANCH   1  12
ATOM     11  C   UNL     1       8.403   5.895  12.714  0.00  0.00    +0.000 C 
ATOM     12  O   UNL     1       8.289   5.371  14.030  0.00  0.00    +0.000 OA
ENDBRANCH   1  12
BRANCH   6  13
ATOM     13  O   UNL     1       3.339   4.344  17.155  0.00  0.00    +0.000 OA
BRANCH  13  14
ATOM     14  C   UNL     1       3.366   3.010  17.678  0.00  0.00    +0.000 C 
BRANCH  14  15
ATOM     15  C   UNL     1       2.702   2.943  19.032  0.00  0.00    +0.000 A 
ATOM     16  C   UNL     1       3.439   2.746  20.207  0.00  0.00    +0.000 A 
ATOM     17  C   UNL     1       2.793   2.697  21.443  0.00  0.00    +0.000 A 
ATOM     18  C   UNL     1       1.411   2.863  21.514  0.00  0.00    +0.000 A 
ATOM     19  C   UNL     1       0.672   3.089  20.358  0.00  0.00    +0.000 A 
ATOM     20  C   UNL     1       1.316   3.137  19.124  0.00  0.00    +0.000 A 
ENDBRANCH  14  15
ENDBRANCH  13  14
ENDBRANCH   6  13
TORSDOF 4
ENDMDL
MODEL 2
REMARK VINA RESULT:      -7.3      0.083      1.081
REMARK  Name = 
REMARK  6 active torsions:
REMARK  status: ('A' for Active; 'I' for Inactive)
REMARK    1  A    between atoms: C_1  and  O_2
REMARK    2  A    between atoms: O_2  and  C_3
REMARK    3  A    between atoms: C_4  and  C_5
REMARK    4  A    between atoms: C_8  and  O_9
REMARK    5  A    between atoms: O_9  and  C_10
REMARK    6  A    between atoms: C_10  and  C_11
REMARK                            x       y       z     vdW  Elec       q    Type
REMARK                         _______ _______ _______ _____ _____    ______ ____
ROOT
ATOM      1  C   UNL     1       7.111   4.992  14.407  0.00  0.00    +0.000 A 
ATOM      2  C   UNL     1       6.135   4.187  13.833  0.00  0.00    +0.000 A 
ATOM      3  C   UNL     1       6.069   3.456  12.547  0.00  0.00    +0.000 C 
ATOM      4  N   UNL     1       5.051   4.073  14.668  0.00  0.00    +0.000 NA
ATOM      5  C   UNL     1       5.346   4.749  15.757  0.00  0.00    +0.000 A 
ATOM      6  C   UNL     1       4.625   4.954  16.982  0.00  0.00    +0.000 A 
ATOM      7  C   UNL     1       5.157   5.744  17.936  0.00  0.00    +0.000 A 
ATOM      8  C   UNL     1       6.463   6.366  17.778  0.00  0.00    +0.000 A 
ATOM      9  C   UNL     1       7.156   6.139  16.651  0.00  0.00    +0.000 A 
ATOM     10  N   UNL     1       6.599   5.339  15.651  0.00  0.00    +0.000 N 
ENDROOT
BRANCH   1  12
ATOM     11  C   UNL     1       8.424   5.941  12.715  0.00  0.00    +0.000 C 
ATOM     12  O   UNL     1       8.314   5.448  14.043  0.00  0.00    +0.000 OA
ENDBRANCH   1  12
BRANCH   6  13
ATOM     13  O   UNL     1       3.399   4.346  17.197  0.00  0.00    +0.000 OA
BRANCH  13  14
ATOM     14  C   UNL     1       3.442   3.035  17.776  0.00  0.00    +0.000 C 
BRANCH  14  15
ATOM     15  C   UNL     1       2.702   2.997  19.091  0.00  0.00    +0.000 A 
ATOM     16  C   UNL     1       1.325   3.243  19.172  0.00  0.00    +0.000 A 
ATOM     17  C   UNL     1       0.672   3.191  20.405  0.00  0.00    +0.000 A 
ATOM     18  C   UNL     1       1.386   2.874  21.559  0.00  0.00    +0.000 A 
ATOM     19  C   UNL     1       2.747   2.598  21.487  0.00  0.00    +0.000 A 
ATOM     20  C   UNL     1       3.400   2.650  20.258  0.00  0.00    +0.000 A 
ENDBRANCH  14  15
ENDBRANCH  13  14
ENDBRANCH   6  13
TORSDOF 4
ENDMDL
MODEL 3
REMARK VINA RESULT:      -7.0      5.557      7.735
REMARK  Name = 
REMARK  6 active torsions:
REMARK  status: ('A' for Active; 'I' for Inactive)
REMARK    1  A    between atoms: C_1  and  O_2
REMARK    2  A    between atoms: O_2  and  C_3
REMARK    3  A    between atoms: C_4  and  C_5
REMARK    4  A    between atoms: C_8  and  O_9
REMARK    5  A    between atoms: O_9  and  C_10
REMARK    6  A    between atoms: C_10  and  C_11
REMARK                            x       y       z     vdW  Elec       q    Type
REMARK                         _______ _______ _______ _____ _____    ______ ____
ROOT
ATOM      1  C   UNL     1       0.115  10.458  20.929  0.00  0.00    +0.000 A 
ATOM      2  C   UNL     1       0.299   9.599  22.006  0.00  0.00    +0.000 A 
ATOM      3  C   UNL     1      -0.204   9.617  23.398  0.00  0.00    +0.000 C 
ATOM      4  N   UNL     1       1.099   8.542  21.649  0.00  0.00    +0.000 NA
ATOM      5  C   UNL     1       1.380   8.701  20.373  0.00  0.00    +0.000 A 
ATOM      6  C   UNL     1       2.135   7.899  19.452  0.00  0.00    +0.000 A 
ATOM      7  C   UNL     1       2.301   8.330  18.185  0.00  0.00    +0.000 A 
ATOM      8  C   UNL     1       1.703   9.569  17.712  0.00  0.00    +0.000 A 
ATOM      9  C   UNL     1       0.961  10.297  18.561  0.00  0.00    +0.000 A 
ATOM     10  N   UNL     1       0.804   9.865  19.880  0.00  0.00    +0.000 N 
ENDROOT
BRANCH   1  12
ATOM     11  C   UNL     1       0.096  12.779  21.248  0.00  0.00    +0.000 C 
ATOM     12  O   UNL     1      -0.525  11.614  20.723  0.00  0.00    +0.000 OA
ENDBRANCH   1  12
BRANCH   6  13
ATOM     13  O   UNL     1       2.684   6.690  19.845  0.00  0.00    +0.000 OA
BRANCH  13  14
ATOM     14  C   UNL     1       3.173   5.850  18.791  0.00  0.00    +0.000 C 
BRANCH  14  15
ATOM     15  C   UNL     1       2.491   4.504  18.806  0.00  0.00    +0.000 A 
ATOM     16  C   UNL     1       1.469   4.203  19.715  0.00  0.00    +0.000 A 
ATOM     17  C   UNL     1       0.854   2.950  19.694  0.00  0.00    +0.000 A 
ATOM     18  C   UNL     1       1.244   1.998  18.753  0.00  0.00    +0.000 A 
ATOM     19  C   UNL     1       2.236   2.295  17.825  0.00  0.00    +0.000 A 
ATOM     20  C   UNL     1       2.850   3.545  17.846  0.00  0.00    +0.000 A 
ENDBRANCH  14  15
ENDBRANCH  13  14
ENDBRANCH   6  13
TORSDOF 4
ENDMDL
MODEL 4
REMARK VINA RESULT:      -6.9      1.614      2.635
REMARK  Name = 
REMARK  6 active torsions:
REMARK  status: ('A' for Active; 'I' for Inactive)
REMARK    1  A    between atoms: C_1  and  O_2
REMARK    2  A    between atoms: O_2  and  C_3
REMARK    3  A    between atoms: C_4  and  C_5
REMARK    4  A    between atoms: C_8  and  O_9
REMARK    5  A    between atoms: O_9  and  C_10
REMARK    6  A    between atoms: C_10  and  C_11
REMARK                            x       y       z     vdW  Elec       q    Type
REMARK                         _______ _______ _______ _____ _____    ______ ____
ROOT
ATOM      1  C   UNL     1       5.872   6.236  16.470  0.00  0.00    +0.000 A 
ATOM      2  C   UNL     1       6.077   5.064  15.750  0.00  0.00    +0.000 A 
ATOM      3  C   UNL     1       7.212   4.577  14.935  0.00  0.00    +0.000 C 
ATOM      4  N   UNL     1       4.991   4.232  15.863  0.00  0.00    +0.000 NA
ATOM      5  C   UNL     1       4.140   4.835  16.664  0.00  0.00    +0.000 A 
ATOM      6  C   UNL     1       2.860   4.436  17.177  0.00  0.00    +0.000 A 
ATOM      7  C   UNL     1       2.169   5.287  17.964  0.00  0.00    +0.000 A 
ATOM      8  C   UNL     1       2.703   6.586  18.341  0.00  0.00    +0.000 A 
ATOM      9  C   UNL     1       3.919   6.942  17.897  0.00  0.00    +0.000 A 
ATOM     10  N   UNL     1       4.628   6.073  17.065  0.00  0.00    +0.000 N 
ENDROOT
BRANCH   1  12
ATOM     11  C   UNL     1       7.605   7.288  17.642  0.00  0.00    +0.000 C 
ATOM     12  O   UNL     1       6.559   7.362  16.684  0.00  0.00    +0.000 OA
ENDBRANCH   1  12
BRANCH   6  13
ATOM     13  O   UNL     1       2.332   3.190  16.882  0.00  0.00    +0.000 OA
BRANCH  13  14
ATOM     14  C   UNL     1       2.765   2.110  17.719  0.00  0.00    +0.000 C 
BRANCH  14  15
ATOM     15  C   UNL     1       2.438   2.378  19.168  0.00  0.00    +0.000 A 
ATOM     16  C   UNL     1       1.122   2.586  19.602  0.00  0.00    +0.000 A 
ATOM     17  C   UNL     1       0.855   2.822  20.951  0.00  0.00    +0.000 A 
ATOM     18  C   UNL     1       1.897   2.835  21.877  0.00  0.00    +0.000 A 
ATOM     19  C   UNL     1       3.204   2.600  21.463  0.00  0.00    +0.000 A 
ATOM     20  C   UNL     1       3.472   2.364  20.117  0.00  0.00    +0.000 A 
ENDBRANCH  14  15
ENDBRANCH  13  14
ENDBRANCH   6  13
TORSDOF 4
ENDMDL
MODEL 5
REMARK VINA RESULT:      -6.9      2.751      4.652
REMARK  Name = 
REMARK  6 active torsions:
REMARK  status: ('A' for Active; 'I' for Inactive)
REMARK    1  A    between atoms: C_1  and  O_2
REMARK    2  A    between atoms: O_2  and  C_3
REMARK    3  A    between atoms: C_4  and  C_5
REMARK    4  A    between atoms: C_8  and  O_9
REMARK    5  A    between atoms: O_9  and  C_10
REMARK    6  A    between atoms: C_10  and  C_11
REMARK                            x       y       z     vdW  Elec       q    Type
REMARK                         _______ _______ _______ _____ _____    ______ ____
ROOT
ATOM      1  C   UNL     1       3.012   7.480  18.130  0.00  0.00    +0.000 A 
ATOM      2  C   UNL     1       2.659   7.052  19.404  0.00  0.00    +0.000 A 
ATOM      3  C   UNL     1       1.662   7.541  20.384  0.00  0.00    +0.000 C 
ATOM      4  N   UNL     1       3.400   5.956  19.768  0.00  0.00    +0.000 NA
ATOM      5  C   UNL     1       4.171   5.669  18.741  0.00  0.00    +0.000 A 
ATOM      6  C   UNL     1       5.121   4.615  18.522  0.00  0.00    +0.000 A 
ATOM      7  C   UNL     1       5.816   4.583  17.366  0.00  0.00    +0.000 A 
ATOM      8  C   UNL     1       5.603   5.566  16.316  0.00  0.00    +0.000 A 
ATOM      9  C   UNL     1       4.684   6.527  16.503  0.00  0.00    +0.000 A 
ATOM     10  N   UNL     1       3.976   6.575  17.706  0.00  0.00    +0.000 N 
ENDROOT
BRANCH   1  12
ATOM     11  C   UNL     1       1.631   9.344  17.804  0.00  0.00    +0.000 C 
ATOM     12  O   UNL     1       2.646   8.477  17.318  0.00  0.00    +0.000 OA
ENDBRANCH   1  12
BRANCH   6  13
ATOM     13  O   UNL     1       5.324   3.630  19.474  0.00  0.00    +0.000 OA
BRANCH  13  14
ATOM     14  C   UNL     1       4.617   2.401  19.268  0.00  0.00    +0.000 C 
BRANCH  14  15
ATOM     15  C   UNL     1       3.140   2.571  19.533  0.00  0.00    +0.000 A 
ATOM     16  C   UNL     1       2.188   2.459  18.512  0.00  0.00    +0.000 A 
ATOM     17  C   UNL     1       0.830   2.614  18.796  0.00  0.00    +0.000 A 
ATOM     18  C   UNL     1       0.415   2.863  20.103  0.00  0.00    +0.000 A 
ATOM     19  C   UNL     1       1.349   2.946  21.131  0.00  0.00    +0.000 A 
ATOM     20  C   UNL     1       2.704   2.792  20.849  0.00  0.00    +0.000 A 
ENDBRANCH  14  15
ENDBRANCH  13  14
ENDBRANCH   6  13
TORSDOF 4
ENDMDL
MODEL 6
REMARK VINA RESULT:      -6.9      2.752      4.589
REMARK  Name = 
REMARK  6 active torsions:
REMARK  status: ('A' for Active; 'I' for Inactive)
REMARK    1  A    between atoms: C_1  and  O_2
REMARK    2  A    between atoms: O_2  and  C_3
REMARK    3  A    between atoms: C_4  and  C_5
REMARK    4  A    between atoms: C_8  and  O_9
REMARK    5  A    between atoms: O_9  and  C_10
REMARK    6  A    between atoms: C_10  and  C_11
REMARK                            x       y       z     vdW  Elec       q    Type
REMARK                         _______ _______ _______ _____ _____    ______ ____
ROOT
ATOM      1  C   UNL     1       3.001   7.513  18.146  0.00  0.00    +0.000 A 
ATOM      2  C   UNL     1       2.654   7.078  19.420  0.00  0.00    +0.000 A 
ATOM      3  C   UNL     1       1.664   7.563  20.408  0.00  0.00    +0.000 C 
ATOM      4  N   UNL     1       3.395   5.977  19.773  0.00  0.00    +0.000 NA
ATOM      5  C   UNL     1       4.159   5.695  18.739  0.00  0.00    +0.000 A 
ATOM      6  C   UNL     1       5.105   4.640  18.507  0.00  0.00    +0.000 A 
ATOM      7  C   UNL     1       5.793   4.614  17.348  0.00  0.00    +0.000 A 
ATOM      8  C   UNL     1       5.577   5.605  16.305  0.00  0.00    +0.000 A 
ATOM      9  C   UNL     1       4.661   6.566  16.503  0.00  0.00    +0.000 A 
ATOM     10  N   UNL     1       3.961   6.609  17.711  0.00  0.00    +0.000 N 
ENDROOT
BRANCH   1  12
ATOM     11  C   UNL     1       1.532   9.300  17.780  0.00  0.00    +0.000 C 
ATOM     12  O   UNL     1       2.634   8.517  17.343  0.00  0.00    +0.000 OA
ENDBRANCH   1  12
BRANCH   6  13
ATOM     13  O   UNL     1       5.311   3.648  19.451  0.00  0.00    +0.000 OA
BRANCH  13  14
ATOM     14  C   UNL     1       4.605   2.420  19.237  0.00  0.00    +0.000 C 
BRANCH  14  15
ATOM     15  C   UNL     1       3.142   2.564  19.584  0.00  0.00    +0.000 A 
ATOM     16  C   UNL     1       2.716   2.808  20.896  0.00  0.00    +0.000 A 
ATOM     17  C   UNL     1       1.355   2.944  21.179  0.00  0.00    +0.000 A 
ATOM     18  C   UNL     1       0.417   2.856  20.152  0.00  0.00    +0.000 A 
ATOM     19  C   UNL     1       0.831   2.644  18.841  0.00  0.00    +0.000 A 
ATOM     20  C   UNL     1       2.187   2.507  18.558  0.00  0.00    +0.000 A 
ENDBRANCH  14  15
ENDBRANCH  13  14
ENDBRANCH   6  13
TORSDOF 4
ENDMDL
MODEL 7
REMARK VINA RESULT:      -6.9      5.268      7.407
REMARK  Name = 
REMARK  6 active torsions:
REMARK  status: ('A' for Active; 'I' for Inactive)
REMARK    1  A    between atoms: C_1  and  O_2
REMARK    2  A    between atoms: O_2  and  C_3
REMARK    3  A    between atoms: C_4  and  C_5
REMARK    4  A    between atoms: C_8  and  O_9
REMARK    5  A    between atoms: O_9  and  C_10
REMARK    6  A    between atoms: C_10  and  C_11
REMARK                            x       y       z     vdW  Elec       q    Type
REMARK                         _______ _______ _______ _____ _____    ______ ____
ROOT
ATOM      1  C   UNL     1       0.399  10.275  20.478  0.00  0.00    +0.000 A 
ATOM      2  C   UNL     1       0.328   9.635  21.710  0.00  0.00    +0.000 A 
ATOM      3  C   UNL     1      -0.320   9.998  22.990  0.00  0.00    +0.000 C 
ATOM      4  N   UNL     1       0.994   8.435  21.670  0.00  0.00    +0.000 NA
ATOM      5  C   UNL     1       1.439   8.296  20.439  0.00  0.00    +0.000 A 
ATOM      6  C   UNL     1       2.163   7.236  19.797  0.00  0.00    +0.000 A 
ATOM      7  C   UNL     1       2.535   7.377  18.508  0.00  0.00    +0.000 A 
ATOM      8  C   UNL     1       2.188   8.559  17.735  0.00  0.00    +0.000 A 
ATOM      9  C   UNL     1       1.474   9.532  18.322  0.00  0.00    +0.000 A 
ATOM     10  N   UNL     1       1.105   9.399  19.663  0.00  0.00    +0.000 N 
ENDROOT
BRANCH   1  12
ATOM     11  C   UNL     1       0.620  12.607  20.448  0.00  0.00    +0.000 C 
ATOM     12  O   UNL     1      -0.032  11.436  19.974  0.00  0.00    +0.000 OA
ENDBRANCH   1  12
BRANCH   6  13
ATOM     13  O   UNL     1       2.475   6.072  20.479  0.00  0.00    +0.000 OA
BRANCH  13  14
ATOM     14  C   UNL     1       1.581   4.969  20.281  0.00  0.00    +0.000 C 
BRANCH  14  15
ATOM     15  C   UNL     1       2.262   3.840  19.545  0.00  0.00    +0.000 A 
ATOM     16  C   UNL     1       3.326   3.127  20.110  0.00  0.00    +0.000 A 
ATOM     17  C   UNL     1       3.927   2.083  19.404  0.00  0.00    +0.000 A 
ATOM     18  C   UNL     1       3.455   1.735  18.139  0.00  0.00    +0.000 A 
ATOM     19  C   UNL     1       2.379   2.416  17.581  0.00  0.00    +0.000 A 
ATOM     20  C   UNL     1       1.780   3.458  18.284  0.00  0.00    +0.000 A 
ENDBRANCH  14  15
ENDBRANCH  13  14
ENDBRANCH   6  13
TORSDOF 4
ENDMDL
MODEL 8
REMARK VINA RESULT:      -6.8      3.335      6.727
REMARK  Name = 
REMARK  6 active torsions:
REMARK  status: ('A' for Active; 'I' for Inactive)
REMARK    1  A    between atoms: C_1  and  O_2
REMARK    2  A    between atoms: O_2  and  C_3
REMARK    3  A    between atoms: C_4  and  C_5
REMARK    4  A    between atoms: C_8  and  O_9
REMARK    5  A    between atoms: O_9  and  C_10
REMARK    6  A    between atoms: C_10  and  C_11
REMARK                            x       y       z     vdW  Elec       q    Type
REMARK                         _______ _______ _______ _____ _____    ______ ____
ROOT
ATOM      1  C   UNL     1       1.870   7.661  20.027  0.00  0.00    +0.000 A 
ATOM      2  C   UNL     1       2.118   8.201  18.771  0.00  0.00    +0.000 A 
ATOM      3  C   UNL     1       1.982   9.570  18.225  0.00  0.00    +0.000 C 
ATOM      4  N   UNL     1       2.591   7.237  17.915  0.00  0.00    +0.000 NA
ATOM      5  C   UNL     1       2.681   6.127  18.617  0.00  0.00    +0.000 A 
ATOM      6  C   UNL     1       3.146   4.813  18.275  0.00  0.00    +0.000 A 
ATOM      7  C   UNL     1       3.088   3.831  19.198  0.00  0.00    +0.000 A 
ATOM      8  C   UNL     1       2.603   4.075  20.547  0.00  0.00    +0.000 A 
ATOM      9  C   UNL     1       2.209   5.314  20.881  0.00  0.00    +0.000 A 
ATOM     10  N   UNL     1       2.248   6.329  19.922  0.00  0.00    +0.000 N 
ENDROOT
BRANCH   1  12
ATOM     11  C   UNL     1       0.038   8.537  21.194  0.00  0.00    +0.000 C 
ATOM     12  O   UNL     1       1.396   8.118  21.190  0.00  0.00    +0.000 OA
ENDBRANCH   1  12
BRANCH   6  13
ATOM     13  O   UNL     1       3.659   4.544  17.017  0.00  0.00    +0.000 OA
BRANCH  13  14
ATOM     14  C   UNL     1       4.998   4.034  16.981  0.00  0.00    +0.000 C 
BRANCH  14  15
ATOM     15  C   UNL     1       5.994   5.088  17.401  0.00  0.00    +0.000 A 
ATOM     16  C   UNL     1       6.047   6.343  16.781  0.00  0.00    +0.000 A 
ATOM     17  C   UNL     1       6.976   7.296  17.201  0.00  0.00    +0.000 A 
ATOM     18  C   UNL     1       7.844   7.008  18.254  0.00  0.00    +0.000 A 
ATOM     19  C   UNL     1       7.780   5.776  18.897  0.00  0.00    +0.000 A 
ATOM     20  C   UNL     1       6.854   4.825  18.478  0.00  0.00    +0.000 A 
ENDBRANCH  14  15
ENDBRANCH  13  14
ENDBRANCH   6  13
TORSDOF 4
ENDMDL
MODEL 9
REMARK VINA RESULT:      -6.8      5.682      7.865
REMARK  Name = 
REMARK  6 active torsions:
REMARK  status: ('A' for Active; 'I' for Inactive)
REMARK    1  A    between atoms: C_1  and  O_2
REMARK    2  A    between atoms: O_2  and  C_3
REMARK    3  A    between atoms: C_4  and  C_5
REMARK    4  A    between atoms: C_8  and  O_9
REMARK    5  A    between atoms: O_9  and  C_10
REMARK    6  A    between atoms: C_10  and  C_11
REMARK                            x       y       z     vdW  Elec       q    Type
REMARK                         _______ _______ _______ _____ _____    ______ ____
ROOT
ATOM      1  C   UNL     1      -0.169  10.378  21.019  0.00  0.00    +0.000 A 
ATOM      2  C   UNL     1       0.267   9.589  22.077  0.00  0.00    +0.000 A 
ATOM      3  C   UNL     1      -0.068   9.576  23.519  0.00  0.00    +0.000 C 
ATOM      4  N   UNL     1       1.172   8.653  21.641  0.00  0.00    +0.000 NA
ATOM      5  C   UNL     1       1.275   8.813  20.339  0.00  0.00    +0.000 A 
ATOM      6  C   UNL     1       2.031   8.105  19.345  0.00  0.00    +0.000 A 
ATOM      7  C   UNL     1       1.982   8.516  18.061  0.00  0.00    +0.000 A 
ATOM      8  C   UNL     1       1.152   9.636  17.647  0.00  0.00    +0.000 A 
ATOM      9  C   UNL     1       0.411  10.271  18.569  0.00  0.00    +0.000 A 
ATOM     10  N   UNL     1       0.476   9.862  19.903  0.00  0.00    +0.000 N 
ENDROOT
BRANCH   1  12
ATOM     11  C   UNL     1      -0.483  12.687  21.254  0.00  0.00    +0.000 C 
ATOM     12  O   UNL     1      -0.997  11.417  20.876  0.00  0.00    +0.000 OA
ENDBRANCH   1  12
BRANCH   6  13
ATOM     13  O   UNL     1       2.800   7.004  19.685  0.00  0.00    +0.000 OA
BRANCH  13  14
ATOM     14  C   UNL     1       2.919   5.987  18.682  0.00  0.00    +0.000 C 
BRANCH  14  15
ATOM     15  C   UNL     1       2.153   4.745  19.071  0.00  0.00    +0.000 A 
ATOM     16  C   UNL     1       1.773   3.785  18.124  0.00  0.00    +0.000 A 
ATOM     17  C   UNL     1       1.073   2.644  18.521  0.00  0.00    +0.000 A 
ATOM     18  C   UNL     1       0.764   2.449  19.866  0.00  0.00    +0.000 A 
ATOM     19  C   UNL     1       1.162   3.380  20.819  0.00  0.00    +0.000 A 
ATOM     20  C   UNL     1       1.861   4.518  20.424  0.00  0.00    +0.000 A 
ENDBRANCH  14  15
ENDBRANCH  13  14
ENDBRANCH   6  13
TORSDOF 4
ENDMDL
