MODEL 1
REMARK VINA RESULT:      -7.0      0.000      0.000
REMARK  Name = 
REMARK  7 active torsions:
REMARK  status: ('A' for Active; 'I' for Inactive)
REMARK    1  A    between atoms: C_2  and  C_3
REMARK    2  A    between atoms: C_6  and  O_7
REMARK    3  A    between atoms: O_7  and  C_8
REMARK    4  A    between atoms: N_11  and  C_12
REMARK    5  A    between atoms: C_12  and  C_13
REMARK    6  A    between atoms: N_15  and  C_16
REMARK    7  A    between atoms: C_16  and  C_17
REMARK                            x       y       z     vdW  Elec       q    Type
REMARK                         _______ _______ _______ _____ _____    ______ ____
ROOT
ATOM      1  C   UNL     1       3.531   5.162  18.486  0.00  0.00    +0.000 C 
ATOM      2  C   UNL     1       4.929   5.537  18.989  0.00  0.00    +0.000 C 
ATOM      3  C   UNL     1       6.013   5.491  17.914  0.00  0.00    +0.000 C 
ATOM      4  N   UNL     1       6.019   4.231  17.168  0.00  0.00    +0.000 NA
ATOM      5  C   UNL     1       4.708   3.924  16.583  0.00  0.00    +0.000 C 
ATOM      6  C   UNL     1       3.591   3.897  17.626  0.00  0.00    +0.000 C 
ENDROOT
BRANCH   1   7
ATOM      7  O   UNL     1       2.940   6.263  17.771  0.00  0.00    +0.000 OA
BRANCH   7  11
ATOM      8  C   UNL     1       1.239   9.198  20.246  0.00  0.00    +0.000 A 
ATOM      9  C   UNL     1       1.462   9.496  18.907  0.00  0.00    +0.000 A 
ATOM     10  C   UNL     1       2.021   8.538  18.049  0.00  0.00    +0.000 A 
ATOM     11  C   UNL     1       2.363   7.266  18.520  0.00  0.00    +0.000 A 
ATOM     12  C   UNL     1       2.129   6.970  19.868  0.00  0.00    +0.000 A 
ATOM     13  C   UNL     1       1.570   7.929  20.729  0.00  0.00    +0.000 A 
BRANCH   8  15
ATOM     14  N   UNL     1       0.240  11.008  21.814  0.00  0.00    +0.000 NA
ATOM     15  C   UNL     1       0.688  10.197  21.122  0.00  0.00    +0.000 C 
ENDBRANCH   8  15
ENDBRANCH   7  11
ENDBRANCH   1   7
BRANCH   4  16
ATOM     16  C   UNL     1       7.093   4.197  16.140  0.00  0.00    +0.000 C 
BRANCH  16  17
ATOM     17  C   UNL     1       6.625   4.608  14.729  0.00  0.00    +0.000 C 
ATOM     18  O   UNL     1       6.269   5.745  14.435  0.00  0.00    +0.000 OA
ATOM     19  N   UNL     1       6.677   3.603  13.783  0.00  0.00    +0.000 N 
ATOM     20  H   UNL     1       6.713   2.640  14.095  0.00  0.00    +0.000 HD
BRANCH  19  21
ATOM     21  C   UNL     1       6.296   3.881  12.396  0.00  0.00    +0.000 C 
BRANCH  21  22
ATOM     22  C   UNL     1       5.008   3.217  11.890  0.00  0.00    +0.000 C 
ATOM     23  F   UNL     1       5.214   1.946  11.477  0.00  0.00    +0.000 F 
ATOM     24  F   UNL     1       4.038   3.206  12.826  0.00  0.00    +0.000 F 
ATOM     25  F   UNL     1       4.527   3.902  10.821  0.00  0.00    +0.000 F 
ENDBRANCH  21  22
ENDBRANCH  19  21
ENDBRANCH  16  17
ENDBRANCH   4  16
TORSDOF 7
ENDMDL
MODEL 2
REMARK VINA RESULT:      -7.0      1.390      2.188
REMARK  Name = 
REMARK  7 active torsions:
REMARK  status: ('A' for Active; 'I' for Inactive)
REMARK    1  A    between atoms: C_2  and  C_3
REMARK    2  A    between atoms: C_6  and  O_7
REMARK    3  A    between atoms: O_7  and  C_8
REMARK    4  A    between atoms: N_11  and  C_12
REMARK    5  A    between atoms: C_12  and  C_13
REMARK    6  A    between atoms: N_15  and  C_16
REMARK    7  A    between atoms: C_16  and  C_17
REMARK                            x       y       z     vdW  Elec       q    Type
REMARK                         _______ _______ _______ _____ _____    ______ ____
ROOT
ATOM      1  C   UNL     1       2.185   6.934  18.342  0.00  0.00    +0.000 C 
ATOM      2  C   UNL     1       2.187   5.411  18.182  0.00  0.00    +0.000 C 
ATOM      3  C   UNL     1       3.580   4.784  18.183  0.00  0.00    +0.000 C 
ATOM      4  N   UNL     1       4.496   5.435  17.244  0.00  0.00    +0.000 NA
ATOM      5  C   UNL     1       4.588   6.882  17.469  0.00  0.00    +0.000 C 
ATOM      6  C   UNL     1       3.226   7.573  17.418  0.00  0.00    +0.000 C 
ENDROOT
BRANCH   1   7
ATOM      7  O   UNL     1       2.403   7.298  19.718  0.00  0.00    +0.000 OA
BRANCH   7  11
ATOM      8  C   UNL     1      -0.037  10.178  21.559  0.00  0.00    +0.000 A 
ATOM      9  C   UNL     1       0.233  10.296  20.200  0.00  0.00    +0.000 A 
ATOM     10  C   UNL     1       1.037   9.349  19.551  0.00  0.00    +0.000 A 
ATOM     11  C   UNL     1       1.582   8.268  20.252  0.00  0.00    +0.000 A 
ATOM     12  C   UNL     1       1.300   8.151  21.618  0.00  0.00    +0.000 A 
ATOM     13  C   UNL     1       0.495   9.100  22.271  0.00  0.00    +0.000 A 
BRANCH   8  15
ATOM     14  N   UNL     1      -1.502  11.964  22.742  0.00  0.00    +0.000 NA
ATOM     15  C   UNL     1      -0.843  11.171  22.219  0.00  0.00    +0.000 C 
ENDBRANCH   8  15
ENDBRANCH   7  11
ENDBRANCH   1   7
BRANCH   4  16
ATOM     16  C   UNL     1       5.840   4.799  17.245  0.00  0.00    +0.000 C 
BRANCH  16  17
ATOM     17  C   UNL     1       6.568   4.868  15.888  0.00  0.00    +0.000 C 
ATOM     18  O   UNL     1       7.497   5.636  15.652  0.00  0.00    +0.000 OA
ATOM     19  N   UNL     1       6.133   3.957  14.946  0.00  0.00    +0.000 N 
ATOM     20  H   UNL     1       5.220   3.533  15.063  0.00  0.00    +0.000 HD
BRANCH  19  21
ATOM     21  C   UNL     1       6.774   3.896  13.631  0.00  0.00    +0.000 C 
BRANCH  21  22
ATOM     22  C   UNL     1       5.880   3.507  12.446  0.00  0.00    +0.000 C 
ATOM     23  F   UNL     1       6.186   4.197  11.324  0.00  0.00    +0.000 F 
ATOM     24  F   UNL     1       5.952   2.189  12.164  0.00  0.00    +0.000 F 
ATOM     25  F   UNL     1       4.584   3.786  12.736  0.00  0.00    +0.000 F 
ENDBRANCH  21  22
ENDBRANCH  19  21
ENDBRANCH  16  17
ENDBRANCH   4  16
TORSDOF 7
ENDMDL
MODEL 3
REMARK VINA RESULT:      -7.0      0.308      1.278
REMARK  Name = 
REMARK  7 active torsions:
REMARK  status: ('A' for Active; 'I' for Inactive)
REMARK    1  A    between atoms: C_2  and  C_3
REMARK    2  A    between atoms: C_6  and  O_7
REMARK    3  A    between atoms: O_7  and  C_8
REMARK    4  A    between atoms: N_11  and  C_12
REMARK    5  A    between atoms: C_12  and  C_13
REMARK    6  A    between atoms: N_15  and  C_16
REMARK    7  A    between atoms: C_16  and  C_17
REMARK                            x       y       z     vdW  Elec       q    Type
REMARK                         _______ _______ _______ _____ _____    ______ ____
ROOT
ATOM      1  C   UNL     1       3.544   4.742  18.585  0.00  0.00    +0.000 C 
ATOM      2  C   UNL     1       4.884   5.294  19.081  0.00  0.00    +0.000 C 
ATOM      3  C   UNL     1       5.939   5.450  17.988  0.00  0.00    +0.000 C 
ATOM      4  N   UNL     1       6.110   4.236  17.186  0.00  0.00    +0.000 NA
ATOM      5  C   UNL     1       4.844   3.768  16.610  0.00  0.00    +0.000 C 
ATOM      6  C   UNL     1       3.766   3.535  17.668  0.00  0.00    +0.000 C 
ENDROOT
BRANCH   1   7
ATOM      7  O   UNL     1       2.784   5.774  17.929  0.00  0.00    +0.000 OA
BRANCH   7  11
ATOM      8  C   UNL     1       1.360   9.069  20.108  0.00  0.00    +0.000 A 
ATOM      9  C   UNL     1       1.538   7.856  20.764  0.00  0.00    +0.000 A 
ATOM     10  C   UNL     1       2.020   6.738  20.070  0.00  0.00    +0.000 A 
ATOM     11  C   UNL     1       2.331   6.816  18.709  0.00  0.00    +0.000 A 
ATOM     12  C   UNL     1       2.156   8.042  18.056  0.00  0.00    +0.000 A 
ATOM     13  C   UNL     1       1.673   9.164  18.749  0.00  0.00    +0.000 A 
BRANCH   8  15
ATOM     14  N   UNL     1       0.422  11.123  21.387  0.00  0.00    +0.000 NA
ATOM     15  C   UNL     1       0.841  10.204  20.825  0.00  0.00    +0.000 C 
ENDBRANCH   8  15
ENDBRANCH   7  11
ENDBRANCH   1   7
BRANCH   4  16
ATOM     16  C   UNL     1       7.154   4.401  16.139  0.00  0.00    +0.000 C 
BRANCH  16  17
ATOM     17  C   UNL     1       6.595   4.737  14.743  0.00  0.00    +0.000 C 
ATOM     18  O   UNL     1       6.030   5.793  14.471  0.00  0.00    +0.000 OA
ATOM     19  N   UNL     1       6.816   3.773  13.780  0.00  0.00    +0.000 N 
ATOM     20  H   UNL     1       7.034   2.829  14.075  0.00  0.00    +0.000 HD
BRANCH  19  21
ATOM     21  C   UNL     1       6.368   3.994  12.402  0.00  0.00    +0.000 C 
BRANCH  21  22
ATOM     22  C   UNL     1       5.089   3.264  11.969  0.00  0.00    +0.000 C 
ATOM     23  F   UNL     1       4.491   3.861  10.913  0.00  0.00    +0.000 F 
ATOM     24  F   UNL     1       5.321   1.974  11.650  0.00  0.00    +0.000 F 
ATOM     25  F   UNL     1       4.188   3.270  12.984  0.00  0.00    +0.000 F 
ENDBRANCH  21  22
ENDBRANCH  19  21
ENDBRANCH  16  17
ENDBRANCH   4  16
TORSDOF 7
ENDMDL
MODEL 4
REMARK VINA RESULT:      -6.9      5.546      7.128
REMARK  Name = 
REMARK  7 active torsions:
REMARK  status: ('A' for Active; 'I' for Inactive)
REMARK    1  A    between atoms: C_2  and  C_3
REMARK    2  A    between atoms: C_6  and  O_7
REMARK    3  A    between atoms: O_7  and  C_8
REMARK    4  A    between atoms: N_11  and  C_12
REMARK    5  A    between atoms: C_12  and  C_13
REMARK    6  A    between atoms: N_15  and  C_16
REMARK    7  A    between atoms: C_16  and  C_17
REMARK                            x       y       z     vdW  Elec       q    Type
REMARK                         _______ _______ _______ _____ _____    ______ ____
ROOT
ATOM      1  C   UNL     1       4.778   5.035  16.034  0.00  0.00    +0.000 C 
ATOM      2  C   UNL     1       6.074   5.358  15.283  0.00  0.00    +0.000 C 
ATOM      3  C   UNL     1       7.235   5.769  16.186  0.00  0.00    +0.000 C 
ATOM      4  N   UNL     1       6.872   6.827  17.131  0.00  0.00    +0.000 NA
ATOM      5  C   UNL     1       5.698   6.472  17.938  0.00  0.00    +0.000 C 
ATOM      6  C   UNL     1       4.484   6.110  17.084  0.00  0.00    +0.000 C 
ENDROOT
BRANCH   1   7
ATOM      7  O   UNL     1       4.850   3.723  16.624  0.00  0.00    +0.000 OA
BRANCH   7  11
ATOM      8  C   UNL     1       2.507   2.961  20.024  0.00  0.00    +0.000 A 
ATOM      9  C   UNL     1       1.871   3.237  18.819  0.00  0.00    +0.000 A 
ATOM     10  C   UNL     1       2.622   3.489  17.662  0.00  0.00    +0.000 A 
ATOM     11  C   UNL     1       4.020   3.466  17.693  0.00  0.00    +0.000 A 
ATOM     12  C   UNL     1       4.653   3.180  18.909  0.00  0.00    +0.000 A 
ATOM     13  C   UNL     1       3.903   2.929  20.069  0.00  0.00    +0.000 A 
BRANCH   8  15
ATOM     14  N   UNL     1       1.094   2.531  22.158  0.00  0.00    +0.000 NA
ATOM     15  C   UNL     1       1.726   2.730  21.211  0.00  0.00    +0.000 C 
ENDBRANCH   8  15
ENDBRANCH   7  11
ENDBRANCH   1   7
BRANCH   4  16
ATOM     16  C   UNL     1       8.019   7.227  17.989  0.00  0.00    +0.000 C 
BRANCH  16  17
ATOM     17  C   UNL     1       8.153   8.750  18.187  0.00  0.00    +0.000 C 
ATOM     18  O   UNL     1       7.479   9.577  17.581  0.00  0.00    +0.000 OA
ATOM     19  N   UNL     1       9.069   9.133  19.148  0.00  0.00    +0.000 N 
ATOM     20  H   UNL     1       9.782   8.473  19.433  0.00  0.00    +0.000 HD
BRANCH  19  21
ATOM     21  C   UNL     1       9.257  10.552  19.458  0.00  0.00    +0.000 C 
BRANCH  21  22
ATOM     22  C   UNL     1      10.346  11.291  18.667  0.00  0.00    +0.000 C 
ATOM     23  F   UNL     1      11.574  11.124  19.208  0.00  0.00    +0.000 F 
ATOM     24  F   UNL     1      10.394  10.899  17.377  0.00  0.00    +0.000 F 
ATOM     25  F   UNL     1      10.094  12.625  18.673  0.00  0.00    +0.000 F 
ENDBRANCH  21  22
ENDBRANCH  19  21
ENDBRANCH  16  17
ENDBRANCH   4  16
TORSDOF 7
ENDMDL
MODEL 5
REMARK VINA RESULT:      -6.8      3.336      4.076
REMARK  Name = 
REMARK  7 active torsions:
REMARK  status: ('A' for Active; 'I' for Inactive)
REMARK    1  A    between atoms: C_2  and  C_3
REMARK    2  A    between atoms: C_6  and  O_7
REMARK    3  A    between atoms: O_7  and  C_8
REMARK    4  A    between atoms: N_11  and  C_12
REMARK    5  A    between atoms: C_12  and  C_13
REMARK    6  A    between atoms: N_15  and  C_16
REMARK    7  A    between atoms: C_16  and  C_17
REMARK                            x       y       z     vdW  Elec       q    Type
REMARK                         _______ _______ _______ _____ _____    ______ ____
ROOT
ATOM      1  C   UNL     1       1.998   5.260  19.942  0.00  0.00    +0.000 C 
ATOM      2  C   UNL     1       2.847   4.117  20.506  0.00  0.00    +0.000 C 
ATOM      3  C   UNL     1       3.897   3.580  19.534  0.00  0.00    +0.000 C 
ATOM      4  N   UNL     1       3.339   3.252  18.220  0.00  0.00    +0.000 NA
ATOM      5  C   UNL     1       2.622   4.385  17.622  0.00  0.00    +0.000 C 
ATOM      6  C   UNL     1       1.516   4.926  18.527  0.00  0.00    +0.000 C 
ENDROOT
BRANCH   1   7
ATOM      7  O   UNL     1       2.733   6.498  19.974  0.00  0.00    +0.000 OA
BRANCH   7  11
ATOM      8  C   UNL     1       0.610  10.010  19.085  0.00  0.00    +0.000 A 
ATOM      9  C   UNL     1       0.501   9.464  20.358  0.00  0.00    +0.000 A 
ATOM     10  C   UNL     1       1.201   8.296  20.693  0.00  0.00    +0.000 A 
ATOM     11  C   UNL     1       2.023   7.660  19.757  0.00  0.00    +0.000 A 
ATOM     12  C   UNL     1       2.135   8.220  18.479  0.00  0.00    +0.000 A 
ATOM     13  C   UNL     1       1.433   9.389  18.142  0.00  0.00    +0.000 A 
BRANCH   8  15
ATOM     14  N   UNL     1      -0.723  12.154  18.483  0.00  0.00    +0.000 NA
ATOM     15  C   UNL     1      -0.133  11.195  18.746  0.00  0.00    +0.000 C 
ENDBRANCH   8  15
ENDBRANCH   7  11
ENDBRANCH   1   7
BRANCH   4  16
ATOM     16  C   UNL     1       4.371   2.713  17.295  0.00  0.00    +0.000 C 
BRANCH  16  17
ATOM     17  C   UNL     1       5.258   3.795  16.646  0.00  0.00    +0.000 C 
ATOM     18  O   UNL     1       5.013   4.316  15.562  0.00  0.00    +0.000 OA
ATOM     19  N   UNL     1       6.346   4.185  17.402  0.00  0.00    +0.000 N 
ATOM     20  H   UNL     1       6.671   3.575  18.142  0.00  0.00    +0.000 HD
BRANCH  19  21
ATOM     21  C   UNL     1       7.242   5.236  16.912  0.00  0.00    +0.000 C 
BRANCH  21  22
ATOM     22  C   UNL     1       7.205   6.576  17.659  0.00  0.00    +0.000 C 
ATOM     23  F   UNL     1       7.536   6.445  18.964  0.00  0.00    +0.000 F 
ATOM     24  F   UNL     1       8.025   7.492  17.104  0.00  0.00    +0.000 F 
ATOM     25  F   UNL     1       5.948   7.088  17.625  0.00  0.00    +0.000 F 
ENDBRANCH  21  22
ENDBRANCH  19  21
ENDBRANCH  16  17
ENDBRANCH   4  16
TORSDOF 7
ENDMDL
MODEL 6
REMARK VINA RESULT:      -6.8      2.193      3.334
REMARK  Name = 
REMARK  7 active torsions:
REMARK  status: ('A' for Active; 'I' for Inactive)
REMARK    1  A    between atoms: C_2  and  C_3
REMARK    2  A    between atoms: C_6  and  O_7
REMARK    3  A    between atoms: O_7  and  C_8
REMARK    4  A    between atoms: N_11  and  C_12
REMARK    5  A    between atoms: C_12  and  C_13
REMARK    6  A    between atoms: N_15  and  C_16
REMARK    7  A    between atoms: C_16  and  C_17
REMARK                            x       y       z     vdW  Elec       q    Type
REMARK                         _______ _______ _______ _____ _____    ______ ____
ROOT
ATOM      1  C   UNL     1       1.712   6.837  19.476  0.00  0.00    +0.000 C 
ATOM      2  C   UNL     1       1.594   5.469  20.155  0.00  0.00    +0.000 C 
ATOM      3  C   UNL     1       2.926   4.744  20.337  0.00  0.00    +0.000 C 
ATOM      4  N   UNL     1       3.709   4.677  19.101  0.00  0.00    +0.000 NA
ATOM      5  C   UNL     1       3.926   6.002  18.507  0.00  0.00    +0.000 C 
ATOM      6  C   UNL     1       2.620   6.751  18.246  0.00  0.00    +0.000 C 
ENDROOT
BRANCH   1   7
ATOM      7  O   UNL     1       2.180   7.827  20.412  0.00  0.00    +0.000 OA
BRANCH   7  11
ATOM      8  C   UNL     1      -0.561  10.491  22.150  0.00  0.00    +0.000 A 
ATOM      9  C   UNL     1      -0.439  10.462  20.765  0.00  0.00    +0.000 A 
ATOM     10  C   UNL     1       0.460   9.579  20.151  0.00  0.00    +0.000 A 
ATOM     11  C   UNL     1       1.250   8.712  20.913  0.00  0.00    +0.000 A 
ATOM     12  C   UNL     1       1.116   8.741  22.306  0.00  0.00    +0.000 A 
ATOM     13  C   UNL     1       0.216   9.625  22.924  0.00  0.00    +0.000 A 
BRANCH   8  15
ATOM     14  N   UNL     1      -2.192  12.175  23.263  0.00  0.00    +0.000 NA
ATOM     15  C   UNL     1      -1.470  11.418  22.771  0.00  0.00    +0.000 C 
ENDBRANCH   8  15
ENDBRANCH   7  11
ENDBRANCH   1   7
BRANCH   4  16
ATOM     16  C   UNL     1       4.993   3.952  19.293  0.00  0.00    +0.000 C 
BRANCH  16  17
ATOM     17  C   UNL     1       6.104   4.370  18.309  0.00  0.00    +0.000 C 
ATOM     18  O   UNL     1       7.109   4.991  18.641  0.00  0.00    +0.000 OA
ATOM     19  N   UNL     1       5.915   3.952  17.006  0.00  0.00    +0.000 N 
ATOM     20  H   UNL     1       4.983   3.687  16.709  0.00  0.00    +0.000 HD
BRANCH  19  21
ATOM     21  C   UNL     1       6.921   4.253  15.985  0.00  0.00    +0.000 C 
BRANCH  21  22
ATOM     22  C   UNL     1       6.398   4.685  14.608  0.00  0.00    +0.000 C 
ATOM     23  F   UNL     1       5.887   3.648  13.906  0.00  0.00    +0.000 F 
ATOM     24  F   UNL     1       5.452   5.641  14.699  0.00  0.00    +0.000 F 
ATOM     25  F   UNL     1       7.415   5.195  13.868  0.00  0.00    +0.000 F 
ENDBRANCH  21  22
ENDBRANCH  19  21
ENDBRANCH  16  17
ENDBRANCH   4  16
TORSDOF 7
ENDMDL
MODEL 7
REMARK VINA RESULT:      -6.8      5.916      7.353
REMARK  Name = 
REMARK  7 active torsions:
REMARK  status: ('A' for Active; 'I' for Inactive)
REMARK    1  A    between atoms: C_2  and  C_3
REMARK    2  A    between atoms: C_6  and  O_7
REMARK    3  A    between atoms: O_7  and  C_8
REMARK    4  A    between atoms: N_11  and  C_12
REMARK    5  A    between atoms: C_12  and  C_13
REMARK    6  A    between atoms: N_15  and  C_16
REMARK    7  A    between atoms: C_16  and  C_17
REMARK                            x       y       z     vdW  Elec       q    Type
REMARK                         _______ _______ _______ _____ _____    ______ ____
ROOT
ATOM      1  C   UNL     1       4.792   4.710  16.106  0.00  0.00    +0.000 C 
ATOM      2  C   UNL     1       6.127   5.040  15.431  0.00  0.00    +0.000 C 
ATOM      3  C   UNL     1       7.211   5.523  16.393  0.00  0.00    +0.000 C 
ATOM      4  N   UNL     1       6.755   6.609  17.264  0.00  0.00    +0.000 NA
ATOM      5  C   UNL     1       5.538   6.253  18.004  0.00  0.00    +0.000 C 
ATOM      6  C   UNL     1       4.396   5.819  17.085  0.00  0.00    +0.000 C 
ENDROOT
BRANCH   1   7
ATOM      7  O   UNL     1       4.858   3.427  16.756  0.00  0.00    +0.000 OA
BRANCH   7  11
ATOM      8  C   UNL     1       2.471   2.812  20.156  0.00  0.00    +0.000 A 
ATOM      9  C   UNL     1       1.851   3.058  18.936  0.00  0.00    +0.000 A 
ATOM     10  C   UNL     1       2.616   3.260  17.779  0.00  0.00    +0.000 A 
ATOM     11  C   UNL     1       4.014   3.217  17.826  0.00  0.00    +0.000 A 
ATOM     12  C   UNL     1       4.631   2.962  19.055  0.00  0.00    +0.000 A 
ATOM     13  C   UNL     1       3.867   2.760  20.216  0.00  0.00    +0.000 A 
BRANCH   8  15
ATOM     14  N   UNL     1       1.039   2.500  22.298  0.00  0.00    +0.000 NA
ATOM     15  C   UNL     1       1.676   2.631  21.342  0.00  0.00    +0.000 C 
ENDBRANCH   8  15
ENDBRANCH   7  11
ENDBRANCH   1   7
BRANCH   4  16
ATOM     16  C   UNL     1       7.829   7.078  18.179  0.00  0.00    +0.000 C 
BRANCH  16  17
ATOM     17  C   UNL     1       8.149   8.581  18.052  0.00  0.00    +0.000 C 
ATOM     18  O   UNL     1       7.656   9.312  17.197  0.00  0.00    +0.000 OA
ATOM     19  N   UNL     1       9.009   9.076  19.012  0.00  0.00    +0.000 N 
ATOM     20  H   UNL     1       9.595   8.428  19.524  0.00  0.00    +0.000 HD
BRANCH  19  21
ATOM     21  C   UNL     1       9.357  10.499  19.022  0.00  0.00    +0.000 C 
BRANCH  21  22
ATOM     22  C   UNL     1       9.518  11.159  20.399  0.00  0.00    +0.000 C 
ATOM     23  F   UNL     1       9.019  10.394  21.396  0.00  0.00    +0.000 F 
ATOM     24  F   UNL     1      10.807  11.437  20.683  0.00  0.00    +0.000 F 
ATOM     25  F   UNL     1       8.838  12.333  20.429  0.00  0.00    +0.000 F 
ENDBRANCH  21  22
ENDBRANCH  19  21
ENDBRANCH  16  17
ENDBRANCH   4  16
TORSDOF 7
ENDMDL
MODEL 8
REMARK VINA RESULT:      -6.7      1.134      1.357
REMARK  Name = 
REMARK  7 active torsions:
REMARK  status: ('A' for Active; 'I' for Inactive)
REMARK    1  A    between atoms: C_2  and  C_3
REMARK    2  A    between atoms: C_6  and  O_7
REMARK    3  A    between atoms: O_7  and  C_8
REMARK    4  A    between atoms: N_11  and  C_12
REMARK    5  A    between atoms: C_12  and  C_13
REMARK    6  A    between atoms: N_15  and  C_16
REMARK    7  A    between atoms: C_16  and  C_17
REMARK                            x       y       z     vdW  Elec       q    Type
REMARK                         _______ _______ _______ _____ _____    ______ ____
ROOT
ATOM      1  C   UNL     1       3.502   4.966  19.058  0.00  0.00    +0.000 C 
ATOM      2  C   UNL     1       4.825   5.639  19.438  0.00  0.00    +0.000 C 
ATOM      3  C   UNL     1       5.856   5.672  18.312  0.00  0.00    +0.000 C 
ATOM      4  N   UNL     1       6.066   4.360  17.696  0.00  0.00    +0.000 NA
ATOM      5  C   UNL     1       4.812   3.762  17.222  0.00  0.00    +0.000 C 
ATOM      6  C   UNL     1       3.761   3.646  18.326  0.00  0.00    +0.000 C 
ENDROOT
BRANCH   1   7
ATOM      7  O   UNL     1       2.689   5.858  18.273  0.00  0.00    +0.000 OA
BRANCH   7  11
ATOM      8  C   UNL     1       1.188   9.153  20.400  0.00  0.00    +0.000 A 
ATOM      9  C   UNL     1       1.538   9.319  19.065  0.00  0.00    +0.000 A 
ATOM     10  C   UNL     1       2.035   8.239  18.322  0.00  0.00    +0.000 A 
ATOM     11  C   UNL     1       2.188   6.976  18.904  0.00  0.00    +0.000 A 
ATOM     12  C   UNL     1       1.827   6.814  20.247  0.00  0.00    +0.000 A 
ATOM     13  C   UNL     1       1.330   7.895  20.993  0.00  0.00    +0.000 A 
BRANCH   8  15
ATOM     14  N   UNL     1       0.319  11.186  21.760  0.00  0.00    +0.000 NA
ATOM     15  C   UNL     1       0.703  10.274  21.160  0.00  0.00    +0.000 C 
ENDBRANCH   8  15
ENDBRANCH   7  11
ENDBRANCH   1   7
BRANCH   4  16
ATOM     16  C   UNL     1       7.086   4.409  16.615  0.00  0.00    +0.000 C 
BRANCH  16  17
ATOM     17  C   UNL     1       6.502   4.676  15.213  0.00  0.00    +0.000 C 
ATOM     18  O   UNL     1       6.161   5.787  14.818  0.00  0.00    +0.000 OA
ATOM     19  N   UNL     1       6.430   3.568  14.392  0.00  0.00    +0.000 N 
ATOM     20  H   UNL     1       6.461   2.647  14.811  0.00  0.00    +0.000 HD
BRANCH  19  21
ATOM     21  C   UNL     1       5.932   3.701  13.021  0.00  0.00    +0.000 C 
BRANCH  21  22
ATOM     22  C   UNL     1       6.980   3.951  11.928  0.00  0.00    +0.000 C 
ATOM     23  F   UNL     1       7.957   4.792  12.336  0.00  0.00    +0.000 F 
ATOM     24  F   UNL     1       7.557   2.807  11.504  0.00  0.00    +0.000 F 
ATOM     25  F   UNL     1       6.393   4.527  10.849  0.00  0.00    +0.000 F 
ENDBRANCH  21  22
ENDBRANCH  19  21
ENDBRANCH  16  17
ENDBRANCH   4  16
TORSDOF 7
ENDMDL
MODEL 9
REMARK VINA RESULT:      -6.6      3.458      4.185
REMARK  Name = 
REMARK  7 active torsions:
REMARK  status: ('A' for Active; 'I' for Inactive)
REMARK    1  A    between atoms: C_2  and  C_3
REMARK    2  A    between atoms: C_6  and  O_7
REMARK    3  A    between atoms: O_7  and  C_8
REMARK    4  A    between atoms: N_11  and  C_12
REMARK    5  A    between atoms: C_12  and  C_13
REMARK    6  A    between atoms: N_15  and  C_16
REMARK    7  A    between atoms: C_16  and  C_17
REMARK                            x       y       z     vdW  Elec       q    Type
REMARK                         _______ _______ _______ _____ _____    ______ ____
ROOT
ATOM      1  C   UNL     1       2.005   4.987  19.952  0.00  0.00    +0.000 C 
ATOM      2  C   UNL     1       2.854   3.784  20.375  0.00  0.00    +0.000 C 
ATOM      3  C   UNL     1       3.907   3.369  19.348  0.00  0.00    +0.000 C 
ATOM      4  N   UNL     1       3.352   3.203  18.003  0.00  0.00    +0.000 NA
ATOM      5  C   UNL     1       2.636   4.399  17.545  0.00  0.00    +0.000 C 
ATOM      6  C   UNL     1       1.527   4.826  18.506  0.00  0.00    +0.000 C 
ENDROOT
BRANCH   1   7
ATOM      7  O   UNL     1       2.739   6.212  20.135  0.00  0.00    +0.000 OA
BRANCH   7  11
ATOM      8  C   UNL     1       0.796   9.819  19.215  0.00  0.00    +0.000 A 
ATOM      9  C   UNL     1       1.558   9.198  18.232  0.00  0.00    +0.000 A 
ATOM     10  C   UNL     1       2.214   7.988  18.501  0.00  0.00    +0.000 A 
ATOM     11  C   UNL     1       2.116   7.383  19.758  0.00  0.00    +0.000 A 
ATOM     12  C   UNL     1       1.341   8.010  20.741  0.00  0.00    +0.000 A 
ATOM     13  C   UNL     1       0.684   9.222  20.473  0.00  0.00    +0.000 A 
BRANCH   8  15
ATOM     14  N   UNL     1      -0.360  12.088  18.714  0.00  0.00    +0.000 NA
ATOM     15  C   UNL     1       0.148  11.073  18.934  0.00  0.00    +0.000 C 
ENDBRANCH   8  15
ENDBRANCH   7  11
ENDBRANCH   1   7
BRANCH   4  16
ATOM     16  C   UNL     1       4.387   2.781  17.022  0.00  0.00    +0.000 C 
BRANCH  16  17
ATOM     17  C   UNL     1       5.485   3.835  16.776  0.00  0.00    +0.000 C 
ATOM     18  O   UNL     1       5.515   4.571  15.794  0.00  0.00    +0.000 OA
ATOM     19  N   UNL     1       6.431   3.935  17.778  0.00  0.00    +0.000 N 
ATOM     20  H   UNL     1       6.540   3.163  18.425  0.00  0.00    +0.000 HD
BRANCH  19  21
ATOM     21  C   UNL     1       7.502   4.929  17.680  0.00  0.00    +0.000 C 
BRANCH  21  22
ATOM     22  C   UNL     1       7.341   6.201  18.524  0.00  0.00    +0.000 C 
ATOM     23  F   UNL     1       6.738   5.957  19.710  0.00  0.00    +0.000 F 
ATOM     24  F   UNL     1       8.522   6.806  18.766  0.00  0.00    +0.000 F 
ATOM     25  F   UNL     1       6.559   7.094  17.865  0.00  0.00    +0.000 F 
ENDBRANCH  21  22
ENDBRANCH  19  21
ENDBRANCH  16  17
ENDBRANCH   4  16
TORSDOF 7
ENDMDL
