MODEL 1
REMARK VINA RESULT:      -8.0      0.000      0.000
REMARK  Name = 
REMARK  3 active torsions:
REMARK  status: ('A' for Active; 'I' for Inactive)
REMARK    1  A    between atoms: C_2  and  C_3
REMARK    2  A    between atoms: C_18  and  C_20
REMARK    3  A    between atoms: C_20  and  C_21
REMARK                            x       y       z     vdW  Elec       q    Type
REMARK                         _______ _______ _______ _____ _____    ______ ____
ROOT
ATOM      1  O   UNL     1       2.518   5.307  21.565  0.00  0.00    +0.000 OA
ATOM      2  C   UNL     1       2.240   5.512  20.377  0.00  0.00    +0.000 C 
ATOM      3  N   UNL     1       2.228   4.488  19.414  0.00  0.00    +0.000 N 
ATOM      4  C   UNL     1       2.099   4.682  17.959  0.00  0.00    +0.000 C 
ATOM      5  C   UNL     1       3.156   3.975  17.078  0.00  0.00    +0.000 C 
ATOM      6  C   UNL     1       2.888   2.478  16.905  0.00  0.00    +0.000 C 
ATOM      7  C   UNL     1       3.453   1.644  18.050  0.00  0.00    +0.000 C 
ATOM      8  C   UNL     1       3.781   2.505  19.277  0.00  0.00    +0.000 C 
ATOM      9  C   UNL     1       2.499   3.123  19.873  0.00  0.00    +0.000 C 
ATOM     10  C   UNL     1       4.827   3.560  18.878  0.00  0.00    +0.000 C 
ATOM     11  N   UNL     1       4.515   4.198  17.591  0.00  0.00    +0.000 N 
ATOM     12  C   UNL     1       5.486   5.001  17.009  0.00  0.00    +0.000 C 
ATOM     13  O   UNL     1       6.588   5.167  17.545  0.00  0.00    +0.000 OA
ENDROOT
BRANCH   2  14
ATOM     14  C   UNL     1       1.957   6.919  19.998  0.00  0.00    +0.000 A 
ATOM     15  C   UNL     1       2.404   7.403  18.766  0.00  0.00    +0.000 A 
ATOM     16  C   UNL     1       2.089   8.707  18.387  0.00  0.00    +0.000 A 
ATOM     17  C   UNL     1       1.336   9.481  19.254  0.00  0.00    +0.000 A 
ATOM     18  N   UNL     1       0.942   9.067  20.477  0.00  0.00    +0.000 NA
ATOM     19  C   UNL     1       1.299   7.808  20.833  0.00  0.00    +0.000 A 
ENDBRANCH   2  14
BRANCH  12  20
ATOM     20  C   UNL     1       5.190   5.677  15.676  0.00  0.00    +0.000 C 
BRANCH  20  21
ATOM     21  C   UNL     1       5.821   4.976  14.494  0.00  0.00    +0.000 A 
ATOM     22  C   UNL     1       5.118   4.001  13.774  0.00  0.00    +0.000 A 
ATOM     23  C   UNL     1       5.709   3.358  12.682  0.00  0.00    +0.000 A 
ATOM     24  C   UNL     1       7.001   3.699  12.289  0.00  0.00    +0.000 A 
ATOM     25  C   UNL     1       7.704   4.679  12.984  0.00  0.00    +0.000 A 
ATOM     26  C   UNL     1       7.117   5.315  14.081  0.00  0.00    +0.000 A 
ENDBRANCH  20  21
ENDBRANCH  12  20
TORSDOF 3
ENDMDL
MODEL 2
REMARK VINA RESULT:      -7.9      0.596      1.372
REMARK  Name = 
REMARK  3 active torsions:
REMARK  status: ('A' for Active; 'I' for Inactive)
REMARK    1  A    between atoms: C_2  and  C_3
REMARK    2  A    between atoms: C_18  and  C_20
REMARK    3  A    between atoms: C_20  and  C_21
REMARK                            x       y       z     vdW  Elec       q    Type
REMARK                         _______ _______ _______ _____ _____    ______ ____
ROOT
ATOM      1  O   UNL     1       2.442   4.965  21.782  0.00  0.00    +0.000 OA
ATOM      2  C   UNL     1       2.162   5.213  20.603  0.00  0.00    +0.000 C 
ATOM      3  N   UNL     1       2.184   4.233  19.595  0.00  0.00    +0.000 N 
ATOM      4  C   UNL     1       2.054   4.488  18.150  0.00  0.00    +0.000 C 
ATOM      5  C   UNL     1       3.135   3.853  17.244  0.00  0.00    +0.000 C 
ATOM      6  C   UNL     1       2.914   2.357  17.004  0.00  0.00    +0.000 C 
ATOM      7  C   UNL     1       3.501   1.490  18.113  0.00  0.00    +0.000 C 
ATOM      8  C   UNL     1       3.798   2.306  19.379  0.00  0.00    +0.000 C 
ATOM      9  C   UNL     1       2.496   2.858  19.995  0.00  0.00    +0.000 C 
ATOM     10  C   UNL     1       4.812   3.410  19.032  0.00  0.00    +0.000 C 
ATOM     11  N   UNL     1       4.486   4.094  17.772  0.00  0.00    +0.000 N 
ATOM     12  C   UNL     1       5.433   4.951  17.231  0.00  0.00    +0.000 C 
ATOM     13  O   UNL     1       6.527   5.127  17.779  0.00  0.00    +0.000 OA
ENDROOT
BRANCH   2  14
ATOM     14  C   UNL     1       1.837   6.626  20.285  0.00  0.00    +0.000 A 
ATOM     15  C   UNL     1       1.009   7.353  21.145  0.00  0.00    +0.000 A 
ATOM     16  C   UNL     1       0.749   8.695  20.875  0.00  0.00    +0.000 A 
ATOM     17  C   UNL     1       1.327   9.265  19.753  0.00  0.00    +0.000 A 
ATOM     18  N   UNL     1       2.079   8.577  18.867  0.00  0.00    +0.000 NA
ATOM     19  C   UNL     1       2.280   7.263  19.137  0.00  0.00    +0.000 A 
ENDBRANCH   2  14
BRANCH  12  20
ATOM     20  C   UNL     1       5.121   5.676  15.928  0.00  0.00    +0.000 C 
BRANCH  20  21
ATOM     21  C   UNL     1       5.786   5.053  14.720  0.00  0.00    +0.000 A 
ATOM     22  C   UNL     1       7.095   5.400  14.358  0.00  0.00    +0.000 A 
ATOM     23  C   UNL     1       7.702   4.818  13.241  0.00  0.00    +0.000 A 
ATOM     24  C   UNL     1       7.012   3.870  12.489  0.00  0.00    +0.000 A 
ATOM     25  C   UNL     1       5.719   3.503  12.848  0.00  0.00    +0.000 A 
ATOM     26  C   UNL     1       5.108   4.091  13.960  0.00  0.00    +0.000 A 
ENDBRANCH  20  21
ENDBRANCH  12  20
TORSDOF 3
ENDMDL
MODEL 3
REMARK VINA RESULT:      -7.6      2.568      6.983
REMARK  Name = 
REMARK  3 active torsions:
REMARK  status: ('A' for Active; 'I' for Inactive)
REMARK    1  A    between atoms: C_2  and  C_3
REMARK    2  A    between atoms: C_18  and  C_20
REMARK    3  A    between atoms: C_20  and  C_21
REMARK                            x       y       z     vdW  Elec       q    Type
REMARK                         _______ _______ _______ _____ _____    ______ ____
ROOT
ATOM      1  O   UNL     1       5.279   3.947  16.220  0.00  0.00    +0.000 OA
ATOM      2  C   UNL     1       5.281   4.345  17.390  0.00  0.00    +0.000 C 
ATOM      3  N   UNL     1       4.312   3.945  18.328  0.00  0.00    +0.000 N 
ATOM      4  C   UNL     1       4.135   4.520  19.674  0.00  0.00    +0.000 C 
ATOM      5  C   UNL     1       2.701   4.964  20.044  0.00  0.00    +0.000 C 
ATOM      6  C   UNL     1       1.788   3.794  20.420  0.00  0.00    +0.000 C 
ATOM      7  C   UNL     1       1.145   3.137  19.203  0.00  0.00    +0.000 C 
ATOM      8  C   UNL     1       1.863   3.517  17.901  0.00  0.00    +0.000 C 
ATOM      9  C   UNL     1       3.307   2.973  17.891  0.00  0.00    +0.000 C 
ATOM     10  C   UNL     1       1.796   5.044  17.725  0.00  0.00    +0.000 C 
ATOM     11  N   UNL     1       2.095   5.765  18.971  0.00  0.00    +0.000 N 
ATOM     12  C   UNL     1       1.852   7.131  19.008  0.00  0.00    +0.000 C 
ATOM     13  O   UNL     1       1.383   7.727  18.031  0.00  0.00    +0.000 OA
ENDROOT
BRANCH   2  14
ATOM     14  C   UNL     1       6.345   5.311  17.759  0.00  0.00    +0.000 A 
ATOM     15  C   UNL     1       6.447   6.521  17.066  0.00  0.00    +0.000 A 
ATOM     16  C   UNL     1       7.411   7.451  17.449  0.00  0.00    +0.000 A 
ATOM     17  C   UNL     1       8.241   7.139  18.513  0.00  0.00    +0.000 A 
ATOM     18  N   UNL     1       8.212   5.956  19.164  0.00  0.00    +0.000 NA
ATOM     19  C   UNL     1       7.290   5.057  18.740  0.00  0.00    +0.000 A 
ENDBRANCH   2  14
BRANCH  12  20
ATOM     20  C   UNL     1       2.154   7.905  20.285  0.00  0.00    +0.000 C 
BRANCH  20  21
ATOM     21  C   UNL     1       1.106   8.943  20.621  0.00  0.00    +0.000 A 
ATOM     22  C   UNL     1       0.438   8.922  21.852  0.00  0.00    +0.000 A 
ATOM     23  C   UNL     1      -0.528   9.886  22.154  0.00  0.00    +0.000 A 
ATOM     24  C   UNL     1      -0.820  10.890  21.235  0.00  0.00    +0.000 A 
ATOM     25  C   UNL     1      -0.151  10.934  20.015  0.00  0.00    +0.000 A 
ATOM     26  C   UNL     1       0.809   9.965  19.709  0.00  0.00    +0.000 A 
ENDBRANCH  20  21
ENDBRANCH  12  20
TORSDOF 3
ENDMDL
MODEL 4
REMARK VINA RESULT:      -7.4      2.651      6.844
REMARK  Name = 
REMARK  3 active torsions:
REMARK  status: ('A' for Active; 'I' for Inactive)
REMARK    1  A    between atoms: C_2  and  C_3
REMARK    2  A    between atoms: C_18  and  C_20
REMARK    3  A    between atoms: C_20  and  C_21
REMARK                            x       y       z     vdW  Elec       q    Type
REMARK                         _______ _______ _______ _____ _____    ______ ____
ROOT
ATOM      1  O   UNL     1       5.385   4.005  16.389  0.00  0.00    +0.000 OA
ATOM      2  C   UNL     1       5.328   4.528  17.508  0.00  0.00    +0.000 C 
ATOM      3  N   UNL     1       4.361   4.169  18.464  0.00  0.00    +0.000 N 
ATOM      4  C   UNL     1       4.109   4.874  19.734  0.00  0.00    +0.000 C 
ATOM      5  C   UNL     1       2.639   5.257  20.022  0.00  0.00    +0.000 C 
ATOM      6  C   UNL     1       1.794   4.075  20.507  0.00  0.00    +0.000 C 
ATOM      7  C   UNL     1       1.230   3.246  19.358  0.00  0.00    +0.000 C 
ATOM      8  C   UNL     1       1.958   3.530  18.037  0.00  0.00    +0.000 C 
ATOM      9  C   UNL     1       3.434   3.088  18.117  0.00  0.00    +0.000 C 
ATOM     10  C   UNL     1       1.796   5.020  17.690  0.00  0.00    +0.000 C 
ATOM     11  N   UNL     1       2.012   5.892  18.854  0.00  0.00    +0.000 N 
ATOM     12  C   UNL     1       1.679   7.234  18.734  0.00  0.00    +0.000 C 
ATOM     13  O   UNL     1       1.200   7.686  17.688  0.00  0.00    +0.000 OA
ENDROOT
BRANCH   2  14
ATOM     14  C   UNL     1       6.316   5.599  17.789  0.00  0.00    +0.000 A 
ATOM     15  C   UNL     1       7.243   5.428  18.820  0.00  0.00    +0.000 A 
ATOM     16  C   UNL     1       8.205   6.410  19.047  0.00  0.00    +0.000 A 
ATOM     17  C   UNL     1       8.208   7.530  18.232  0.00  0.00    +0.000 A 
ATOM     18  N   UNL     1       7.289   7.757  17.268  0.00  0.00    +0.000 NA
ATOM     19  C   UNL     1       6.342   6.801  17.100  0.00  0.00    +0.000 A 
ENDBRANCH   2  14
BRANCH  12  20
ATOM     20  C   UNL     1       1.894   8.162  19.923  0.00  0.00    +0.000 C 
BRANCH  20  21
ATOM     21  C   UNL     1       1.045   9.413  19.870  0.00  0.00    +0.000 A 
ATOM     22  C   UNL     1       1.249  10.383  18.880  0.00  0.00    +0.000 A 
ATOM     23  C   UNL     1       0.459  11.535  18.838  0.00  0.00    +0.000 A 
ATOM     24  C   UNL     1      -0.557  11.717  19.773  0.00  0.00    +0.000 A 
ATOM     25  C   UNL     1      -0.784  10.752  20.751  0.00  0.00    +0.000 A 
ATOM     26  C   UNL     1       0.013   9.604  20.799  0.00  0.00    +0.000 A 
ENDBRANCH  20  21
ENDBRANCH  12  20
TORSDOF 3
ENDMDL
MODEL 5
REMARK VINA RESULT:      -7.4      2.262      5.468
REMARK  Name = 
REMARK  3 active torsions:
REMARK  status: ('A' for Active; 'I' for Inactive)
REMARK    1  A    between atoms: C_2  and  C_3
REMARK    2  A    between atoms: C_18  and  C_20
REMARK    3  A    between atoms: C_20  and  C_21
REMARK                            x       y       z     vdW  Elec       q    Type
REMARK                         _______ _______ _______ _____ _____    ______ ____
ROOT
ATOM      1  O   UNL     1       3.065   8.079  16.661  0.00  0.00    +0.000 OA
ATOM      2  C   UNL     1       3.519   7.448  17.623  0.00  0.00    +0.000 C 
ATOM      3  N   UNL     1       4.755   6.778  17.575  0.00  0.00    +0.000 N 
ATOM      4  C   UNL     1       5.267   5.854  18.602  0.00  0.00    +0.000 C 
ATOM      5  C   UNL     1       5.764   4.479  18.098  0.00  0.00    +0.000 C 
ATOM      6  C   UNL     1       7.153   4.542  17.456  0.00  0.00    +0.000 C 
ATOM      7  C   UNL     1       7.102   4.933  15.983  0.00  0.00    +0.000 C 
ATOM      8  C   UNL     1       5.754   5.561  15.604  0.00  0.00    +0.000 C 
ATOM      9  C   UNL     1       5.543   6.898  16.346  0.00  0.00    +0.000 C 
ATOM     10  C   UNL     1       4.636   4.541  15.878  0.00  0.00    +0.000 C 
ATOM     11  N   UNL     1       4.798   3.867  17.174  0.00  0.00    +0.000 N 
ATOM     12  C   UNL     1       3.992   2.771  17.445  0.00  0.00    +0.000 C 
ATOM     13  O   UNL     1       3.170   2.358  16.619  0.00  0.00    +0.000 OA
ENDROOT
BRANCH   2  14
ATOM     14  C   UNL     1       2.668   7.394  18.838  0.00  0.00    +0.000 A 
ATOM     15  C   UNL     1       2.490   6.176  19.499  0.00  0.00    +0.000 A 
ATOM     16  C   UNL     1       1.737   6.136  20.671  0.00  0.00    +0.000 A 
ATOM     17  C   UNL     1       1.188   7.317  21.142  0.00  0.00    +0.000 A 
ATOM     18  N   UNL     1       1.288   8.498  20.495  0.00  0.00    +0.000 NA
ATOM     19  C   UNL     1       1.992   8.496  19.337  0.00  0.00    +0.000 A 
ENDBRANCH   2  14
BRANCH  12  20
ATOM     20  C   UNL     1       4.137   2.054  18.782  0.00  0.00    +0.000 C 
BRANCH  20  21
ATOM     21  C   UNL     1       3.012   2.353  19.749  0.00  0.00    +0.000 A 
ATOM     22  C   UNL     1       3.264   2.535  21.115  0.00  0.00    +0.000 A 
ATOM     23  C   UNL     1       2.220   2.813  22.001  0.00  0.00    +0.000 A 
ATOM     24  C   UNL     1       0.916   2.932  21.525  0.00  0.00    +0.000 A 
ATOM     25  C   UNL     1       0.654   2.772  20.167  0.00  0.00    +0.000 A 
ATOM     26  C   UNL     1       1.697   2.485  19.282  0.00  0.00    +0.000 A 
ENDBRANCH  20  21
ENDBRANCH  12  20
TORSDOF 3
ENDMDL
MODEL 6
REMARK VINA RESULT:      -7.1      8.694     11.876
REMARK  Name = 
REMARK  3 active torsions:
REMARK  status: ('A' for Active; 'I' for Inactive)
REMARK    1  A    between atoms: C_2  and  C_3
REMARK    2  A    between atoms: C_18  and  C_20
REMARK    3  A    between atoms: C_20  and  C_21
REMARK                            x       y       z     vdW  Elec       q    Type
REMARK                         _______ _______ _______ _____ _____    ______ ____
ROOT
ATOM      1  O   UNL     1      -4.014  11.954  24.226  0.00  0.00    +0.000 OA
ATOM      2  C   UNL     1      -3.739  12.572  23.191  0.00  0.00    +0.000 C 
ATOM      3  N   UNL     1      -4.639  13.463  22.578  0.00  0.00    +0.000 N 
ATOM      4  C   UNL     1      -4.461  14.082  21.252  0.00  0.00    +0.000 C 
ATOM      5  C   UNL     1      -5.652  13.957  20.274  0.00  0.00    +0.000 C 
ATOM      6  C   UNL     1      -6.788  14.936  20.583  0.00  0.00    +0.000 C 
ATOM      7  C   UNL     1      -7.750  14.405  21.640  0.00  0.00    +0.000 C 
ATOM      8  C   UNL     1      -7.146  13.234  22.427  0.00  0.00    +0.000 C 
ATOM      9  C   UNL     1      -5.922  13.695  23.245  0.00  0.00    +0.000 C 
ATOM     10  C   UNL     1      -6.818  12.094  21.447  0.00  0.00    +0.000 C 
ATOM     11  N   UNL     1      -6.161  12.578  20.224  0.00  0.00    +0.000 N 
ATOM     12  C   UNL     1      -6.014  11.691  19.168  0.00  0.00    +0.000 C 
ATOM     13  O   UNL     1      -6.435  10.531  19.240  0.00  0.00    +0.000 OA
ENDROOT
BRANCH   2  14
ATOM     14  C   UNL     1      -2.410  12.296  22.590  0.00  0.00    +0.000 A 
ATOM     15  C   UNL     1      -2.003  13.013  21.461  0.00  0.00    +0.000 A 
ATOM     16  C   UNL     1      -0.734  12.792  20.931  0.00  0.00    +0.000 A 
ATOM     17  C   UNL     1       0.086  11.863  21.549  0.00  0.00    +0.000 A 
ATOM     18  N   UNL     1      -0.298  11.109  22.601  0.00  0.00    +0.000 NA
ATOM     19  C   UNL     1      -1.554  11.318  23.068  0.00  0.00    +0.000 A 
ENDBRANCH   2  14
BRANCH  12  20
ATOM     20  C   UNL     1      -5.335  12.165  17.888  0.00  0.00    +0.000 C 
BRANCH  20  21
ATOM     21  C   UNL     1      -4.091  11.378  17.542  0.00  0.00    +0.000 A 
ATOM     22  C   UNL     1      -3.043  11.241  18.463  0.00  0.00    +0.000 A 
ATOM     23  C   UNL     1      -1.898  10.511  18.135  0.00  0.00    +0.000 A 
ATOM     24  C   UNL     1      -1.799   9.894  16.890  0.00  0.00    +0.000 A 
ATOM     25  C   UNL     1      -2.839  10.006  15.972  0.00  0.00    +0.000 A 
ATOM     26  C   UNL     1      -3.981  10.744  16.297  0.00  0.00    +0.000 A 
ENDBRANCH  20  21
ENDBRANCH  12  20
TORSDOF 3
ENDMDL
MODEL 7
REMARK VINA RESULT:      -6.9      7.476     11.385
REMARK  Name = 
REMARK  3 active torsions:
REMARK  status: ('A' for Active; 'I' for Inactive)
REMARK    1  A    between atoms: C_2  and  C_3
REMARK    2  A    between atoms: C_18  and  C_20
REMARK    3  A    between atoms: C_20  and  C_21
REMARK                            x       y       z     vdW  Elec       q    Type
REMARK                         _______ _______ _______ _____ _____    ______ ____
ROOT
ATOM      1  O   UNL     1      -3.392   9.572  17.632  0.00  0.00    +0.000 OA
ATOM      2  C   UNL     1      -3.104  10.722  17.982  0.00  0.00    +0.000 C 
ATOM      3  N   UNL     1      -1.776  11.174  18.082  0.00  0.00    +0.000 N 
ATOM      4  C   UNL     1      -1.349  12.455  18.673  0.00  0.00    +0.000 C 
ATOM      5  C   UNL     1      -0.229  12.378  19.736  0.00  0.00    +0.000 C 
ATOM      6  C   UNL     1       1.164  12.190  19.128  0.00  0.00    +0.000 C 
ATOM      7  C   UNL     1       1.490  10.727  18.848  0.00  0.00    +0.000 C 
ATOM      8  C   UNL     1       0.231   9.850  18.848  0.00  0.00    +0.000 C 
ATOM      9  C   UNL     1      -0.713  10.243  17.693  0.00  0.00    +0.000 C 
ATOM     10  C   UNL     1      -0.440   9.946  20.229  0.00  0.00    +0.000 C 
ATOM     11  N   UNL     1      -0.503  11.327  20.727  0.00  0.00    +0.000 N 
ATOM     12  C   UNL     1      -0.877  11.528  22.048  0.00  0.00    +0.000 C 
ATOM     13  O   UNL     1      -1.137  10.578  22.794  0.00  0.00    +0.000 OA
ENDROOT
BRANCH   2  14
ATOM     14  C   UNL     1      -4.239  11.609  18.339  0.00  0.00    +0.000 A 
ATOM     15  C   UNL     1      -4.364  12.073  19.651  0.00  0.00    +0.000 A 
ATOM     16  C   UNL     1      -5.399  12.950  19.972  0.00  0.00    +0.000 A 
ATOM     17  C   UNL     1      -6.273  13.333  18.969  0.00  0.00    +0.000 A 
ATOM     18  N   UNL     1      -6.219  12.855  17.707  0.00  0.00    +0.000 NA
ATOM     19  C   UNL     1      -5.226  11.972  17.437  0.00  0.00    +0.000 A 
ENDBRANCH   2  14
BRANCH  12  20
ATOM     20  C   UNL     1      -0.953  12.950  22.591  0.00  0.00    +0.000 C 
BRANCH  20  21
ATOM     21  C   UNL     1      -2.367  13.416  22.858  0.00  0.00    +0.000 A 
ATOM     22  C   UNL     1      -3.263  12.624  23.587  0.00  0.00    +0.000 A 
ATOM     23  C   UNL     1      -4.568  13.063  23.831  0.00  0.00    +0.000 A 
ATOM     24  C   UNL     1      -4.981  14.308  23.363  0.00  0.00    +0.000 A 
ATOM     25  C   UNL     1      -4.096  15.114  22.653  0.00  0.00    +0.000 A 
ATOM     26  C   UNL     1      -2.794  14.671  22.402  0.00  0.00    +0.000 A 
ENDBRANCH  20  21
ENDBRANCH  12  20
TORSDOF 3
ENDMDL
MODEL 8
REMARK VINA RESULT:      -6.8      9.592     13.161
REMARK  Name = 
REMARK  3 active torsions:
REMARK  status: ('A' for Active; 'I' for Inactive)
REMARK    1  A    between atoms: C_2  and  C_3
REMARK    2  A    between atoms: C_18  and  C_20
REMARK    3  A    between atoms: C_20  and  C_21
REMARK                            x       y       z     vdW  Elec       q    Type
REMARK                         _______ _______ _______ _____ _____    ______ ____
ROOT
ATOM      1  O   UNL     1      -0.096  13.255  22.987  0.00  0.00    +0.000 OA
ATOM      2  C   UNL     1      -0.920  13.780  22.229  0.00  0.00    +0.000 C 
ATOM      3  N   UNL     1      -1.787  14.806  22.646  0.00  0.00    +0.000 N 
ATOM      4  C   UNL     1      -2.916  15.343  21.865  0.00  0.00    +0.000 C 
ATOM      5  C   UNL     1      -4.278  15.416  22.594  0.00  0.00    +0.000 C 
ATOM      6  C   UNL     1      -4.379  16.599  23.560  0.00  0.00    +0.000 C 
ATOM      7  C   UNL     1      -3.792  16.288  24.933  0.00  0.00    +0.000 C 
ATOM      8  C   UNL     1      -2.890  15.047  24.902  0.00  0.00    +0.000 C 
ATOM      9  C   UNL     1      -1.648  15.294  24.020  0.00  0.00    +0.000 C 
ATOM     10  C   UNL     1      -3.722  13.839  24.440  0.00  0.00    +0.000 C 
ATOM     11  N   UNL     1      -4.580  14.157  23.290  0.00  0.00    +0.000 N 
ATOM     12  C   UNL     1      -5.541  13.228  22.917  0.00  0.00    +0.000 C 
ATOM     13  O   UNL     1      -5.688  12.170  23.539  0.00  0.00    +0.000 OA
ENDROOT
BRANCH   2  14
ATOM     14  C   UNL     1      -0.983  13.243  20.847  0.00  0.00    +0.000 A 
ATOM     15  C   UNL     1      -1.619  12.021  20.612  0.00  0.00    +0.000 A 
ATOM     16  C   UNL     1      -1.726  11.545  19.307  0.00  0.00    +0.000 A 
ATOM     17  C   UNL     1      -1.194  12.308  18.281  0.00  0.00    +0.000 A 
ATOM     18  N   UNL     1      -0.519  13.461  18.479  0.00  0.00    +0.000 NA
ATOM     19  C   UNL     1      -0.396  13.876  19.763  0.00  0.00    +0.000 A 
ENDBRANCH   2  14
BRANCH  12  20
ATOM     20  C   UNL     1      -6.444  13.529  21.726  0.00  0.00    +0.000 C 
BRANCH  20  21
ATOM     21  C   UNL     1      -6.262  12.564  20.576  0.00  0.00    +0.000 A 
ATOM     22  C   UNL     1      -5.259  12.764  19.617  0.00  0.00    +0.000 A 
ATOM     23  C   UNL     1      -5.097  11.866  18.558  0.00  0.00    +0.000 A 
ATOM     24  C   UNL     1      -5.925  10.750  18.459  0.00  0.00    +0.000 A 
ATOM     25  C   UNL     1      -6.913  10.529  19.414  0.00  0.00    +0.000 A 
ATOM     26  C   UNL     1      -7.080  11.432  20.469  0.00  0.00    +0.000 A 
ENDBRANCH  20  21
ENDBRANCH  12  20
TORSDOF 3
ENDMDL
MODEL 9
REMARK VINA RESULT:      -6.8      9.939     12.977
REMARK  Name = 
REMARK  3 active torsions:
REMARK  status: ('A' for Active; 'I' for Inactive)
REMARK    1  A    between atoms: C_2  and  C_3
REMARK    2  A    between atoms: C_18  and  C_20
REMARK    3  A    between atoms: C_20  and  C_21
REMARK                            x       y       z     vdW  Elec       q    Type
REMARK                         _______ _______ _______ _____ _____    ______ ____
ROOT
ATOM      1  O   UNL     1      11.882  13.777  17.496  0.00  0.00    +0.000 OA
ATOM      2  C   UNL     1      10.718  13.800  17.914  0.00  0.00    +0.000 C 
ATOM      3  N   UNL     1       9.943  14.974  17.933  0.00  0.00    +0.000 N 
ATOM      4  C   UNL     1       8.631  15.123  18.588  0.00  0.00    +0.000 C 
ATOM      5  C   UNL     1       8.475  16.334  19.536  0.00  0.00    +0.000 C 
ATOM      6  C   UNL     1       8.257  17.655  18.793  0.00  0.00    +0.000 C 
ATOM      7  C   UNL     1       9.567  18.309  18.363  0.00  0.00    +0.000 C 
ATOM      8  C   UNL     1      10.740  17.320  18.403  0.00  0.00    +0.000 C 
ATOM      9  C   UNL     1      10.540  16.189  17.373  0.00  0.00    +0.000 C 
ATOM     10  C   UNL     1      10.903  16.800  19.841  0.00  0.00    +0.000 C 
ATOM     11  N   UNL     1       9.616  16.444  20.457  0.00  0.00    +0.000 N 
ATOM     12  C   UNL     1       9.596  16.175  21.818  0.00  0.00    +0.000 C 
ATOM     13  O   UNL     1      10.624  16.247  22.502  0.00  0.00    +0.000 OA
ENDROOT
BRANCH   2  14
ATOM     14  C   UNL     1      10.180  12.523  18.444  0.00  0.00    +0.000 A 
ATOM     15  C   UNL     1       9.205  11.833  17.719  0.00  0.00    +0.000 A 
ATOM     16  C   UNL     1       8.741  10.606  18.190  0.00  0.00    +0.000 A 
ATOM     17  C   UNL     1       9.269  10.111  19.370  0.00  0.00    +0.000 A 
ATOM     18  N   UNL     1      10.166  10.779  20.128  0.00  0.00    +0.000 NA
ATOM     19  C   UNL     1      10.566  11.989  19.663  0.00  0.00    +0.000 A 
ENDBRANCH   2  14
BRANCH  12  20
ATOM     20  C   UNL     1       8.277  15.801  22.483  0.00  0.00    +0.000 C 
BRANCH  20  21
ATOM     21  C   UNL     1       8.240  14.373  22.982  0.00  0.00    +0.000 A 
ATOM     22  C   UNL     1       8.101  13.300  22.092  0.00  0.00    +0.000 A 
ATOM     23  C   UNL     1       8.070  11.984  22.563  0.00  0.00    +0.000 A 
ATOM     24  C   UNL     1       8.197  11.730  23.926  0.00  0.00    +0.000 A 
ATOM     25  C   UNL     1       8.355  12.785  24.820  0.00  0.00    +0.000 A 
ATOM     26  C   UNL     1       8.377  14.101  24.350  0.00  0.00    +0.000 A 
ENDBRANCH  20  21
ENDBRANCH  12  20
TORSDOF 3
ENDMDL
