MODEL 1
REMARK VINA RESULT:      -7.4      0.000      0.000
REMARK  Name = 
REMARK  3 active torsions:
REMARK  status: ('A' for Active; 'I' for Inactive)
REMARK    1  A    between atoms: C_1  and  O_2
REMARK    2  A    between atoms: O_2  and  C_3
REMARK    3  A    between atoms: C_6  and  N_7
REMARK                            x       y       z     vdW  Elec       q    Type
REMARK                         _______ _______ _______ _____ _____    ______ ____
ROOT
ATOM      1  N   UNL     1      -0.593  10.398  21.147  0.00  0.00    +0.000 N 
ATOM      2  C   UNL     1      -0.344  10.049  19.740  0.00  0.00    +0.000 C 
ATOM      3  C   UNL     1       1.119   9.591  19.562  0.00  0.00    +0.000 C 
ATOM      4  N   UNL     1       1.456   8.496  20.486  0.00  0.00    +0.000 N 
ATOM      5  C   UNL     1       1.875   7.249  20.088  0.00  0.00    +0.000 A 
ATOM      6  N   UNL     1       1.647   6.177  20.789  0.00  0.00    +0.000 NA
ATOM      7  C   UNL     1       2.106   4.972  20.307  0.00  0.00    +0.000 A 
ATOM      8  C   UNL     1       2.817   4.824  19.179  0.00  0.00    +0.000 A 
ATOM      9  C   UNL     1       3.103   6.032  18.403  0.00  0.00    +0.000 A 
ATOM     10  O   UNL     1       3.763   6.015  17.370  0.00  0.00    +0.000 OA
ATOM     11  N   UNL     1       2.574   7.180  18.911  0.00  0.00    +0.000 N 
ATOM     12  C   UNL     1       3.339   3.522  18.671  0.00  0.00    +0.000 C 
ATOM     13  O   UNL     1       3.239   2.481  19.655  0.00  0.00    +0.000 OA
ATOM     14  C   UNL     1       1.956   2.468  20.283  0.00  0.00    +0.000 C 
ATOM     15  C   UNL     1       1.757   3.742  21.108  0.00  0.00    +0.000 C 
ATOM     16  C   UNL     1       1.164   8.805  21.902  0.00  0.00    +0.000 C 
ATOM     17  C   UNL     1      -0.279   9.315  22.099  0.00  0.00    +0.000 C 
ATOM     18  H   UNL     1       2.822   8.019  18.420  0.00  0.00    +0.000 HD
ENDROOT
BRANCH   1  22
ATOM     19  C   UNL     1      -2.064  14.191  22.293  0.00  0.00    +0.000 A 
ATOM     20  C   UNL     1      -1.632  13.280  23.248  0.00  0.00    +0.000 A 
ATOM     21  C   UNL     1      -1.129  12.032  22.862  0.00  0.00    +0.000 A 
ATOM     22  C   UNL     1      -1.059  11.642  21.515  0.00  0.00    +0.000 A 
ATOM     23  C   UNL     1      -1.511  12.576  20.573  0.00  0.00    +0.000 A 
ATOM     24  C   UNL     1      -2.010  13.833  20.951  0.00  0.00    +0.000 A 
BRANCH  19  26
ATOM     25  C   UNL     1      -1.970  15.811  24.007  0.00  0.00    +0.000 C 
ATOM     26  O   UNL     1      -2.548  15.371  22.784  0.00  0.00    +0.000 OA
ENDBRANCH  19  26
ENDBRANCH   1  22
TORSDOF 2
ENDMDL
MODEL 2
REMARK VINA RESULT:      -7.3      0.827      1.048
REMARK  Name = 
REMARK  3 active torsions:
REMARK  status: ('A' for Active; 'I' for Inactive)
REMARK    1  A    between atoms: C_1  and  O_2
REMARK    2  A    between atoms: O_2  and  C_3
REMARK    3  A    between atoms: C_6  and  N_7
REMARK                            x       y       z     vdW  Elec       q    Type
REMARK                         _______ _______ _______ _____ _____    ______ ____
ROOT
ATOM      1  N   UNL     1      -0.630  10.523  21.740  0.00  0.00    +0.000 N 
ATOM      2  C   UNL     1      -0.418  10.334  20.297  0.00  0.00    +0.000 C 
ATOM      3  C   UNL     1       1.030   9.870  20.032  0.00  0.00    +0.000 C 
ATOM      4  N   UNL     1       1.361   8.669  20.816  0.00  0.00    +0.000 N 
ATOM      5  C   UNL     1       1.743   7.469  20.268  0.00  0.00    +0.000 A 
ATOM      6  N   UNL     1       1.506   6.327  20.845  0.00  0.00    +0.000 NA
ATOM      7  C   UNL     1       1.927   5.177  20.217  0.00  0.00    +0.000 A 
ATOM      8  C   UNL     1       2.610   5.146  19.064  0.00  0.00    +0.000 A 
ATOM      9  C   UNL     1       2.908   6.430  18.425  0.00  0.00    +0.000 A 
ATOM     10  O   UNL     1       3.545   6.519  17.382  0.00  0.00    +0.000 OA
ATOM     11  N   UNL     1       2.416   7.521  19.075  0.00  0.00    +0.000 N 
ATOM     12  C   UNL     1       3.092   3.902  18.396  0.00  0.00    +0.000 C 
ATOM     13  O   UNL     1       2.989   2.755  19.256  0.00  0.00    +0.000 OA
ATOM     14  C   UNL     1       1.719   2.696  19.908  0.00  0.00    +0.000 C 
ATOM     15  C   UNL     1       1.566   3.870  20.879  0.00  0.00    +0.000 C 
ATOM     16  C   UNL     1       1.106   8.818  22.265  0.00  0.00    +0.000 C 
ATOM     17  C   UNL     1      -0.321   9.331  22.553  0.00  0.00    +0.000 C 
ATOM     18  H   UNL     1       2.672   8.406  18.678  0.00  0.00    +0.000 HD
ENDROOT
BRANCH   1  22
ATOM     19  C   UNL     1      -1.911  14.207  23.367  0.00  0.00    +0.000 A 
ATOM     20  C   UNL     1      -0.777  14.141  22.568  0.00  0.00    +0.000 A 
ATOM     21  C   UNL     1      -0.368  12.921  22.016  0.00  0.00    +0.000 A 
ATOM     22  C   UNL     1      -1.060  11.724  22.260  0.00  0.00    +0.000 A 
ATOM     23  C   UNL     1      -2.194  11.818  23.078  0.00  0.00    +0.000 A 
ATOM     24  C   UNL     1      -2.617  13.038  23.630  0.00  0.00    +0.000 A 
BRANCH  19  26
ATOM     25  C   UNL     1      -1.644  15.749  25.133  0.00  0.00    +0.000 C 
ATOM     26  O   UNL     1      -2.209  15.445  23.863  0.00  0.00    +0.000 OA
ENDBRANCH  19  26
ENDBRANCH   1  22
TORSDOF 2
ENDMDL
MODEL 3
REMARK VINA RESULT:      -7.2      1.479      1.837
REMARK  Name = 
REMARK  3 active torsions:
REMARK  status: ('A' for Active; 'I' for Inactive)
REMARK    1  A    between atoms: C_1  and  O_2
REMARK    2  A    between atoms: O_2  and  C_3
REMARK    3  A    between atoms: C_6  and  N_7
REMARK                            x       y       z     vdW  Elec       q    Type
REMARK                         _______ _______ _______ _____ _____    ______ ____
ROOT
ATOM      1  N   UNL     1      -1.126  11.035  22.276  0.00  0.00    +0.000 N 
ATOM      2  C   UNL     1      -1.064  10.986  20.807  0.00  0.00    +0.000 C 
ATOM      3  C   UNL     1       0.394  10.773  20.347  0.00  0.00    +0.000 C 
ATOM      4  N   UNL     1       0.990   9.585  20.980  0.00  0.00    +0.000 N 
ATOM      5  C   UNL     1       1.474   8.501  20.288  0.00  0.00    +0.000 A 
ATOM      6  N   UNL     1       1.478   7.298  20.783  0.00  0.00    +0.000 NA
ATOM      7  C   UNL     1       1.984   6.276  20.013  0.00  0.00    +0.000 A 
ATOM      8  C   UNL     1       2.520   6.435  18.794  0.00  0.00    +0.000 A 
ATOM      9  C   UNL     1       2.548   7.792  18.245  0.00  0.00    +0.000 A 
ATOM     10  O   UNL     1       3.035   8.054  17.151  0.00  0.00    +0.000 OA
ATOM     11  N   UNL     1       1.983   8.744  19.039  0.00  0.00    +0.000 N 
ATOM     12  C   UNL     1       3.095   5.332  17.970  0.00  0.00    +0.000 C 
ATOM     13  O   UNL     1       3.265   4.125  18.730  0.00  0.00    +0.000 OA
ATOM     14  C   UNL     1       2.105   3.822  19.507  0.00  0.00    +0.000 C 
ATOM     15  C   UNL     1       1.900   4.885  20.590  0.00  0.00    +0.000 C 
ATOM     16  C   UNL     1       0.892   9.588  22.455  0.00  0.00    +0.000 C 
ATOM     17  C   UNL     1      -0.550   9.850  22.941  0.00  0.00    +0.000 C 
ATOM     18  H   UNL     1       2.058   9.685  18.698  0.00  0.00    +0.000 HD
ENDROOT
BRANCH   1  22
ATOM     19  C   UNL     1      -2.795  14.355  24.289  0.00  0.00    +0.000 A 
ATOM     20  C   UNL     1      -3.517  13.177  24.143  0.00  0.00    +0.000 A 
ATOM     21  C   UNL     1      -2.953  12.075  23.491  0.00  0.00    +0.000 A 
ATOM     22  C   UNL     1      -1.660  12.115  22.945  0.00  0.00    +0.000 A 
ATOM     23  C   UNL     1      -0.958  13.318  23.098  0.00  0.00    +0.000 A 
ATOM     24  C   UNL     1      -1.513  14.426  23.757  0.00  0.00    +0.000 A 
BRANCH  19  26
ATOM     25  C   UNL     1      -4.618  15.854  24.276  0.00  0.00    +0.000 C 
ATOM     26  O   UNL     1      -3.450  15.370  24.929  0.00  0.00    +0.000 OA
ENDBRANCH  19  26
ENDBRANCH   1  22
TORSDOF 2
ENDMDL
MODEL 4
REMARK VINA RESULT:      -7.2      0.809      1.252
REMARK  Name = 
REMARK  3 active torsions:
REMARK  status: ('A' for Active; 'I' for Inactive)
REMARK    1  A    between atoms: C_1  and  O_2
REMARK    2  A    between atoms: O_2  and  C_3
REMARK    3  A    between atoms: C_6  and  N_7
REMARK                            x       y       z     vdW  Elec       q    Type
REMARK                         _______ _______ _______ _____ _____    ______ ____
ROOT
ATOM      1  N   UNL     1      -0.379  10.061  20.823  0.00  0.00    +0.000 N 
ATOM      2  C   UNL     1      -0.047   9.827  19.410  0.00  0.00    +0.000 C 
ATOM      3  C   UNL     1       1.427   9.385  19.281  0.00  0.00    +0.000 C 
ATOM      4  N   UNL     1       1.714   8.218  20.131  0.00  0.00    +0.000 N 
ATOM      5  C   UNL     1       2.162   7.008  19.659  0.00  0.00    +0.000 A 
ATOM      6  N   UNL     1       1.899   5.882  20.256  0.00  0.00    +0.000 NA
ATOM      7  C   UNL     1       2.391   4.721  19.706  0.00  0.00    +0.000 A 
ATOM      8  C   UNL     1       3.167   4.664  18.614  0.00  0.00    +0.000 A 
ATOM      9  C   UNL     1       3.493   5.932  17.956  0.00  0.00    +0.000 A 
ATOM     10  O   UNL     1       4.211   5.998  16.965  0.00  0.00    +0.000 OA
ATOM     11  N   UNL     1       2.929   7.035  18.524  0.00  0.00    +0.000 N 
ATOM     12  C   UNL     1       3.724   3.409  18.033  0.00  0.00    +0.000 C 
ATOM     13  O   UNL     1       3.573   2.291  18.922  0.00  0.00    +0.000 OA
ATOM     14  C   UNL     1       2.255   2.227  19.471  0.00  0.00    +0.000 C 
ATOM     15  C   UNL     1       2.002   3.430  20.383  0.00  0.00    +0.000 C 
ATOM     16  C   UNL     1       1.339   8.412  21.548  0.00  0.00    +0.000 C 
ATOM     17  C   UNL     1      -0.116   8.904  21.701  0.00  0.00    +0.000 C 
ATOM     18  H   UNL     1       3.201   7.911  18.117  0.00  0.00    +0.000 HD
ENDROOT
BRANCH   1  22
ATOM     19  C   UNL     1      -1.847  13.791  22.161  0.00  0.00    +0.000 A 
ATOM     20  C   UNL     1      -1.713  13.527  20.804  0.00  0.00    +0.000 A 
ATOM     21  C   UNL     1      -1.243  12.284  20.367  0.00  0.00    +0.000 A 
ATOM     22  C   UNL     1      -0.872  11.270  21.263  0.00  0.00    +0.000 A 
ATOM     23  C   UNL     1      -1.008  11.566  22.626  0.00  0.00    +0.000 A 
ATOM     24  C   UNL     1      -1.484  12.809  23.075  0.00  0.00    +0.000 A 
BRANCH  19  26
ATOM     25  C   UNL     1      -3.239  15.601  21.563  0.00  0.00    +0.000 C 
ATOM     26  O   UNL     1      -2.300  15.042  22.475  0.00  0.00    +0.000 OA
ENDBRANCH  19  26
ENDBRANCH   1  22
TORSDOF 2
ENDMDL
MODEL 5
REMARK VINA RESULT:      -7.2      1.726      2.291
REMARK  Name = 
REMARK  3 active torsions:
REMARK  status: ('A' for Active; 'I' for Inactive)
REMARK    1  A    between atoms: C_1  and  O_2
REMARK    2  A    between atoms: O_2  and  C_3
REMARK    3  A    between atoms: C_6  and  N_7
REMARK                            x       y       z     vdW  Elec       q    Type
REMARK                         _______ _______ _______ _____ _____    ______ ____
ROOT
ATOM      1  N   UNL     1       0.334  10.151  19.387  0.00  0.00    +0.000 N 
ATOM      2  C   UNL     1       0.771   9.697  18.058  0.00  0.00    +0.000 C 
ATOM      3  C   UNL     1       2.162   9.036  18.157  0.00  0.00    +0.000 C 
ATOM      4  N   UNL     1       2.174   7.956  19.158  0.00  0.00    +0.000 N 
ATOM      5  C   UNL     1       2.473   6.645  18.877  0.00  0.00    +0.000 A 
ATOM      6  N   UNL     1       1.977   5.652  19.556  0.00  0.00    +0.000 NA
ATOM      7  C   UNL     1       2.335   4.372  19.198  0.00  0.00    +0.000 A 
ATOM      8  C   UNL     1       3.202   4.069  18.221  0.00  0.00    +0.000 A 
ATOM      9  C   UNL     1       3.789   5.184  17.475  0.00  0.00    +0.000 A 
ATOM     10  O   UNL     1       4.608   5.023  16.577  0.00  0.00    +0.000 OA
ATOM     11  N   UNL     1       3.348   6.419  17.847  0.00  0.00    +0.000 N 
ATOM     12  C   UNL     1       3.613   2.684  17.852  0.00  0.00    +0.000 C 
ATOM     13  O   UNL     1       3.197   1.719  18.831  0.00  0.00    +0.000 OA
ATOM     14  C   UNL     1       1.835   1.914  19.219  0.00  0.00    +0.000 C 
ATOM     15  C   UNL     1       1.680   3.246  19.958  0.00  0.00    +0.000 C 
ATOM     16  C   UNL     1       1.688   8.377  20.489  0.00  0.00    +0.000 C 
ATOM     17  C   UNL     1       0.320   9.088  20.410  0.00  0.00    +0.000 C 
ATOM     18  H   UNL     1       3.795   7.189  17.385  0.00  0.00    +0.000 HD
ENDROOT
BRANCH   1  22
ATOM     19  C   UNL     1      -0.663  14.191  20.125  0.00  0.00    +0.000 A 
ATOM     20  C   UNL     1      -0.422  13.745  18.832  0.00  0.00    +0.000 A 
ATOM     21  C   UNL     1      -0.110  12.402  18.592  0.00  0.00    +0.000 A 
ATOM     22  C   UNL     1      -0.006  11.464  19.630  0.00  0.00    +0.000 A 
ATOM     23  C   UNL     1      -0.245  11.943  20.926  0.00  0.00    +0.000 A 
ATOM     24  C   UNL     1      -0.565  13.287  21.177  0.00  0.00    +0.000 A 
BRANCH  19  26
ATOM     25  C   UNL     1      -0.557  16.333  19.141  0.00  0.00    +0.000 C 
ATOM     26  O   UNL     1      -0.944  15.523  20.245  0.00  0.00    +0.000 OA
ENDBRANCH  19  26
ENDBRANCH   1  22
TORSDOF 2
ENDMDL
MODEL 6
REMARK VINA RESULT:      -7.1      1.527      1.849
REMARK  Name = 
REMARK  3 active torsions:
REMARK  status: ('A' for Active; 'I' for Inactive)
REMARK    1  A    between atoms: C_1  and  O_2
REMARK    2  A    between atoms: O_2  and  C_3
REMARK    3  A    between atoms: C_6  and  N_7
REMARK                            x       y       z     vdW  Elec       q    Type
REMARK                         _______ _______ _______ _____ _____    ______ ____
ROOT
ATOM      1  N   UNL     1       0.366  10.138  19.412  0.00  0.00    +0.000 N 
ATOM      2  C   UNL     1       0.815   9.694  18.084  0.00  0.00    +0.000 C 
ATOM      3  C   UNL     1       2.196   9.014  18.194  0.00  0.00    +0.000 C 
ATOM      4  N   UNL     1       2.180   7.922  19.182  0.00  0.00    +0.000 N 
ATOM      5  C   UNL     1       2.466   6.610  18.889  0.00  0.00    +0.000 A 
ATOM      6  N   UNL     1       1.947   5.616  19.548  0.00  0.00    +0.000 NA
ATOM      7  C   UNL     1       2.294   4.336  19.180  0.00  0.00    +0.000 A 
ATOM      8  C   UNL     1       3.170   4.033  18.211  0.00  0.00    +0.000 A 
ATOM      9  C   UNL     1       3.781   5.149  17.487  0.00  0.00    +0.000 A 
ATOM     10  O   UNL     1       4.610   4.988  16.599  0.00  0.00    +0.000 OA
ATOM     11  N   UNL     1       3.352   6.385  17.868  0.00  0.00    +0.000 N 
ATOM     12  C   UNL     1       3.568   2.647  17.831  0.00  0.00    +0.000 C 
ATOM     13  O   UNL     1       3.125   1.676  18.793  0.00  0.00    +0.000 OA
ATOM     14  C   UNL     1       1.761   1.885  19.164  0.00  0.00    +0.000 C 
ATOM     15  C   UNL     1       1.614   3.209  19.918  0.00  0.00    +0.000 C 
ATOM     16  C   UNL     1       1.682   8.333  20.511  0.00  0.00    +0.000 C 
ATOM     17  C   UNL     1       0.324   9.063  20.422  0.00  0.00    +0.000 C 
ATOM     18  H   UNL     1       3.815   7.154  17.421  0.00  0.00    +0.000 HD
ENDROOT
BRANCH   1  22
ATOM     19  C   UNL     1      -0.682  14.156  20.201  0.00  0.00    +0.000 A 
ATOM     20  C   UNL     1      -0.631  13.222  21.227  0.00  0.00    +0.000 A 
ATOM     21  C   UNL     1      -0.265  11.897  20.963  0.00  0.00    +0.000 A 
ATOM     22  C   UNL     1       0.040  11.452  19.667  0.00  0.00    +0.000 A 
ATOM     23  C   UNL     1      -0.029  12.413  18.649  0.00  0.00    +0.000 A 
ATOM     24  C   UNL     1      -0.388  13.746  18.905  0.00  0.00    +0.000 A 
BRANCH  19  26
ATOM     25  C   UNL     1      -1.687  15.517  21.845  0.00  0.00    +0.000 C 
ATOM     26  O   UNL     1      -1.064  15.415  20.570  0.00  0.00    +0.000 OA
ENDBRANCH  19  26
ENDBRANCH   1  22
TORSDOF 2
ENDMDL
MODEL 7
REMARK VINA RESULT:      -6.9      1.531      2.838
REMARK  Name = 
REMARK  3 active torsions:
REMARK  status: ('A' for Active; 'I' for Inactive)
REMARK    1  A    between atoms: C_1  and  O_2
REMARK    2  A    between atoms: O_2  and  C_3
REMARK    3  A    between atoms: C_6  and  N_7
REMARK                            x       y       z     vdW  Elec       q    Type
REMARK                         _______ _______ _______ _____ _____    ______ ____
ROOT
ATOM      1  N   UNL     1       0.770  10.578  21.255  0.00  0.00    +0.000 N 
ATOM      2  C   UNL     1       1.416   9.510  22.034  0.00  0.00    +0.000 C 
ATOM      3  C   UNL     1       1.086   8.135  21.417  0.00  0.00    +0.000 C 
ATOM      4  N   UNL     1       1.440   8.088  19.988  0.00  0.00    +0.000 N 
ATOM      5  C   UNL     1       2.340   7.205  19.443  0.00  0.00    +0.000 A 
ATOM      6  N   UNL     1       3.046   7.486  18.386  0.00  0.00    +0.000 NA
ATOM      7  C   UNL     1       3.923   6.536  17.914  0.00  0.00    +0.000 A 
ATOM      8  C   UNL     1       4.075   5.312  18.441  0.00  0.00    +0.000 A 
ATOM      9  C   UNL     1       3.261   4.979  19.611  0.00  0.00    +0.000 A 
ATOM     10  O   UNL     1       3.304   3.882  20.157  0.00  0.00    +0.000 OA
ATOM     11  N   UNL     1       2.455   5.984  20.055  0.00  0.00    +0.000 N 
ATOM     12  C   UNL     1       5.005   4.272  17.913  0.00  0.00    +0.000 C 
ATOM     13  O   UNL     1       5.519   4.617  16.617  0.00  0.00    +0.000 OA
ATOM     14  C   UNL     1       5.964   5.975  16.569  0.00  0.00    +0.000 C 
ATOM     15  C   UNL     1       4.777   6.927  16.735  0.00  0.00    +0.000 C 
ATOM     16  C   UNL     1       0.844   9.183  19.195  0.00  0.00    +0.000 C 
ATOM     17  C   UNL     1       1.116  10.568  19.821  0.00  0.00    +0.000 C 
ATOM     18  H   UNL     1       1.847   5.740  20.815  0.00  0.00    +0.000 HD
ENDROOT
BRANCH   1  22
ATOM     19  C   UNL     1      -1.914  13.332  23.009  0.00  0.00    +0.000 A 
ATOM     20  C   UNL     1      -2.015  11.973  23.278  0.00  0.00    +0.000 A 
ATOM     21  C   UNL     1      -1.112  11.068  22.709  0.00  0.00    +0.000 A 
ATOM     22  C   UNL     1      -0.094  11.481  21.837  0.00  0.00    +0.000 A 
ATOM     23  C   UNL     1      -0.020  12.856  21.574  0.00  0.00    +0.000 A 
ATOM     24  C   UNL     1      -0.917  13.773  22.146  0.00  0.00    +0.000 A 
BRANCH  19  26
ATOM     25  C   UNL     1      -4.050  13.458  24.003  0.00  0.00    +0.000 C 
ATOM     26  O   UNL     1      -2.856  14.121  23.606  0.00  0.00    +0.000 OA
ENDBRANCH  19  26
ENDBRANCH   1  22
TORSDOF 2
ENDMDL
MODEL 8
REMARK VINA RESULT:      -6.9      2.281      9.372
REMARK  Name = 
REMARK  3 active torsions:
REMARK  status: ('A' for Active; 'I' for Inactive)
REMARK    1  A    between atoms: C_1  and  O_2
REMARK    2  A    between atoms: O_2  and  C_3
REMARK    3  A    between atoms: C_6  and  N_7
REMARK                            x       y       z     vdW  Elec       q    Type
REMARK                         _______ _______ _______ _____ _____    ______ ____
ROOT
ATOM      1  N   UNL     1       2.358   7.163  18.241  0.00  0.00    +0.000 N 
ATOM      2  C   UNL     1       1.802   6.958  19.587  0.00  0.00    +0.000 C 
ATOM      3  C   UNL     1       1.956   8.246  20.423  0.00  0.00    +0.000 C 
ATOM      4  N   UNL     1       1.367   9.408  19.736  0.00  0.00    +0.000 N 
ATOM      5  C   UNL     1       0.347  10.172  20.247  0.00  0.00    +0.000 A 
ATOM      6  N   UNL     1      -0.511  10.793  19.490  0.00  0.00    +0.000 NA
ATOM      7  C   UNL     1      -1.499  11.536  20.095  0.00  0.00    +0.000 A 
ATOM      8  C   UNL     1      -1.621  11.706  21.419  0.00  0.00    +0.000 A 
ATOM      9  C   UNL     1      -0.639  11.036  22.275  0.00  0.00    +0.000 A 
ATOM     10  O   UNL     1      -0.643  11.142  23.496  0.00  0.00    +0.000 OA
ATOM     11  N   UNL     1       0.277  10.277  21.611  0.00  0.00    +0.000 N 
ATOM     12  C   UNL     1      -2.674  12.534  22.075  0.00  0.00    +0.000 C 
ATOM     13  O   UNL     1      -3.381  13.353  21.130  0.00  0.00    +0.000 OA
ATOM     14  C   UNL     1      -3.761  12.612  19.969  0.00  0.00    +0.000 C 
ATOM     15  C   UNL     1      -2.519  12.176  19.187  0.00  0.00    +0.000 C 
ATOM     16  C   UNL     1       1.874   9.602  18.361  0.00  0.00    +0.000 C 
ATOM     17  C   UNL     1       1.778   8.311  17.519  0.00  0.00    +0.000 C 
ATOM     18  H   UNL     1       0.991   9.869  22.187  0.00  0.00    +0.000 HD
ENDROOT
BRANCH   1  22
ATOM     19  C   UNL     1       5.384   4.684  16.639  0.00  0.00    +0.000 A 
ATOM     20  C   UNL     1       5.503   6.067  16.596  0.00  0.00    +0.000 A 
ATOM     21  C   UNL     1       4.507   6.883  17.144  0.00  0.00    +0.000 A 
ATOM     22  C   UNL     1       3.350   6.351  17.733  0.00  0.00    +0.000 A 
ATOM     23  C   UNL     1       3.250   4.953  17.755  0.00  0.00    +0.000 A 
ATOM     24  C   UNL     1       4.247   4.126  17.214  0.00  0.00    +0.000 A 
BRANCH  19  26
ATOM     25  C   UNL     1       6.729   4.362  14.727  0.00  0.00    +0.000 C 
ATOM     26  O   UNL     1       6.408   3.987  16.062  0.00  0.00    +0.000 OA
ENDBRANCH  19  26
ENDBRANCH   1  22
TORSDOF 2
ENDMDL
MODEL 9
REMARK VINA RESULT:      -6.8      1.929      3.374
REMARK  Name = 
REMARK  3 active torsions:
REMARK  status: ('A' for Active; 'I' for Inactive)
REMARK    1  A    between atoms: C_1  and  O_2
REMARK    2  A    between atoms: O_2  and  C_3
REMARK    3  A    between atoms: C_6  and  N_7
REMARK                            x       y       z     vdW  Elec       q    Type
REMARK                         _______ _______ _______ _____ _____    ______ ____
ROOT
ATOM      1  N   UNL     1       0.768   9.892  20.744  0.00  0.00    +0.000 N 
ATOM      2  C   UNL     1       1.400   8.854  21.572  0.00  0.00    +0.000 C 
ATOM      3  C   UNL     1       1.301   7.484  20.867  0.00  0.00    +0.000 C 
ATOM      4  N   UNL     1       1.856   7.539  19.505  0.00  0.00    +0.000 N 
ATOM      5  C   UNL     1       2.908   6.772  19.067  0.00  0.00    +0.000 A 
ATOM      6  N   UNL     1       3.724   7.169  18.134  0.00  0.00    +0.000 NA
ATOM      7  C   UNL     1       4.750   6.330  17.763  0.00  0.00    +0.000 A 
ATOM      8  C   UNL     1       4.948   5.102  18.264  0.00  0.00    +0.000 A 
ATOM      9  C   UNL     1       4.014   4.637  19.291  0.00  0.00    +0.000 A 
ATOM     10  O   UNL     1       4.089   3.525  19.800  0.00  0.00    +0.000 OA
ATOM     11  N   UNL     1       3.057   5.540  19.646  0.00  0.00    +0.000 N 
ATOM     12  C   UNL     1       6.043   4.180  17.842  0.00  0.00    +0.000 C 
ATOM     13  O   UNL     1       6.698   4.634  16.647  0.00  0.00    +0.000 OA
ATOM     14  C   UNL     1       7.007   6.028  16.711  0.00  0.00    +0.000 C 
ATOM     15  C   UNL     1       5.720   6.856  16.734  0.00  0.00    +0.000 C 
ATOM     16  C   UNL     1       1.272   8.611  18.670  0.00  0.00    +0.000 C 
ATOM     17  C   UNL     1       1.313   9.983  19.376  0.00  0.00    +0.000 C 
ATOM     18  H   UNL     1       2.375   5.203  20.301  0.00  0.00    +0.000 HD
ENDROOT
BRANCH   1  22
ATOM     19  C   UNL     1      -2.341  12.350  22.211  0.00  0.00    +0.000 A 
ATOM     20  C   UNL     1      -2.018  12.346  20.860  0.00  0.00    +0.000 A 
ATOM     21  C   UNL     1      -0.999  11.517  20.378  0.00  0.00    +0.000 A 
ATOM     22  C   UNL     1      -0.255  10.681  21.224  0.00  0.00    +0.000 A 
ATOM     23  C   UNL     1      -0.596  10.712  22.584  0.00  0.00    +0.000 A 
ATOM     24  C   UNL     1      -1.621  11.535  23.077  0.00  0.00    +0.000 A 
BRANCH  19  26
ATOM     25  C   UNL     1      -4.617  12.940  22.004  0.00  0.00    +0.000 C 
ATOM     26  O   UNL     1      -3.341  13.209  22.573  0.00  0.00    +0.000 OA
ENDBRANCH  19  26
ENDBRANCH   1  22
TORSDOF 2
ENDMDL
