MODEL 1
REMARK VINA RESULT:      -8.3      0.000      0.000
REMARK  Name = 
REMARK  7 active torsions:
REMARK  status: ('A' for Active; 'I' for Inactive)
REMARK    1  A    between atoms: C_1  and  C_2
REMARK    2  A    between atoms: C_2  and  C_3
REMARK    3  A    between atoms: C_11  and  C_13
REMARK    4  A    between atoms: C_13  and  C_14
REMARK    5  A    between atoms: C_13  and  O_15
REMARK    6  A    between atoms: O_15  and  C_16
REMARK    7  A    between atoms: C_20  and  C_21
REMARK                            x       y       z     vdW  Elec       q    Type
REMARK                         _______ _______ _______ _____ _____    ______ ____
ROOT
ATOM      1  C   UNL     1       6.970   5.995  17.406  0.00  0.00    +0.000 A 
ATOM      2  N   UNL     1       7.083   5.696  16.127  0.00  0.00    +0.000 NA
ATOM      3  N   UNL     1       6.054   4.845  15.787  0.00  0.00    +0.000 NA
ATOM      4  C   UNL     1       5.326   4.638  16.862  0.00  0.00    +0.000 A 
ATOM      5  N   UNL     1       5.896   5.317  17.910  0.00  0.00    +0.000 N 
ATOM      6  C   UNL     1       5.374   5.287  19.259  0.00  0.00    +0.000 C 
ATOM      7  C   UNL     1       4.461   4.071  19.445  0.00  0.00    +0.000 C 
ATOM      8  N   UNL     1       3.498   3.997  18.337  0.00  0.00    +0.000 N 
ATOM      9  C   UNL     1       2.110   4.102  18.427  0.00  0.00    +0.000 C 
ATOM     10  O   UNL     1       1.399   4.001  17.423  0.00  0.00    +0.000 OA
ATOM     11  C   UNL     1       4.100   3.797  17.008  0.00  0.00    +0.000 C 
ENDROOT
BRANCH   1  13
ATOM     12  C   UNL     1       7.837   8.325  17.567  0.00  0.00    +0.000 C 
ATOM     13  C   UNL     1       7.835   6.931  18.171  0.00  0.00    +0.000 C 
ENDBRANCH   1  13
BRANCH   9  14
ATOM     14  C   UNL     1       1.483   4.382  19.810  0.00  0.00    +0.000 C 
ATOM     15  C   UNL     1       1.540   3.131  20.688  0.00  0.00    +0.000 C 
BRANCH  14  16
ATOM     16  O   UNL     1       2.199   5.452  20.437  0.00  0.00    +0.000 OA
BRANCH  16  17
ATOM     17  C   UNL     1       1.897   6.743  20.098  0.00  0.00    +0.000 A 
ATOM     18  C   UNL     1       2.098   7.316  18.843  0.00  0.00    +0.000 A 
ATOM     19  C   UNL     1       1.837   8.668  18.625  0.00  0.00    +0.000 A 
ATOM     20  C   UNL     1       1.337   9.457  19.656  0.00  0.00    +0.000 A 
ATOM     21  C   UNL     1       1.079   8.889  20.907  0.00  0.00    +0.000 A 
ATOM     22  C   UNL     1       1.369   7.533  21.128  0.00  0.00    +0.000 A 
BRANCH  21  23
ATOM     23  C   UNL     1       0.515   9.699  21.945  0.00  0.00    +0.000 C 
ATOM     24  N   UNL     1       0.028  10.341  22.786  0.00  0.00    +0.000 NA
ENDBRANCH  21  23
ENDBRANCH  16  17
ENDBRANCH  14  16
ENDBRANCH   9  14
TORSDOF 5
ENDMDL
MODEL 2
REMARK VINA RESULT:      -7.7      1.674      2.514
REMARK  Name = 
REMARK  7 active torsions:
REMARK  status: ('A' for Active; 'I' for Inactive)
REMARK    1  A    between atoms: C_1  and  C_2
REMARK    2  A    between atoms: C_2  and  C_3
REMARK    3  A    between atoms: C_11  and  C_13
REMARK    4  A    between atoms: C_13  and  C_14
REMARK    5  A    between atoms: C_13  and  O_15
REMARK    6  A    between atoms: O_15  and  C_16
REMARK    7  A    between atoms: C_20  and  C_21
REMARK                            x       y       z     vdW  Elec       q    Type
REMARK                         _______ _______ _______ _____ _____    ______ ____
ROOT
ATOM      1  C   UNL     1       6.840   4.900  15.562  0.00  0.00    +0.000 A 
ATOM      2  N   UNL     1       7.924   4.386  16.110  0.00  0.00    +0.000 NA
ATOM      3  N   UNL     1       7.783   4.430  17.479  0.00  0.00    +0.000 NA
ATOM      4  C   UNL     1       6.614   4.967  17.750  0.00  0.00    +0.000 A 
ATOM      5  N   UNL     1       6.009   5.310  16.566  0.00  0.00    +0.000 N 
ATOM      6  C   UNL     1       4.717   5.957  16.488  0.00  0.00    +0.000 C 
ATOM      7  C   UNL     1       4.377   6.620  17.826  0.00  0.00    +0.000 C 
ATOM      8  N   UNL     1       4.600   5.668  18.924  0.00  0.00    +0.000 N 
ATOM      9  C   UNL     1       3.638   5.156  19.796  0.00  0.00    +0.000 C 
ATOM     10  O   UNL     1       3.951   4.376  20.699  0.00  0.00    +0.000 OA
ATOM     11  C   UNL     1       5.995   5.226  19.085  0.00  0.00    +0.000 C 
ENDROOT
BRANCH   1  13
ATOM     12  C   UNL     1       5.886   3.730  13.580  0.00  0.00    +0.000 C 
ATOM     13  C   UNL     1       6.547   4.992  14.108  0.00  0.00    +0.000 C 
ENDBRANCH   1  13
BRANCH   9  14
ATOM     14  C   UNL     1       2.164   5.565  19.584  0.00  0.00    +0.000 C 
ATOM     15  C   UNL     1       1.267   4.327  19.535  0.00  0.00    +0.000 C 
BRANCH  14  16
ATOM     16  O   UNL     1       1.759   6.417  20.661  0.00  0.00    +0.000 OA
BRANCH  16  17
ATOM     17  C   UNL     1       1.402   7.710  20.387  0.00  0.00    +0.000 A 
ATOM     18  C   UNL     1       1.653   8.379  19.189  0.00  0.00    +0.000 A 
ATOM     19  C   UNL     1       1.326   9.727  19.042  0.00  0.00    +0.000 A 
ATOM     20  C   UNL     1       0.711  10.413  20.084  0.00  0.00    +0.000 A 
ATOM     21  C   UNL     1       0.404   9.746  21.274  0.00  0.00    +0.000 A 
ATOM     22  C   UNL     1       0.760   8.397  21.425  0.00  0.00    +0.000 A 
BRANCH  21  23
ATOM     23  C   UNL     1      -0.276  10.449  22.320  0.00  0.00    +0.000 C 
ATOM     24  N   UNL     1      -0.835  10.992  23.186  0.00  0.00    +0.000 NA
ENDBRANCH  21  23
ENDBRANCH  16  17
ENDBRANCH  14  16
ENDBRANCH   9  14
TORSDOF 5
ENDMDL
MODEL 3
REMARK VINA RESULT:      -7.2      1.326      1.871
REMARK  Name = 
REMARK  7 active torsions:
REMARK  status: ('A' for Active; 'I' for Inactive)
REMARK    1  A    between atoms: C_1  and  C_2
REMARK    2  A    between atoms: C_2  and  C_3
REMARK    3  A    between atoms: C_11  and  C_13
REMARK    4  A    between atoms: C_13  and  C_14
REMARK    5  A    between atoms: C_13  and  O_15
REMARK    6  A    between atoms: O_15  and  C_16
REMARK    7  A    between atoms: C_20  and  C_21
REMARK                            x       y       z     vdW  Elec       q    Type
REMARK                         _______ _______ _______ _____ _____    ______ ____
ROOT
ATOM      1  C   UNL     1       6.689   5.957  17.176  0.00  0.00    +0.000 A 
ATOM      2  N   UNL     1       6.745   5.595  15.910  0.00  0.00    +0.000 NA
ATOM      3  N   UNL     1       5.691   4.747  15.653  0.00  0.00    +0.000 NA
ATOM      4  C   UNL     1       5.003   4.606  16.765  0.00  0.00    +0.000 A 
ATOM      5  N   UNL     1       5.625   5.325  17.754  0.00  0.00    +0.000 N 
ATOM      6  C   UNL     1       5.157   5.370  19.123  0.00  0.00    +0.000 C 
ATOM      7  C   UNL     1       4.233   4.182  19.404  0.00  0.00    +0.000 C 
ATOM      8  N   UNL     1       3.225   4.071  18.339  0.00  0.00    +0.000 N 
ATOM      9  C   UNL     1       1.844   4.206  18.479  0.00  0.00    +0.000 C 
ATOM     10  O   UNL     1       1.092   4.069  17.510  0.00  0.00    +0.000 OA
ATOM     11  C   UNL     1       3.770   3.795  17.000  0.00  0.00    +0.000 C 
ENDROOT
BRANCH   1  13
ATOM     12  C   UNL     1       8.236   6.307  19.098  0.00  0.00    +0.000 C 
ATOM     13  C   UNL     1       7.599   6.914  17.859  0.00  0.00    +0.000 C 
ENDBRANCH   1  13
BRANCH   9  14
ATOM     14  C   UNL     1       1.277   4.564  19.870  0.00  0.00    +0.000 C 
ATOM     15  C   UNL     1       1.228   3.324  20.764  0.00  0.00    +0.000 C 
BRANCH  14  16
ATOM     16  O   UNL     1       2.110   5.564  20.467  0.00  0.00    +0.000 OA
BRANCH  16  17
ATOM     17  C   UNL     1       1.663   6.857  20.518  0.00  0.00    +0.000 A 
ATOM     18  C   UNL     1       0.886   7.403  21.539  0.00  0.00    +0.000 A 
ATOM     19  C   UNL     1       0.408   8.710  21.452  0.00  0.00    +0.000 A 
ATOM     20  C   UNL     1       0.732   9.499  20.352  0.00  0.00    +0.000 A 
ATOM     21  C   UNL     1       1.553   8.987  19.343  0.00  0.00    +0.000 A 
ATOM     22  C   UNL     1       2.009   7.662  19.424  0.00  0.00    +0.000 A 
BRANCH  21  23
ATOM     23  C   UNL     1       1.923   9.826  18.244  0.00  0.00    +0.000 C 
ATOM     24  N   UNL     1       2.193  10.523  17.350  0.00  0.00    +0.000 NA
ENDBRANCH  21  23
ENDBRANCH  16  17
ENDBRANCH  14  16
ENDBRANCH   9  14
TORSDOF 5
ENDMDL
MODEL 4
REMARK VINA RESULT:      -6.8      3.442      5.357
REMARK  Name = 
REMARK  7 active torsions:
REMARK  status: ('A' for Active; 'I' for Inactive)
REMARK    1  A    between atoms: C_1  and  C_2
REMARK    2  A    between atoms: C_2  and  C_3
REMARK    3  A    between atoms: C_11  and  C_13
REMARK    4  A    between atoms: C_13  and  C_14
REMARK    5  A    between atoms: C_13  and  O_15
REMARK    6  A    between atoms: O_15  and  C_16
REMARK    7  A    between atoms: C_20  and  C_21
REMARK                            x       y       z     vdW  Elec       q    Type
REMARK                         _______ _______ _______ _____ _____    ______ ____
ROOT
ATOM      1  C   UNL     1       6.294   4.183  13.088  0.00  0.00    +0.000 A 
ATOM      2  N   UNL     1       7.462   4.633  12.672  0.00  0.00    +0.000 NA
ATOM      3  N   UNL     1       8.056   5.321  13.707  0.00  0.00    +0.000 NA
ATOM      4  C   UNL     1       7.244   5.279  14.741  0.00  0.00    +0.000 A 
ATOM      5  N   UNL     1       6.109   4.602  14.374  0.00  0.00    +0.000 N 
ATOM      6  C   UNL     1       4.983   4.394  15.260  0.00  0.00    +0.000 C 
ATOM      7  C   UNL     1       5.022   5.403  16.411  0.00  0.00    +0.000 C 
ATOM      8  N   UNL     1       6.367   5.426  17.007  0.00  0.00    +0.000 N 
ATOM      9  C   UNL     1       6.709   5.069  18.311  0.00  0.00    +0.000 C 
ATOM     10  O   UNL     1       7.875   5.151  18.707  0.00  0.00    +0.000 OA
ATOM     11  C   UNL     1       7.437   5.871  16.099  0.00  0.00    +0.000 C 
ENDROOT
BRANCH   1  13
ATOM     12  C   UNL     1       6.044   2.135  11.690  0.00  0.00    +0.000 C 
ATOM     13  C   UNL     1       5.351   3.336  12.312  0.00  0.00    +0.000 C 
ENDBRANCH   1  13
BRANCH   9  14
ATOM     14  C   UNL     1       5.598   4.535  19.243  0.00  0.00    +0.000 C 
ATOM     15  C   UNL     1       4.399   5.484  19.244  0.00  0.00    +0.000 C 
BRANCH  14  16
ATOM     16  O   UNL     1       5.194   3.239  18.788  0.00  0.00    +0.000 OA
BRANCH  16  17
ATOM     17  C   UNL     1       3.872   2.892  18.858  0.00  0.00    +0.000 A 
ATOM     18  C   UNL     1       3.048   2.628  17.764  0.00  0.00    +0.000 A 
ATOM     19  C   UNL     1       1.689   2.369  17.940  0.00  0.00    +0.000 A 
ATOM     20  C   UNL     1       1.145   2.339  19.221  0.00  0.00    +0.000 A 
ATOM     21  C   UNL     1       1.965   2.550  20.333  0.00  0.00    +0.000 A 
ATOM     22  C   UNL     1       3.326   2.836  20.147  0.00  0.00    +0.000 A 
BRANCH  21  23
ATOM     23  C   UNL     1       1.404   2.464  21.647  0.00  0.00    +0.000 C 
ATOM     24  N   UNL     1       0.947   2.427  22.719  0.00  0.00    +0.000 NA
ENDBRANCH  21  23
ENDBRANCH  16  17
ENDBRANCH  14  16
ENDBRANCH   9  14
TORSDOF 5
ENDMDL
MODEL 5
REMARK VINA RESULT:      -6.8      3.132      7.545
REMARK  Name = 
REMARK  7 active torsions:
REMARK  status: ('A' for Active; 'I' for Inactive)
REMARK    1  A    between atoms: C_1  and  C_2
REMARK    2  A    between atoms: C_2  and  C_3
REMARK    3  A    between atoms: C_11  and  C_13
REMARK    4  A    between atoms: C_13  and  C_14
REMARK    5  A    between atoms: C_13  and  O_15
REMARK    6  A    between atoms: O_15  and  C_16
REMARK    7  A    between atoms: C_20  and  C_21
REMARK                            x       y       z     vdW  Elec       q    Type
REMARK                         _______ _______ _______ _____ _____    ______ ____
ROOT
ATOM      1  C   UNL     1       1.451   8.378  20.013  0.00  0.00    +0.000 A 
ATOM      2  N   UNL     1       0.998   7.773  21.094  0.00  0.00    +0.000 NA
ATOM      3  N   UNL     1       1.502   6.491  21.118  0.00  0.00    +0.000 NA
ATOM      4  C   UNL     1       2.258   6.332  20.054  0.00  0.00    +0.000 A 
ATOM      5  N   UNL     1       2.219   7.488  19.316  0.00  0.00    +0.000 N 
ATOM      6  C   UNL     1       2.914   7.657  18.058  0.00  0.00    +0.000 C 
ATOM      7  C   UNL     1       3.257   6.290  17.457  0.00  0.00    +0.000 C 
ATOM      8  N   UNL     1       3.886   5.441  18.479  0.00  0.00    +0.000 N 
ATOM      9  C   UNL     1       5.185   4.931  18.458  0.00  0.00    +0.000 C 
ATOM     10  O   UNL     1       5.597   4.206  19.367  0.00  0.00    +0.000 OA
ATOM     11  C   UNL     1       3.029   5.123  19.633  0.00  0.00    +0.000 C 
ENDROOT
BRANCH   1  13
ATOM     12  C   UNL     1      -0.201   9.999  19.089  0.00  0.00    +0.000 C 
ATOM     13  C   UNL     1       1.205   9.792  19.628  0.00  0.00    +0.000 C 
ENDBRANCH   1  13
BRANCH   9  14
ATOM     14  C   UNL     1       6.108   5.321  17.282  0.00  0.00    +0.000 C 
ATOM     15  C   UNL     1       7.433   5.878  17.805  0.00  0.00    +0.000 C 
BRANCH  14  16
ATOM     16  O   UNL     1       6.350   4.162  16.477  0.00  0.00    +0.000 OA
BRANCH  16  17
ATOM     17  C   UNL     1       6.641   4.324  15.150  0.00  0.00    +0.000 A 
ATOM     18  C   UNL     1       7.720   5.049  14.644  0.00  0.00    +0.000 A 
ATOM     19  C   UNL     1       7.878   5.228  13.269  0.00  0.00    +0.000 A 
ATOM     20  C   UNL     1       6.974   4.651  12.383  0.00  0.00    +0.000 A 
ATOM     21  C   UNL     1       5.916   3.877  12.869  0.00  0.00    +0.000 A 
ATOM     22  C   UNL     1       5.747   3.724  14.254  0.00  0.00    +0.000 A 
BRANCH  21  23
ATOM     23  C   UNL     1       5.023   3.246  11.945  0.00  0.00    +0.000 C 
ATOM     24  N   UNL     1       4.274   2.730  11.217  0.00  0.00    +0.000 NA
ENDBRANCH  21  23
ENDBRANCH  16  17
ENDBRANCH  14  16
ENDBRANCH   9  14
TORSDOF 5
ENDMDL
MODEL 6
REMARK VINA RESULT:      -6.6      7.353      9.718
REMARK  Name = 
REMARK  7 active torsions:
REMARK  status: ('A' for Active; 'I' for Inactive)
REMARK    1  A    between atoms: C_1  and  C_2
REMARK    2  A    between atoms: C_2  and  C_3
REMARK    3  A    between atoms: C_11  and  C_13
REMARK    4  A    between atoms: C_13  and  C_14
REMARK    5  A    between atoms: C_13  and  O_15
REMARK    6  A    between atoms: O_15  and  C_16
REMARK    7  A    between atoms: C_20  and  C_21
REMARK                            x       y       z     vdW  Elec       q    Type
REMARK                         _______ _______ _______ _____ _____    ______ ____
ROOT
ATOM      1  C   UNL     1      -4.469  11.538  17.204  0.00  0.00    +0.000 A 
ATOM      2  N   UNL     1      -3.855  11.208  16.084  0.00  0.00    +0.000 NA
ATOM      3  N   UNL     1      -2.506  11.104  16.341  0.00  0.00    +0.000 NA
ATOM      4  C   UNL     1      -2.314  11.368  17.615  0.00  0.00    +0.000 A 
ATOM      5  N   UNL     1      -3.524  11.683  18.180  0.00  0.00    +0.000 N 
ATOM      6  C   UNL     1      -3.683  12.061  19.569  0.00  0.00    +0.000 C 
ATOM      7  C   UNL     1      -2.342  12.523  20.146  0.00  0.00    +0.000 C 
ATOM      8  N   UNL     1      -1.295  11.544  19.819  0.00  0.00    +0.000 N 
ATOM      9  C   UNL     1      -0.557  10.776  20.719  0.00  0.00    +0.000 C 
ATOM     10  O   UNL     1       0.317   9.999  20.325  0.00  0.00    +0.000 OA
ATOM     11  C   UNL     1      -1.031  11.381  18.379  0.00  0.00    +0.000 C 
ENDROOT
BRANCH   1  13
ATOM     12  C   UNL     1      -6.405  13.099  17.052  0.00  0.00    +0.000 C 
ATOM     13  C   UNL     1      -5.935  11.695  17.392  0.00  0.00    +0.000 C 
ENDBRANCH   1  13
BRANCH   9  14
ATOM     14  C   UNL     1      -0.882  10.895  22.225  0.00  0.00    +0.000 C 
ATOM     15  C   UNL     1      -0.168   9.798  23.015  0.00  0.00    +0.000 C 
BRANCH  14  16
ATOM     16  O   UNL     1      -0.463  12.183  22.690  0.00  0.00    +0.000 OA
BRANCH  16  17
ATOM     17  C   UNL     1      -1.380  13.003  23.290  0.00  0.00    +0.000 A 
ATOM     18  C   UNL     1      -1.125  14.292  23.756  0.00  0.00    +0.000 A 
ATOM     19  C   UNL     1      -2.108  15.013  24.434  0.00  0.00    +0.000 A 
ATOM     20  C   UNL     1      -3.372  14.462  24.623  0.00  0.00    +0.000 A 
ATOM     21  C   UNL     1      -3.662  13.191  24.117  0.00  0.00    +0.000 A 
ATOM     22  C   UNL     1      -2.661  12.461  23.460  0.00  0.00    +0.000 A 
BRANCH  21  23
ATOM     23  C   UNL     1      -4.981  12.657  24.273  0.00  0.00    +0.000 C 
ATOM     24  N   UNL     1      -6.041  12.194  24.409  0.00  0.00    +0.000 NA
ENDBRANCH  21  23
ENDBRANCH  16  17
ENDBRANCH  14  16
ENDBRANCH   9  14
TORSDOF 5
ENDMDL
MODEL 7
REMARK VINA RESULT:      -6.6      1.739      2.269
REMARK  Name = 
REMARK  7 active torsions:
REMARK  status: ('A' for Active; 'I' for Inactive)
REMARK    1  A    between atoms: C_1  and  C_2
REMARK    2  A    between atoms: C_2  and  C_3
REMARK    3  A    between atoms: C_11  and  C_13
REMARK    4  A    between atoms: C_13  and  C_14
REMARK    5  A    between atoms: C_13  and  O_15
REMARK    6  A    between atoms: O_15  and  C_16
REMARK    7  A    between atoms: C_20  and  C_21
REMARK                            x       y       z     vdW  Elec       q    Type
REMARK                         _______ _______ _______ _____ _____    ______ ____
ROOT
ATOM      1  C   UNL     1       6.479   4.692  17.485  0.00  0.00    +0.000 A 
ATOM      2  N   UNL     1       6.353   4.497  16.187  0.00  0.00    +0.000 NA
ATOM      3  N   UNL     1       5.153   3.862  15.957  0.00  0.00    +0.000 NA
ATOM      4  C   UNL     1       4.560   3.681  17.116  0.00  0.00    +0.000 A 
ATOM      5  N   UNL     1       5.384   4.158  18.104  0.00  0.00    +0.000 N 
ATOM      6  C   UNL     1       5.062   4.091  19.514  0.00  0.00    +0.000 C 
ATOM      7  C   UNL     1       3.985   3.031  19.760  0.00  0.00    +0.000 C 
ATOM      8  N   UNL     1       2.876   3.219  18.813  0.00  0.00    +0.000 N 
ATOM      9  C   UNL     1       1.556   3.544  19.125  0.00  0.00    +0.000 C 
ATOM     10  O   UNL     1       0.703   3.653  18.240  0.00  0.00    +0.000 OA
ATOM     11  C   UNL     1       3.238   3.045  17.396  0.00  0.00    +0.000 C 
ENDROOT
BRANCH   1  13
ATOM     12  C   UNL     1       7.606   6.884  17.848  0.00  0.00    +0.000 C 
ATOM     13  C   UNL     1       7.596   5.399  18.166  0.00  0.00    +0.000 C 
ENDBRANCH   1  13
BRANCH   9  14
ATOM     14  C   UNL     1       1.191   3.796  20.605  0.00  0.00    +0.000 C 
ATOM     15  C   UNL     1       1.372   2.518  21.426  0.00  0.00    +0.000 C 
BRANCH  14  16
ATOM     16  O   UNL     1       2.035   4.831  21.121  0.00  0.00    +0.000 OA
BRANCH  16  17
ATOM     17  C   UNL     1       1.796   6.128  20.753  0.00  0.00    +0.000 A 
ATOM     18  C   UNL     1       0.990   7.028  21.449  0.00  0.00    +0.000 A 
ATOM     19  C   UNL     1       0.740   8.303  20.942  0.00  0.00    +0.000 A 
ATOM     20  C   UNL     1       1.323   8.703  19.744  0.00  0.00    +0.000 A 
ATOM     21  C   UNL     1       2.176   7.833  19.057  0.00  0.00    +0.000 A 
ATOM     22  C   UNL     1       2.402   6.543  19.560  0.00  0.00    +0.000 A 
BRANCH  21  23
ATOM     23  C   UNL     1       2.811   8.276  17.853  0.00  0.00    +0.000 C 
ATOM     24  N   UNL     1       3.307   8.661  16.872  0.00  0.00    +0.000 NA
ENDBRANCH  21  23
ENDBRANCH  16  17
ENDBRANCH  14  16
ENDBRANCH   9  14
TORSDOF 5
ENDMDL
MODEL 8
REMARK VINA RESULT:      -6.5      3.940      7.410
REMARK  Name = 
REMARK  7 active torsions:
REMARK  status: ('A' for Active; 'I' for Inactive)
REMARK    1  A    between atoms: C_1  and  C_2
REMARK    2  A    between atoms: C_2  and  C_3
REMARK    3  A    between atoms: C_11  and  C_13
REMARK    4  A    between atoms: C_13  and  C_14
REMARK    5  A    between atoms: C_13  and  O_15
REMARK    6  A    between atoms: O_15  and  C_16
REMARK    7  A    between atoms: C_20  and  C_21
REMARK                            x       y       z     vdW  Elec       q    Type
REMARK                         _______ _______ _______ _____ _____    ______ ____
ROOT
ATOM      1  C   UNL     1       1.159  13.923  20.081  0.00  0.00    +0.000 A 
ATOM      2  N   UNL     1       0.835  14.155  21.337  0.00  0.00    +0.000 NA
ATOM      3  N   UNL     1       0.467  12.962  21.919  0.00  0.00    +0.000 NA
ATOM      4  C   UNL     1       0.574  12.017  21.011  0.00  0.00    +0.000 A 
ATOM      5  N   UNL     1       0.971  12.593  19.831  0.00  0.00    +0.000 N 
ATOM      6  C   UNL     1       1.159  11.849  18.603  0.00  0.00    +0.000 C 
ATOM      7  C   UNL     1       0.412  10.515  18.675  0.00  0.00    +0.000 C 
ATOM      8  N   UNL     1       0.726   9.836  19.941  0.00  0.00    +0.000 N 
ATOM      9  C   UNL     1       1.380   8.613  20.095  0.00  0.00    +0.000 C 
ATOM     10  O   UNL     1       1.568   8.130  21.214  0.00  0.00    +0.000 OA
ATOM     11  C   UNL     1       0.296  10.556  21.151  0.00  0.00    +0.000 C 
ENDROOT
BRANCH   1  13
ATOM     12  C   UNL     1       3.126  15.278  19.370  0.00  0.00    +0.000 C 
ATOM     13  C   UNL     1       1.674  14.920  19.105  0.00  0.00    +0.000 C 
ENDBRANCH   1  13
BRANCH   9  14
ATOM     14  C   UNL     1       1.893   7.891  18.829  0.00  0.00    +0.000 C 
ATOM     15  C   UNL     1       2.670   8.860  17.937  0.00  0.00    +0.000 C 
BRANCH  14  16
ATOM     16  O   UNL     1       2.741   6.807  19.226  0.00  0.00    +0.000 OA
BRANCH  16  17
ATOM     17  C   UNL     1       2.285   5.523  19.089  0.00  0.00    +0.000 A 
ATOM     18  C   UNL     1       1.977   4.901  17.879  0.00  0.00    +0.000 A 
ATOM     19  C   UNL     1       1.435   3.616  17.855  0.00  0.00    +0.000 A 
ATOM     20  C   UNL     1       1.225   2.925  19.044  0.00  0.00    +0.000 A 
ATOM     21  C   UNL     1       1.575   3.512  20.264  0.00  0.00    +0.000 A 
ATOM     22  C   UNL     1       2.096   4.815  20.283  0.00  0.00    +0.000 A 
BRANCH  21  23
ATOM     23  C   UNL     1       1.403   2.770  21.477  0.00  0.00    +0.000 C 
ATOM     24  N   UNL     1       1.252   2.141  22.445  0.00  0.00    +0.000 NA
ENDBRANCH  21  23
ENDBRANCH  16  17
ENDBRANCH  14  16
ENDBRANCH   9  14
TORSDOF 5
ENDMDL
MODEL 9
REMARK VINA RESULT:      -6.5      2.006      6.565
REMARK  Name = 
REMARK  7 active torsions:
REMARK  status: ('A' for Active; 'I' for Inactive)
REMARK    1  A    between atoms: C_1  and  C_2
REMARK    2  A    between atoms: C_2  and  C_3
REMARK    3  A    between atoms: C_11  and  C_13
REMARK    4  A    between atoms: C_13  and  C_14
REMARK    5  A    between atoms: C_13  and  O_15
REMARK    6  A    between atoms: O_15  and  C_16
REMARK    7  A    between atoms: C_20  and  C_21
REMARK                            x       y       z     vdW  Elec       q    Type
REMARK                         _______ _______ _______ _____ _____    ______ ____
ROOT
ATOM      1  C   UNL     1       0.622   9.925  20.119  0.00  0.00    +0.000 A 
ATOM      2  N   UNL     1       0.276  10.531  19.001  0.00  0.00    +0.000 NA
ATOM      3  N   UNL     1       0.676   9.748  17.940  0.00  0.00    +0.000 NA
ATOM      4  C   UNL     1       1.258   8.673  18.426  0.00  0.00    +0.000 A 
ATOM      5  N   UNL     1       1.275   8.770  19.794  0.00  0.00    +0.000 N 
ATOM      6  C   UNL     1       1.872   7.773  20.658  0.00  0.00    +0.000 C 
ATOM      7  C   UNL     1       2.859   6.911  19.865  0.00  0.00    +0.000 C 
ATOM      8  N   UNL     1       2.229   6.449  18.619  0.00  0.00    +0.000 N 
ATOM      9  C   UNL     1       1.957   5.129  18.259  0.00  0.00    +0.000 C 
ATOM     10  O   UNL     1       1.442   4.861  17.171  0.00  0.00    +0.000 OA
ATOM     11  C   UNL     1       1.853   7.521  17.683  0.00  0.00    +0.000 C 
ENDROOT
BRANCH   1  13
ATOM     12  C   UNL     1      -0.276  11.784  21.514  0.00  0.00    +0.000 C 
ATOM     13  C   UNL     1       0.329  10.391  21.500  0.00  0.00    +0.000 C 
ENDBRANCH   1  13
BRANCH   9  14
ATOM     14  C   UNL     1       2.287   4.009  19.271  0.00  0.00    +0.000 C 
ATOM     15  C   UNL     1       1.030   3.207  19.610  0.00  0.00    +0.000 C 
BRANCH  14  16
ATOM     16  O   UNL     1       3.277   3.146  18.701  0.00  0.00    +0.000 OA
BRANCH  16  17
ATOM     17  C   UNL     1       4.454   3.687  18.258  0.00  0.00    +0.000 A 
ATOM     18  C   UNL     1       5.388   4.350  19.055  0.00  0.00    +0.000 A 
ATOM     19  C   UNL     1       6.516   4.943  18.489  0.00  0.00    +0.000 A 
ATOM     20  C   UNL     1       6.740   4.851  17.119  0.00  0.00    +0.000 A 
ATOM     21  C   UNL     1       5.842   4.147  16.311  0.00  0.00    +0.000 A 
ATOM     22  C   UNL     1       4.695   3.574  16.882  0.00  0.00    +0.000 A 
BRANCH  21  23
ATOM     23  C   UNL     1       6.111   4.014  14.910  0.00  0.00    +0.000 C 
ATOM     24  N   UNL     1       6.345   3.877  13.778  0.00  0.00    +0.000 NA
ENDBRANCH  21  23
ENDBRANCH  16  17
ENDBRANCH  14  16
ENDBRANCH   9  14
TORSDOF 5
ENDMDL
