MODEL 1
REMARK VINA RESULT:      -9.1      0.000      0.000
REMARK  Name = 
REMARK  6 active torsions:
REMARK  status: ('A' for Active; 'I' for Inactive)
REMARK    1  A    between atoms: C_2  and  C_3
REMARK    2  A    between atoms: C_3  and  C_17
REMARK    3  A    between atoms: N_4  and  N_5
REMARK    4  A    between atoms: N_5  and  C_6
REMARK    5  A    between atoms: C_8  and  C_9
REMARK    6  A    between atoms: C_17  and  C_19
REMARK                            x       y       z     vdW  Elec       q    Type
REMARK                         _______ _______ _______ _____ _____    ______ ____
ROOT
ATOM      1  C   UNL     1       6.026   4.810  16.815  0.00  0.00    +0.000 C 
ATOM      2  N   UNL     1       6.399   5.239  17.992  0.00  0.00    +0.000 NA
ENDROOT
BRANCH   1   4
ATOM      3  N   UNL     1       7.613   5.144  14.751  0.00  0.00    +0.000 NA
ATOM      4  C   UNL     1       6.947   4.977  15.697  0.00  0.00    +0.000 C 
ENDBRANCH   1   4
BRANCH   2   5
ATOM      5  N   UNL     1       7.653   5.803  18.125  0.00  0.00    +0.000 N 
ATOM      6  H   UNL     1       8.472   5.225  18.351  0.00  0.00    +0.000 HD
BRANCH   5   7
ATOM      7  C   UNL     1       7.877   7.138  18.127  0.00  0.00    +0.000 A 
ATOM      8  C   UNL     1       8.614   7.939  18.966  0.00  0.00    +0.000 A 
ATOM      9  C   UNL     1       8.543   9.255  18.419  0.00  0.00    +0.000 A 
ATOM     10  N   UNL     1       7.741   9.260  17.337  0.00  0.00    +0.000 NA
ATOM     11  N   UNL     1       7.356   7.983  17.194  0.00  0.00    +0.000 N 
ATOM     12  H   UNL     1       6.734   7.729  16.434  0.00  0.00    +0.000 HD
BRANCH   9  13
ATOM     13  C   UNL     1       9.223  10.475  18.886  0.00  0.00    +0.000 A 
ATOM     14  C   UNL     1       9.573  10.656  20.232  0.00  0.00    +0.000 A 
ATOM     15  C   UNL     1      10.245  11.806  20.660  0.00  0.00    +0.000 A 
ATOM     16  C   UNL     1      10.591  12.792  19.742  0.00  0.00    +0.000 A 
ATOM     17  C   UNL     1      10.256  12.644  18.390  0.00  0.00    +0.000 A 
ATOM     18  C   UNL     1       9.559  11.495  17.980  0.00  0.00    +0.000 A 
ENDBRANCH   9  13
ENDBRANCH   5   7
ENDBRANCH   2   5
BRANCH   1  19
ATOM     19  C   UNL     1       4.804   3.984  16.599  0.00  0.00    +0.000 C 
ATOM     20  O   UNL     1       4.605   3.785  15.393  0.00  0.00    +0.000 OA
BRANCH  19  21
ATOM     21  C   UNL     1       3.808   3.495  17.558  0.00  0.00    +0.000 A 
ATOM     22  C   UNL     1       3.639   2.114  17.661  0.00  0.00    +0.000 A 
ATOM     23  N   UNL     1       2.318   1.966  17.942  0.00  0.00    +0.000 N 
ATOM     24  C   UNL     1       2.020   2.938  18.857  0.00  0.00    +0.000 A 
ATOM     25  C   UNL     1       1.040   2.943  19.852  0.00  0.00    +0.000 A 
ATOM     26  C   UNL     1       0.981   4.070  20.660  0.00  0.00    +0.000 A 
ATOM     27  C   UNL     1       1.803   5.167  20.399  0.00  0.00    +0.000 A 
ATOM     28  C   UNL     1       2.739   5.168  19.337  0.00  0.00    +0.000 A 
ATOM     29  C   UNL     1       2.915   3.991  18.580  0.00  0.00    +0.000 A 
ATOM     30  H   UNL     1       1.724   1.199  17.660  0.00  0.00    +0.000 HD
ENDBRANCH  19  21
ENDBRANCH   1  19
TORSDOF 6
ENDMDL
MODEL 2
REMARK VINA RESULT:      -8.9      2.123      3.374
REMARK  Name = 
REMARK  6 active torsions:
REMARK  status: ('A' for Active; 'I' for Inactive)
REMARK    1  A    between atoms: C_2  and  C_3
REMARK    2  A    between atoms: C_3  and  C_17
REMARK    3  A    between atoms: N_4  and  N_5
REMARK    4  A    between atoms: N_5  and  C_6
REMARK    5  A    between atoms: C_8  and  C_9
REMARK    6  A    between atoms: C_17  and  C_19
REMARK                            x       y       z     vdW  Elec       q    Type
REMARK                         _______ _______ _______ _____ _____    ______ ____
ROOT
ATOM      1  C   UNL     1       7.170   6.726  17.870  0.00  0.00    +0.000 C 
ATOM      2  N   UNL     1       7.743   7.890  17.713  0.00  0.00    +0.000 NA
ENDROOT
BRANCH   1   4
ATOM      3  N   UNL     1       7.867   5.374  20.009  0.00  0.00    +0.000 NA
ATOM      4  C   UNL     1       7.522   5.938  19.045  0.00  0.00    +0.000 C 
ENDBRANCH   1   4
BRANCH   2   5
ATOM      5  N   UNL     1       8.630   8.328  18.677  0.00  0.00    +0.000 N 
ATOM      6  H   UNL     1       8.993   7.686  19.394  0.00  0.00    +0.000 HD
BRANCH   5   7
ATOM      7  C   UNL     1       8.964   9.628  18.853  0.00  0.00    +0.000 A 
ATOM      8  C   UNL     1       8.945  10.700  17.993  0.00  0.00    +0.000 A 
ATOM      9  C   UNL     1       9.330  11.835  18.768  0.00  0.00    +0.000 A 
ATOM     10  N   UNL     1       9.633  11.452  20.023  0.00  0.00    +0.000 NA
ATOM     11  N   UNL     1       9.410  10.130  20.038  0.00  0.00    +0.000 N 
ATOM     12  H   UNL     1       9.574   9.603  20.890  0.00  0.00    +0.000 HD
BRANCH   9  13
ATOM     13  C   UNL     1       9.393  13.246  18.351  0.00  0.00    +0.000 A 
ATOM     14  C   UNL     1       8.292  14.105  18.484  0.00  0.00    +0.000 A 
ATOM     15  C   UNL     1       8.371  15.451  18.111  0.00  0.00    +0.000 A 
ATOM     16  C   UNL     1       9.562  15.964  17.608  0.00  0.00    +0.000 A 
ATOM     17  C   UNL     1      10.680  15.134  17.461  0.00  0.00    +0.000 A 
ATOM     18  C   UNL     1      10.577  13.779  17.817  0.00  0.00    +0.000 A 
ENDBRANCH   9  13
ENDBRANCH   5   7
ENDBRANCH   2   5
BRANCH   1  19
ATOM     19  C   UNL     1       6.035   6.257  17.026  0.00  0.00    +0.000 C 
ATOM     20  O   UNL     1       6.331   6.284  15.824  0.00  0.00    +0.000 OA
BRANCH  19  21
ATOM     21  C   UNL     1       4.664   5.891  17.397  0.00  0.00    +0.000 A 
ATOM     22  C   UNL     1       3.734   6.923  17.518  0.00  0.00    +0.000 A 
ATOM     23  N   UNL     1       2.907   6.503  18.510  0.00  0.00    +0.000 N 
ATOM     24  C   UNL     1       2.688   5.173  18.275  0.00  0.00    +0.000 A 
ATOM     25  C   UNL     1       1.580   4.389  18.604  0.00  0.00    +0.000 A 
ATOM     26  C   UNL     1       1.624   3.057  18.216  0.00  0.00    +0.000 A 
ATOM     27  C   UNL     1       2.774   2.535  17.622  0.00  0.00    +0.000 A 
ATOM     28  C   UNL     1       3.914   3.333  17.365  0.00  0.00    +0.000 A 
ATOM     29  C   UNL     1       3.853   4.717  17.628  0.00  0.00    +0.000 A 
ATOM     30  H   UNL     1       2.425   7.085  19.181  0.00  0.00    +0.000 HD
ENDBRANCH  19  21
ENDBRANCH   1  19
TORSDOF 6
ENDMDL
MODEL 3
REMARK VINA RESULT:      -8.8      2.107      3.354
REMARK  Name = 
REMARK  6 active torsions:
REMARK  status: ('A' for Active; 'I' for Inactive)
REMARK    1  A    between atoms: C_2  and  C_3
REMARK    2  A    between atoms: C_3  and  C_17
REMARK    3  A    between atoms: N_4  and  N_5
REMARK    4  A    between atoms: N_5  and  C_6
REMARK    5  A    between atoms: C_8  and  C_9
REMARK    6  A    between atoms: C_17  and  C_19
REMARK                            x       y       z     vdW  Elec       q    Type
REMARK                         _______ _______ _______ _____ _____    ______ ____
ROOT
ATOM      1  C   UNL     1       6.841   6.949  17.578  0.00  0.00    +0.000 C 
ATOM      2  N   UNL     1       7.427   8.115  17.491  0.00  0.00    +0.000 NA
ENDROOT
BRANCH   1   4
ATOM      3  N   UNL     1       7.681   5.274  19.415  0.00  0.00    +0.000 NA
ATOM      4  C   UNL     1       7.341   5.999  18.564  0.00  0.00    +0.000 C 
ENDBRANCH   1   4
BRANCH   2   5
ATOM      5  N   UNL     1       8.469   8.398  18.353  0.00  0.00    +0.000 N 
ATOM      6  H   UNL     1       8.910   7.658  18.913  0.00  0.00    +0.000 HD
BRANCH   5   7
ATOM      7  C   UNL     1       8.880   9.656  18.643  0.00  0.00    +0.000 A 
ATOM      8  C   UNL     1       9.064  10.762  17.848  0.00  0.00    +0.000 A 
ATOM      9  C   UNL     1       9.431  11.823  18.729  0.00  0.00    +0.000 A 
ATOM     10  N   UNL     1       9.530  11.360  19.990  0.00  0.00    +0.000 NA
ATOM     11  N   UNL     1       9.201  10.063  19.902  0.00  0.00    +0.000 N 
ATOM     12  H   UNL     1       9.204   9.487  20.738  0.00  0.00    +0.000 HD
BRANCH   9  13
ATOM     13  C   UNL     1       9.664  13.240  18.402  0.00  0.00    +0.000 A 
ATOM     14  C   UNL     1      10.686  13.637  17.527  0.00  0.00    +0.000 A 
ATOM     15  C   UNL     1      10.881  14.984  17.201  0.00  0.00    +0.000 A 
ATOM     16  C   UNL     1      10.045  15.958  17.737  0.00  0.00    +0.000 A 
ATOM     17  C   UNL     1       9.015  15.596  18.614  0.00  0.00    +0.000 A 
ATOM     18  C   UNL     1       8.848  14.242  18.952  0.00  0.00    +0.000 A 
ENDBRANCH   9  13
ENDBRANCH   5   7
ENDBRANCH   2   5
BRANCH   1  19
ATOM     19  C   UNL     1       5.572   6.621  16.868  0.00  0.00    +0.000 C 
ATOM     20  O   UNL     1       5.653   6.885  15.662  0.00  0.00    +0.000 OA
BRANCH  19  21
ATOM     21  C   UNL     1       4.284   6.156  17.394  0.00  0.00    +0.000 A 
ATOM     22  C   UNL     1       3.359   7.127  17.780  0.00  0.00    +0.000 A 
ATOM     23  N   UNL     1       2.706   6.559  18.825  0.00  0.00    +0.000 N 
ATOM     24  C   UNL     1       2.485   5.258  18.465  0.00  0.00    +0.000 A 
ATOM     25  C   UNL     1       1.460   4.394  18.859  0.00  0.00    +0.000 A 
ATOM     26  C   UNL     1       1.476   3.120  18.309  0.00  0.00    +0.000 A 
ATOM     27  C   UNL     1       2.533   2.720  17.490  0.00  0.00    +0.000 A 
ATOM     28  C   UNL     1       3.600   3.591  17.163  0.00  0.00    +0.000 A 
ATOM     29  C   UNL     1       3.547   4.931  17.599  0.00  0.00    +0.000 A 
ATOM     30  H   UNL     1       2.319   7.037  19.627  0.00  0.00    +0.000 HD
ENDBRANCH  19  21
ENDBRANCH   1  19
TORSDOF 6
ENDMDL
MODEL 4
REMARK VINA RESULT:      -8.7      1.974      2.953
REMARK  Name = 
REMARK  6 active torsions:
REMARK  status: ('A' for Active; 'I' for Inactive)
REMARK    1  A    between atoms: C_2  and  C_3
REMARK    2  A    between atoms: C_3  and  C_17
REMARK    3  A    between atoms: N_4  and  N_5
REMARK    4  A    between atoms: N_5  and  C_6
REMARK    5  A    between atoms: C_8  and  C_9
REMARK    6  A    between atoms: C_17  and  C_19
REMARK                            x       y       z     vdW  Elec       q    Type
REMARK                         _______ _______ _______ _____ _____    ______ ____
ROOT
ATOM      1  C   UNL     1       7.037   6.664  17.916  0.00  0.00    +0.000 C 
ATOM      2  N   UNL     1       7.638   7.803  17.693  0.00  0.00    +0.000 NA
ENDROOT
BRANCH   1   4
ATOM      3  N   UNL     1       7.795   5.356  20.061  0.00  0.00    +0.000 NA
ATOM      4  C   UNL     1       7.416   5.907  19.103  0.00  0.00    +0.000 C 
ENDBRANCH   1   4
BRANCH   2   5
ATOM      5  N   UNL     1       8.579   8.246  18.603  0.00  0.00    +0.000 N 
ATOM      6  H   UNL     1       9.002   7.601  19.282  0.00  0.00    +0.000 HD
BRANCH   5   7
ATOM      7  C   UNL     1       8.896   9.550  18.777  0.00  0.00    +0.000 A 
ATOM      8  C   UNL     1       8.786  10.636  17.942  0.00  0.00    +0.000 A 
ATOM      9  C   UNL     1       9.205  11.766  18.707  0.00  0.00    +0.000 A 
ATOM     10  N   UNL     1       9.614  11.369  19.927  0.00  0.00    +0.000 NA
ATOM     11  N   UNL     1       9.422  10.042  19.933  0.00  0.00    +0.000 N 
ATOM     12  H   UNL     1       9.663   9.504  20.760  0.00  0.00    +0.000 HD
BRANCH   9  13
ATOM     13  C   UNL     1       9.203  13.186  18.313  0.00  0.00    +0.000 A 
ATOM     14  C   UNL     1       8.019  13.934  18.256  0.00  0.00    +0.000 A 
ATOM     15  C   UNL     1       8.032  15.289  17.908  0.00  0.00    +0.000 A 
ATOM     16  C   UNL     1       9.237  15.923  17.624  0.00  0.00    +0.000 A 
ATOM     17  C   UNL     1      10.439  15.205  17.672  0.00  0.00    +0.000 A 
ATOM     18  C   UNL     1      10.406  13.839  17.998  0.00  0.00    +0.000 A 
ENDBRANCH   9  13
ENDBRANCH   5   7
ENDBRANCH   2   5
BRANCH   1  19
ATOM     19  C   UNL     1       5.853   6.202  17.137  0.00  0.00    +0.000 C 
ATOM     20  O   UNL     1       5.789   6.771  16.040  0.00  0.00    +0.000 OA
BRANCH  19  21
ATOM     21  C   UNL     1       4.762   5.298  17.517  0.00  0.00    +0.000 A 
ATOM     22  C   UNL     1       4.751   4.027  16.941  0.00  0.00    +0.000 A 
ATOM     23  N   UNL     1       3.430   3.736  16.817  0.00  0.00    +0.000 N 
ATOM     24  C   UNL     1       2.844   4.158  17.979  0.00  0.00    +0.000 A 
ATOM     25  C   UNL     1       1.700   3.673  18.617  0.00  0.00    +0.000 A 
ATOM     26  C   UNL     1       1.347   4.287  19.811  0.00  0.00    +0.000 A 
ATOM     27  C   UNL     1       2.060   5.396  20.269  0.00  0.00    +0.000 A 
ATOM     28  C   UNL     1       3.173   5.915  19.566  0.00  0.00    +0.000 A 
ATOM     29  C   UNL     1       3.636   5.236  18.420  0.00  0.00    +0.000 A 
ATOM     30  H   UNL     1       3.001   3.179  16.091  0.00  0.00    +0.000 HD
ENDBRANCH  19  21
ENDBRANCH   1  19
TORSDOF 6
ENDMDL
MODEL 5
REMARK VINA RESULT:      -8.7      1.294      1.674
REMARK  Name = 
REMARK  6 active torsions:
REMARK  status: ('A' for Active; 'I' for Inactive)
REMARK    1  A    between atoms: C_2  and  C_3
REMARK    2  A    between atoms: C_3  and  C_17
REMARK    3  A    between atoms: N_4  and  N_5
REMARK    4  A    between atoms: N_5  and  C_6
REMARK    5  A    between atoms: C_8  and  C_9
REMARK    6  A    between atoms: C_17  and  C_19
REMARK                            x       y       z     vdW  Elec       q    Type
REMARK                         _______ _______ _______ _____ _____    ______ ____
ROOT
ATOM      1  C   UNL     1       5.284   5.598  17.167  0.00  0.00    +0.000 C 
ATOM      2  N   UNL     1       6.483   5.977  16.811  0.00  0.00    +0.000 NA
ENDROOT
BRANCH   1   4
ATOM      3  N   UNL     1       3.511   7.483  17.605  0.00  0.00    +0.000 NA
ATOM      4  C   UNL     1       4.295   6.628  17.460  0.00  0.00    +0.000 C 
ENDBRANCH   1   4
BRANCH   2   5
ATOM      5  N   UNL     1       6.746   7.329  16.702  0.00  0.00    +0.000 N 
ATOM      6  H   UNL     1       6.394   7.875  15.906  0.00  0.00    +0.000 HD
BRANCH   5   7
ATOM      7  C   UNL     1       7.594   7.995  17.522  0.00  0.00    +0.000 A 
ATOM      8  C   UNL     1       8.030   9.298  17.520  0.00  0.00    +0.000 A 
ATOM      9  C   UNL     1       8.852   9.441  18.678  0.00  0.00    +0.000 A 
ATOM     10  N   UNL     1       8.963   8.258  19.311  0.00  0.00    +0.000 NA
ATOM     11  N   UNL     1       8.205   7.416  18.592  0.00  0.00    +0.000 N 
ATOM     12  H   UNL     1       8.129   6.444  18.875  0.00  0.00    +0.000 HD
BRANCH   9  13
ATOM     13  C   UNL     1       9.504  10.659  19.190  0.00  0.00    +0.000 A 
ATOM     14  C   UNL     1       9.455  11.006  20.548  0.00  0.00    +0.000 A 
ATOM     15  C   UNL     1      10.100  12.151  21.028  0.00  0.00    +0.000 A 
ATOM     16  C   UNL     1      10.820  12.961  20.157  0.00  0.00    +0.000 A 
ATOM     17  C   UNL     1      10.889  12.644  18.795  0.00  0.00    +0.000 A 
ATOM     18  C   UNL     1      10.214  11.506  18.323  0.00  0.00    +0.000 A 
ENDBRANCH   9  13
ENDBRANCH   5   7
ENDBRANCH   2   5
BRANCH   1  19
ATOM     19  C   UNL     1       4.823   4.183  17.094  0.00  0.00    +0.000 C 
ATOM     20  O   UNL     1       5.285   3.612  16.097  0.00  0.00    +0.000 OA
BRANCH  19  21
ATOM     21  C   UNL     1       3.868   3.452  17.934  0.00  0.00    +0.000 A 
ATOM     22  C   UNL     1       3.650   2.106  17.637  0.00  0.00    +0.000 A 
ATOM     23  N   UNL     1       2.344   1.909  17.953  0.00  0.00    +0.000 N 
ATOM     24  C   UNL     1       2.141   2.572  19.132  0.00  0.00    +0.000 A 
ATOM     25  C   UNL     1       1.224   2.302  20.151  0.00  0.00    +0.000 A 
ATOM     26  C   UNL     1       1.259   3.140  21.257  0.00  0.00    +0.000 A 
ATOM     27  C   UNL     1       2.107   4.249  21.273  0.00  0.00    +0.000 A 
ATOM     28  C   UNL     1       2.976   4.544  20.196  0.00  0.00    +0.000 A 
ATOM     29  C   UNL     1       3.059   3.641  19.116  0.00  0.00    +0.000 A 
ATOM     30  H   UNL     1       1.703   1.272  17.501  0.00  0.00    +0.000 HD
ENDBRANCH  19  21
ENDBRANCH   1  19
TORSDOF 6
ENDMDL
MODEL 6
REMARK VINA RESULT:      -8.6      4.443      7.543
REMARK  Name = 
REMARK  6 active torsions:
REMARK  status: ('A' for Active; 'I' for Inactive)
REMARK    1  A    between atoms: C_2  and  C_3
REMARK    2  A    between atoms: C_3  and  C_17
REMARK    3  A    between atoms: N_4  and  N_5
REMARK    4  A    between atoms: N_5  and  C_6
REMARK    5  A    between atoms: C_8  and  C_9
REMARK    6  A    between atoms: C_17  and  C_19
REMARK                            x       y       z     vdW  Elec       q    Type
REMARK                         _______ _______ _______ _____ _____    ______ ____
ROOT
ATOM      1  C   UNL     1       3.622   5.294  17.632  0.00  0.00    +0.000 C 
ATOM      2  N   UNL     1       3.696   6.593  17.763  0.00  0.00    +0.000 NA
ENDROOT
BRANCH   1   4
ATOM      3  N   UNL     1       1.283   4.107  17.543  0.00  0.00    +0.000 NA
ATOM      4  C   UNL     1       2.300   4.682  17.586  0.00  0.00    +0.000 C 
ENDBRANCH   1   4
BRANCH   2   5
ATOM      5  N   UNL     1       2.524   7.321  17.825  0.00  0.00    +0.000 N 
ATOM      6  H   UNL     1       2.021   7.588  16.969  0.00  0.00    +0.000 HD
BRANCH   5   7
ATOM      7  C   UNL     1       2.038   7.862  18.966  0.00  0.00    +0.000 A 
ATOM      8  C   UNL     1       1.383   9.046  19.208  0.00  0.00    +0.000 A 
ATOM      9  C   UNL     1       1.044   9.034  20.595  0.00  0.00    +0.000 A 
ATOM     10  N   UNL     1       1.534   7.922  21.177  0.00  0.00    +0.000 NA
ATOM     11  N   UNL     1       2.125   7.249  20.179  0.00  0.00    +0.000 N 
ATOM     12  H   UNL     1       2.579   6.362  20.373  0.00  0.00    +0.000 HD
BRANCH   9  13
ATOM     13  C   UNL     1       0.265  10.028  21.353  0.00  0.00    +0.000 A 
ATOM     14  C   UNL     1      -0.407   9.691  22.537  0.00  0.00    +0.000 A 
ATOM     15  C   UNL     1      -1.121  10.649  23.264  0.00  0.00    +0.000 A 
ATOM     16  C   UNL     1      -1.163  11.968  22.824  0.00  0.00    +0.000 A 
ATOM     17  C   UNL     1      -0.503  12.338  21.645  0.00  0.00    +0.000 A 
ATOM     18  C   UNL     1       0.189  11.359  20.912  0.00  0.00    +0.000 A 
ENDBRANCH   9  13
ENDBRANCH   5   7
ENDBRANCH   2   5
BRANCH   1  19
ATOM     19  C   UNL     1       4.803   4.438  17.326  0.00  0.00    +0.000 C 
ATOM     20  O   UNL     1       4.976   3.583  18.204  0.00  0.00    +0.000 OA
BRANCH  19  21
ATOM     21  C   UNL     1       5.790   4.535  16.244  0.00  0.00    +0.000 A 
ATOM     22  C   UNL     1       7.095   4.878  16.595  0.00  0.00    +0.000 A 
ATOM     23  N   UNL     1       7.540   5.599  15.533  0.00  0.00    +0.000 N 
ATOM     24  C   UNL     1       7.095   4.939  14.421  0.00  0.00    +0.000 A 
ATOM     25  C   UNL     1       7.652   4.891  13.141  0.00  0.00    +0.000 A 
ATOM     26  C   UNL     1       6.988   4.112  12.203  0.00  0.00    +0.000 A 
ATOM     27  C   UNL     1       5.773   3.504  12.526  0.00  0.00    +0.000 A 
ATOM     28  C   UNL     1       5.191   3.627  13.811  0.00  0.00    +0.000 A 
ATOM     29  C   UNL     1       5.904   4.303  14.823  0.00  0.00    +0.000 A 
ATOM     30  H   UNL     1       8.198   6.366  15.558  0.00  0.00    +0.000 HD
ENDBRANCH  19  21
ENDBRANCH   1  19
TORSDOF 6
ENDMDL
MODEL 7
REMARK VINA RESULT:      -8.6      4.485      7.415
REMARK  Name = 
REMARK  6 active torsions:
REMARK  status: ('A' for Active; 'I' for Inactive)
REMARK    1  A    between atoms: C_2  and  C_3
REMARK    2  A    between atoms: C_3  and  C_17
REMARK    3  A    between atoms: N_4  and  N_5
REMARK    4  A    between atoms: N_5  and  C_6
REMARK    5  A    between atoms: C_8  and  C_9
REMARK    6  A    between atoms: C_17  and  C_19
REMARK                            x       y       z     vdW  Elec       q    Type
REMARK                         _______ _______ _______ _____ _____    ______ ____
ROOT
ATOM      1  C   UNL     1       4.439   5.174  18.051  0.00  0.00    +0.000 C 
ATOM      2  N   UNL     1       3.267   5.653  18.377  0.00  0.00    +0.000 NA
ENDROOT
BRANCH   1   4
ATOM      3  N   UNL     1       6.383   5.282  19.810  0.00  0.00    +0.000 NA
ATOM      4  C   UNL     1       5.522   5.285  19.019  0.00  0.00    +0.000 C 
ENDBRANCH   1   4
BRANCH   2   5
ATOM      5  N   UNL     1       3.106   6.215  19.629  0.00  0.00    +0.000 N 
ATOM      6  H   UNL     1       3.474   5.750  20.469  0.00  0.00    +0.000 HD
BRANCH   5   7
ATOM      7  C   UNL     1       2.341   7.306  19.867  0.00  0.00    +0.000 A 
ATOM      8  C   UNL     1       1.917   8.321  19.044  0.00  0.00    +0.000 A 
ATOM      9  C   UNL     1       1.067   9.146  19.840  0.00  0.00    +0.000 A 
ATOM     10  N   UNL     1       1.035   8.686  21.106  0.00  0.00    +0.000 NA
ATOM     11  N   UNL     1       1.810   7.592  21.088  0.00  0.00    +0.000 N 
ATOM     12  H   UNL     1       1.947   7.061  21.943  0.00  0.00    +0.000 HD
BRANCH   9  13
ATOM     13  C   UNL     1       0.288  10.325  19.423  0.00  0.00    +0.000 A 
ATOM     14  C   UNL     1       0.557  11.604  19.930  0.00  0.00    +0.000 A 
ATOM     15  C   UNL     1      -0.170  12.721  19.506  0.00  0.00    +0.000 A 
ATOM     16  C   UNL     1      -1.173  12.578  18.554  0.00  0.00    +0.000 A 
ATOM     17  C   UNL     1      -1.469  11.314  18.027  0.00  0.00    +0.000 A 
ATOM     18  C   UNL     1      -0.746  10.198  18.482  0.00  0.00    +0.000 A 
ENDBRANCH   9  13
ENDBRANCH   5   7
ENDBRANCH   2   5
BRANCH   1  19
ATOM     19  C   UNL     1       4.669   4.346  16.832  0.00  0.00    +0.000 C 
ATOM     20  O   UNL     1       3.892   3.384  16.792  0.00  0.00    +0.000 OA
BRANCH  19  21
ATOM     21  C   UNL     1       5.700   4.453  15.794  0.00  0.00    +0.000 A 
ATOM     22  C   UNL     1       6.985   4.815  16.199  0.00  0.00    +0.000 A 
ATOM     23  N   UNL     1       7.465   5.538  15.155  0.00  0.00    +0.000 N 
ATOM     24  C   UNL     1       7.077   4.869  14.027  0.00  0.00    +0.000 A 
ATOM     25  C   UNL     1       7.689   4.825  12.772  0.00  0.00    +0.000 A 
ATOM     26  C   UNL     1       7.076   4.035  11.809  0.00  0.00    +0.000 A 
ATOM     27  C   UNL     1       5.856   3.412  12.082  0.00  0.00    +0.000 A 
ATOM     28  C   UNL     1       5.218   3.531  13.340  0.00  0.00    +0.000 A 
ATOM     29  C   UNL     1       5.878   4.219  14.379  0.00  0.00    +0.000 A 
ATOM     30  H   UNL     1       8.111   6.314  15.205  0.00  0.00    +0.000 HD
ENDBRANCH  19  21
ENDBRANCH   1  19
TORSDOF 6
ENDMDL
MODEL 8
REMARK VINA RESULT:      -8.6      1.669      2.090
REMARK  Name = 
REMARK  6 active torsions:
REMARK  status: ('A' for Active; 'I' for Inactive)
REMARK    1  A    between atoms: C_2  and  C_3
REMARK    2  A    between atoms: C_3  and  C_17
REMARK    3  A    between atoms: N_4  and  N_5
REMARK    4  A    between atoms: N_5  and  C_6
REMARK    5  A    between atoms: C_8  and  C_9
REMARK    6  A    between atoms: C_17  and  C_19
REMARK                            x       y       z     vdW  Elec       q    Type
REMARK                         _______ _______ _______ _____ _____    ______ ____
ROOT
ATOM      1  C   UNL     1       6.181   6.158  17.677  0.00  0.00    +0.000 C 
ATOM      2  N   UNL     1       7.153   6.878  18.173  0.00  0.00    +0.000 NA
ENDROOT
BRANCH   1   4
ATOM      3  N   UNL     1       5.194   6.909  15.364  0.00  0.00    +0.000 NA
ATOM      4  C   UNL     1       5.586   6.581  16.415  0.00  0.00    +0.000 C 
ENDBRANCH   1   4
BRANCH   2   5
ATOM      5  N   UNL     1       7.585   7.984  17.467  0.00  0.00    +0.000 N 
ATOM      6  H   UNL     1       7.514   8.020  16.442  0.00  0.00    +0.000 HD
BRANCH   5   7
ATOM      7  C   UNL     1       8.262   9.013  18.029  0.00  0.00    +0.000 A 
ATOM      8  C   UNL     1       8.421  10.322  17.640  0.00  0.00    +0.000 A 
ATOM      9  C   UNL     1       9.175  10.952  18.675  0.00  0.00    +0.000 A 
ATOM     10  N   UNL     1       9.514  10.046  19.612  0.00  0.00    +0.000 NA
ATOM     11  N   UNL     1       8.960   8.900  19.193  0.00  0.00    +0.000 N 
ATOM     12  H   UNL     1       9.080   8.054  19.742  0.00  0.00    +0.000 HD
BRANCH   9  13
ATOM     13  C   UNL     1       9.552  12.371  18.795  0.00  0.00    +0.000 A 
ATOM     14  C   UNL     1      10.371  12.832  19.836  0.00  0.00    +0.000 A 
ATOM     15  C   UNL     1      10.746  14.177  19.924  0.00  0.00    +0.000 A 
ATOM     16  C   UNL     1      10.318  15.083  18.960  0.00  0.00    +0.000 A 
ATOM     17  C   UNL     1       9.499  14.657  17.907  0.00  0.00    +0.000 A 
ATOM     18  C   UNL     1       9.110  13.308  17.846  0.00  0.00    +0.000 A 
ENDBRANCH   9  13
ENDBRANCH   5   7
ENDBRANCH   2   5
BRANCH   1  19
ATOM     19  C   UNL     1       5.792   4.828  18.225  0.00  0.00    +0.000 C 
ATOM     20  O   UNL     1       6.784   4.192  18.605  0.00  0.00    +0.000 OA
BRANCH  19  21
ATOM     21  C   UNL     1       4.482   4.169  18.275  0.00  0.00    +0.000 A 
ATOM     22  C   UNL     1       4.213   3.200  17.309  0.00  0.00    +0.000 A 
ATOM     23  N   UNL     1       2.879   3.321  17.086  0.00  0.00    +0.000 N 
ATOM     24  C   UNL     1       2.309   3.487  18.318  0.00  0.00    +0.000 A 
ATOM     25  C   UNL     1       1.026   3.141  18.751  0.00  0.00    +0.000 A 
ATOM     26  C   UNL     1       0.725   3.410  20.079  0.00  0.00    +0.000 A 
ATOM     27  C   UNL     1       1.642   4.086  20.886  0.00  0.00    +0.000 A 
ATOM     28  C   UNL     1       2.909   4.492  20.403  0.00  0.00    +0.000 A 
ATOM     29  C   UNL     1       3.296   4.119  19.099  0.00  0.00    +0.000 A 
ATOM     30  H   UNL     1       2.395   3.159  16.214  0.00  0.00    +0.000 HD
ENDBRANCH  19  21
ENDBRANCH   1  19
TORSDOF 6
ENDMDL
MODEL 9
REMARK VINA RESULT:      -8.5      6.191      8.784
REMARK  Name = 
REMARK  6 active torsions:
REMARK  status: ('A' for Active; 'I' for Inactive)
REMARK    1  A    between atoms: C_2  and  C_3
REMARK    2  A    between atoms: C_3  and  C_17
REMARK    3  A    between atoms: N_4  and  N_5
REMARK    4  A    between atoms: N_5  and  C_6
REMARK    5  A    between atoms: C_8  and  C_9
REMARK    6  A    between atoms: C_17  and  C_19
REMARK                            x       y       z     vdW  Elec       q    Type
REMARK                         _______ _______ _______ _____ _____    ______ ____
ROOT
ATOM      1  C   UNL     1       0.562   9.759  20.721  0.00  0.00    +0.000 C 
ATOM      2  N   UNL     1       1.081   8.778  20.030  0.00  0.00    +0.000 NA
ENDROOT
BRANCH   1   4
ATOM      3  N   UNL     1       0.509   9.645  23.342  0.00  0.00    +0.000 NA
ATOM      4  C   UNL     1       0.559   9.651  22.174  0.00  0.00    +0.000 C 
ENDBRANCH   1   4
BRANCH   2   5
ATOM      5  N   UNL     1       1.623   7.703  20.708  0.00  0.00    +0.000 N 
ATOM      6  H   UNL     1       1.553   7.633  21.732  0.00  0.00    +0.000 HD
BRANCH   5   7
ATOM      7  C   UNL     1       2.403   6.765  20.123  0.00  0.00    +0.000 A 
ATOM      8  C   UNL     1       3.164   6.794  18.979  0.00  0.00    +0.000 A 
ATOM      9  C   UNL     1       3.830   5.533  18.915  0.00  0.00    +0.000 A 
ATOM     10  N   UNL     1       3.435   4.753  19.939  0.00  0.00    +0.000 NA
ATOM     11  N   UNL     1       2.580   5.516  20.636  0.00  0.00    +0.000 N 
ATOM     12  H   UNL     1       2.138   5.140  21.469  0.00  0.00    +0.000 HD
BRANCH   9  13
ATOM     13  C   UNL     1       4.826   5.077  17.931  0.00  0.00    +0.000 A 
ATOM     14  C   UNL     1       4.447   4.552  16.687  0.00  0.00    +0.000 A 
ATOM     15  C   UNL     1       5.403   4.147  15.748  0.00  0.00    +0.000 A 
ATOM     16  C   UNL     1       6.758   4.275  16.035  0.00  0.00    +0.000 A 
ATOM     17  C   UNL     1       7.170   4.794  17.268  0.00  0.00    +0.000 A 
ATOM     18  C   UNL     1       6.199   5.172  18.210  0.00  0.00    +0.000 A 
ENDBRANCH   9  13
ENDBRANCH   5   7
ENDBRANCH   2   5
BRANCH   1  19
ATOM     19  C   UNL     1       0.162  11.060  20.113  0.00  0.00    +0.000 C 
ATOM     20  O   UNL     1       0.930  11.968  20.454  0.00  0.00    +0.000 OA
BRANCH  19  21
ATOM     21  C   UNL     1      -1.010  11.407  19.301  0.00  0.00    +0.000 A 
ATOM     22  C   UNL     1      -1.587  12.660  19.509  0.00  0.00    +0.000 A 
ATOM     23  N   UNL     1      -2.910  12.451  19.289  0.00  0.00    +0.000 N 
ATOM     24  C   UNL     1      -2.983  11.644  18.186  0.00  0.00    +0.000 A 
ATOM     25  C   UNL     1      -3.996  11.544  17.230  0.00  0.00    +0.000 A 
ATOM     26  C   UNL     1      -3.786  10.644  16.194  0.00  0.00    +0.000 A 
ATOM     27  C   UNL     1      -2.658   9.822  16.193  0.00  0.00    +0.000 A 
ATOM     28  C   UNL     1      -1.680   9.890  17.214  0.00  0.00    +0.000 A 
ATOM     29  C   UNL     1      -1.798  10.883  18.209  0.00  0.00    +0.000 A 
ATOM     30  H   UNL     1      -3.680  12.924  19.742  0.00  0.00    +0.000 HD
ENDBRANCH  19  21
ENDBRANCH   1  19
TORSDOF 6
ENDMDL
