MODEL 1
REMARK VINA RESULT:      -6.4      0.000      0.000
REMARK  Name = 
REMARK  5 active torsions:
REMARK  status: ('A' for Active; 'I' for Inactive)
REMARK    1  A    between atoms: C_6  and  O_7
REMARK    2  A    between atoms: O_7  and  C_8
REMARK    3  A    between atoms: C_8  and  C_9
REMARK    4  A    between atoms: C_9  and  C_10
REMARK    5  A    between atoms: C_10  and  C_11
REMARK                            x       y       z     vdW  Elec       q    Type
REMARK                         _______ _______ _______ _____ _____    ______ ____
ROOT
ATOM      1  O   UNL     1       7.916   4.402  16.806  0.00  0.00    +0.000 OA
ATOM      2  C   UNL     1       6.874   4.947  17.143  0.00  0.00    +0.000 A 
ATOM      3  O   UNL     1       6.251   4.684  18.363  0.00  0.00    +0.000 OA
ATOM      4  C   UNL     1       5.102   5.468  18.417  0.00  0.00    +0.000 A 
ATOM      5  C   UNL     1       4.260   5.430  19.519  0.00  0.00    +0.000 A 
ATOM      6  C   UNL     1       3.118   6.237  19.524  0.00  0.00    +0.000 A 
ATOM      7  C   UNL     1       2.847   7.065  18.422  0.00  0.00    +0.000 A 
ATOM      8  C   UNL     1       3.705   7.093  17.316  0.00  0.00    +0.000 A 
ATOM      9  C   UNL     1       4.829   6.289  17.330  0.00  0.00    +0.000 A 
ATOM     10  S   UNL     1       6.063   6.124  16.101  0.00  0.00    +0.000 S 
ENDROOT
BRANCH   6  11
ATOM     11  O   UNL     1       2.344   6.137  20.650  0.00  0.00    +0.000 OA
BRANCH  11  12
ATOM     12  C   UNL     1       2.037   4.815  21.096  0.00  0.00    +0.000 C 
BRANCH  12  13
ATOM     13  C   UNL     1       0.703   4.384  20.496  0.00  0.00    +0.000 C 
BRANCH  13  14
ATOM     14  C   UNL     1       0.762   2.926  20.040  0.00  0.00    +0.000 C 
BRANCH  14  15
ATOM     15  C   UNL     1       1.797   2.712  18.966  0.00  0.00    +0.000 A 
ATOM     16  C   UNL     1       2.824   1.776  19.142  0.00  0.00    +0.000 A 
ATOM     17  C   UNL     1       3.801   1.606  18.159  0.00  0.00    +0.000 A 
ATOM     18  C   UNL     1       3.760   2.371  16.994  0.00  0.00    +0.000 A 
ATOM     19  C   UNL     1       2.738   3.301  16.808  0.00  0.00    +0.000 A 
ATOM     20  C   UNL     1       1.762   3.473  17.790  0.00  0.00    +0.000 A 
ENDBRANCH  14  15
ENDBRANCH  13  14
ENDBRANCH  12  13
ENDBRANCH  11  12
ENDBRANCH   6  11
TORSDOF 5
ENDMDL
MODEL 2
REMARK VINA RESULT:      -6.3      4.879      7.882
REMARK  Name = 
REMARK  5 active torsions:
REMARK  status: ('A' for Active; 'I' for Inactive)
REMARK    1  A    between atoms: C_6  and  O_7
REMARK    2  A    between atoms: O_7  and  C_8
REMARK    3  A    between atoms: C_8  and  C_9
REMARK    4  A    between atoms: C_9  and  C_10
REMARK    5  A    between atoms: C_10  and  C_11
REMARK                            x       y       z     vdW  Elec       q    Type
REMARK                         _______ _______ _______ _____ _____    ______ ____
ROOT
ATOM      1  O   UNL     1       2.071   1.659  18.605  0.00  0.00    +0.000 OA
ATOM      2  C   UNL     1       2.659   2.709  18.388  0.00  0.00    +0.000 A 
ATOM      3  O   UNL     1       4.050   2.809  18.418  0.00  0.00    +0.000 OA
ATOM      4  C   UNL     1       4.375   4.132  18.129  0.00  0.00    +0.000 A 
ATOM      5  C   UNL     1       5.697   4.551  18.082  0.00  0.00    +0.000 A 
ATOM      6  C   UNL     1       5.969   5.891  17.787  0.00  0.00    +0.000 A 
ATOM      7  C   UNL     1       4.909   6.780  17.546  0.00  0.00    +0.000 A 
ATOM      8  C   UNL     1       3.580   6.343  17.597  0.00  0.00    +0.000 A 
ATOM      9  C   UNL     1       3.329   5.016  17.889  0.00  0.00    +0.000 A 
ATOM     10  S   UNL     1       1.786   4.202  18.016  0.00  0.00    +0.000 S 
ENDROOT
BRANCH   6  11
ATOM     11  O   UNL     1       7.300   6.218  17.762  0.00  0.00    +0.000 OA
BRANCH  11  12
ATOM     12  C   UNL     1       7.630   7.506  17.242  0.00  0.00    +0.000 C 
BRANCH  12  13
ATOM     13  C   UNL     1       8.290   8.333  18.341  0.00  0.00    +0.000 C 
BRANCH  13  14
ATOM     14  C   UNL     1       8.248   9.821  17.995  0.00  0.00    +0.000 C 
BRANCH  14  15
ATOM     15  C   UNL     1       9.370  10.585  18.649  0.00  0.00    +0.000 A 
ATOM     16  C   UNL     1       9.355  10.835  20.028  0.00  0.00    +0.000 A 
ATOM     17  C   UNL     1      10.380  11.573  20.623  0.00  0.00    +0.000 A 
ATOM     18  C   UNL     1      11.426  12.068  19.846  0.00  0.00    +0.000 A 
ATOM     19  C   UNL     1      11.453  11.819  18.474  0.00  0.00    +0.000 A 
ATOM     20  C   UNL     1      10.429  11.083  17.878  0.00  0.00    +0.000 A 
ENDBRANCH  14  15
ENDBRANCH  13  14
ENDBRANCH  12  13
ENDBRANCH  11  12
ENDBRANCH   6  11
TORSDOF 5
ENDMDL
MODEL 3
REMARK VINA RESULT:      -6.2      1.692      3.224
REMARK  Name = 
REMARK  5 active torsions:
REMARK  status: ('A' for Active; 'I' for Inactive)
REMARK    1  A    between atoms: C_6  and  O_7
REMARK    2  A    between atoms: O_7  and  C_8
REMARK    3  A    between atoms: C_8  and  C_9
REMARK    4  A    between atoms: C_9  and  C_10
REMARK    5  A    between atoms: C_10  and  C_11
REMARK                            x       y       z     vdW  Elec       q    Type
REMARK                         _______ _______ _______ _____ _____    ______ ____
ROOT
ATOM      1  O   UNL     1       7.976   7.339  18.272  0.00  0.00    +0.000 OA
ATOM      2  C   UNL     1       7.200   6.413  18.085  0.00  0.00    +0.000 A 
ATOM      3  O   UNL     1       6.667   5.658  19.130  0.00  0.00    +0.000 OA
ATOM      4  C   UNL     1       5.832   4.699  18.562  0.00  0.00    +0.000 A 
ATOM      5  C   UNL     1       5.148   3.787  19.353  0.00  0.00    +0.000 A 
ATOM      6  C   UNL     1       4.322   2.843  18.734  0.00  0.00    +0.000 A 
ATOM      7  C   UNL     1       4.202   2.837  17.334  0.00  0.00    +0.000 A 
ATOM      8  C   UNL     1       4.898   3.762  16.549  0.00  0.00    +0.000 A 
ATOM      9  C   UNL     1       5.709   4.688  17.179  0.00  0.00    +0.000 A 
ATOM     10  S   UNL     1       6.684   5.948  16.457  0.00  0.00    +0.000 S 
ENDROOT
BRANCH   6  11
ATOM     11  O   UNL     1       3.685   1.983  19.589  0.00  0.00    +0.000 OA
BRANCH  11  12
ATOM     12  C   UNL     1       2.266   1.887  19.456  0.00  0.00    +0.000 C 
BRANCH  12  13
ATOM     13  C   UNL     1       1.606   2.582  20.643  0.00  0.00    +0.000 C 
BRANCH  13  14
ATOM     14  C   UNL     1       0.652   3.676  20.165  0.00  0.00    +0.000 C 
BRANCH  14  15
ATOM     15  C   UNL     1       1.390   4.890  19.664  0.00  0.00    +0.000 A 
ATOM     16  C   UNL     1       1.777   5.906  20.548  0.00  0.00    +0.000 A 
ATOM     17  C   UNL     1       2.430   7.045  20.072  0.00  0.00    +0.000 A 
ATOM     18  C   UNL     1       2.699   7.179  18.711  0.00  0.00    +0.000 A 
ATOM     19  C   UNL     1       2.324   6.170  17.825  0.00  0.00    +0.000 A 
ATOM     20  C   UNL     1       1.670   5.032  18.298  0.00  0.00    +0.000 A 
ENDBRANCH  14  15
ENDBRANCH  13  14
ENDBRANCH  12  13
ENDBRANCH  11  12
ENDBRANCH   6  11
TORSDOF 5
ENDMDL
MODEL 4
REMARK VINA RESULT:      -6.1      3.208      5.435
REMARK  Name = 
REMARK  5 active torsions:
REMARK  status: ('A' for Active; 'I' for Inactive)
REMARK    1  A    between atoms: C_6  and  O_7
REMARK    2  A    between atoms: O_7  and  C_8
REMARK    3  A    between atoms: C_8  and  C_9
REMARK    4  A    between atoms: C_9  and  C_10
REMARK    5  A    between atoms: C_10  and  C_11
REMARK                            x       y       z     vdW  Elec       q    Type
REMARK                         _______ _______ _______ _____ _____    ______ ____
ROOT
ATOM      1  O   UNL     1       0.071  10.203  23.264  0.00  0.00    +0.000 OA
ATOM      2  C   UNL     1       0.449   9.920  22.136  0.00  0.00    +0.000 A 
ATOM      3  O   UNL     1       0.998   8.678  21.819  0.00  0.00    +0.000 OA
ATOM      4  C   UNL     1       1.315   8.700  20.463  0.00  0.00    +0.000 A 
ATOM      5  C   UNL     1       1.882   7.597  19.841  0.00  0.00    +0.000 A 
ATOM      6  C   UNL     1       2.181   7.672  18.477  0.00  0.00    +0.000 A 
ATOM      7  C   UNL     1       1.904   8.852  17.768  0.00  0.00    +0.000 A 
ATOM      8  C   UNL     1       1.332   9.957  18.408  0.00  0.00    +0.000 A 
ATOM      9  C   UNL     1       1.042   9.865  19.756  0.00  0.00    +0.000 A 
ATOM     10  S   UNL     1       0.332  11.075  20.801  0.00  0.00    +0.000 S 
ENDROOT
BRANCH   6  11
ATOM     11  O   UNL     1       2.739   6.538  17.945  0.00  0.00    +0.000 OA
BRANCH  11  12
ATOM     12  C   UNL     1       4.128   6.604  17.619  0.00  0.00    +0.000 C 
BRANCH  12  13
ATOM     13  C   UNL     1       4.867   5.495  18.361  0.00  0.00    +0.000 C 
BRANCH  13  14
ATOM     14  C   UNL     1       4.317   4.124  17.970  0.00  0.00    +0.000 C 
BRANCH  14  15
ATOM     15  C   UNL     1       3.145   3.720  18.826  0.00  0.00    +0.000 A 
ATOM     16  C   UNL     1       1.998   3.161  18.248  0.00  0.00    +0.000 A 
ATOM     17  C   UNL     1       0.901   2.821  19.042  0.00  0.00    +0.000 A 
ATOM     18  C   UNL     1       0.941   3.038  20.418  0.00  0.00    +0.000 A 
ATOM     19  C   UNL     1       2.081   3.589  21.003  0.00  0.00    +0.000 A 
ATOM     20  C   UNL     1       3.177   3.930  20.211  0.00  0.00    +0.000 A 
ENDBRANCH  14  15
ENDBRANCH  13  14
ENDBRANCH  12  13
ENDBRANCH  11  12
ENDBRANCH   6  11
TORSDOF 5
ENDMDL
MODEL 5
REMARK VINA RESULT:      -6.0      1.910      3.811
REMARK  Name = 
REMARK  5 active torsions:
REMARK  status: ('A' for Active; 'I' for Inactive)
REMARK    1  A    between atoms: C_6  and  O_7
REMARK    2  A    between atoms: O_7  and  C_8
REMARK    3  A    between atoms: C_8  and  C_9
REMARK    4  A    between atoms: C_9  and  C_10
REMARK    5  A    between atoms: C_10  and  C_11
REMARK                            x       y       z     vdW  Elec       q    Type
REMARK                         _______ _______ _______ _____ _____    ______ ____
ROOT
ATOM      1  O   UNL     1       7.387   5.593  14.866  0.00  0.00    +0.000 OA
ATOM      2  C   UNL     1       6.791   5.157  15.842  0.00  0.00    +0.000 A 
ATOM      3  O   UNL     1       5.639   4.379  15.731  0.00  0.00    +0.000 OA
ATOM      4  C   UNL     1       5.230   4.059  17.023  0.00  0.00    +0.000 A 
ATOM      5  C   UNL     1       4.101   3.285  17.246  0.00  0.00    +0.000 A 
ATOM      6  C   UNL     1       3.733   2.992  18.563  0.00  0.00    +0.000 A 
ATOM      7  C   UNL     1       4.507   3.484  19.627  0.00  0.00    +0.000 A 
ATOM      8  C   UNL     1       5.644   4.265  19.387  0.00  0.00    +0.000 A 
ATOM      9  C   UNL     1       5.993   4.543  18.079  0.00  0.00    +0.000 A 
ATOM     10  S   UNL     1       7.347   5.482  17.490  0.00  0.00    +0.000 S 
ENDROOT
BRANCH   6  11
ATOM     11  O   UNL     1       2.607   2.222  18.691  0.00  0.00    +0.000 OA
BRANCH  11  12
ATOM     12  C   UNL     1       1.827   2.425  19.870  0.00  0.00    +0.000 C 
BRANCH  12  13
ATOM     13  C   UNL     1       1.023   3.713  19.720  0.00  0.00    +0.000 C 
BRANCH  13  14
ATOM     14  C   UNL     1       1.518   4.776  20.700  0.00  0.00    +0.000 C 
BRANCH  14  15
ATOM     15  C   UNL     1       1.710   6.113  20.034  0.00  0.00    +0.000 A 
ATOM     16  C   UNL     1       2.306   6.201  18.769  0.00  0.00    +0.000 A 
ATOM     17  C   UNL     1       2.514   7.446  18.171  0.00  0.00    +0.000 A 
ATOM     18  C   UNL     1       2.130   8.611  18.833  0.00  0.00    +0.000 A 
ATOM     19  C   UNL     1       1.531   8.533  20.090  0.00  0.00    +0.000 A 
ATOM     20  C   UNL     1       1.324   7.291  20.689  0.00  0.00    +0.000 A 
ENDBRANCH  14  15
ENDBRANCH  13  14
ENDBRANCH  12  13
ENDBRANCH  11  12
ENDBRANCH   6  11
TORSDOF 5
ENDMDL
MODEL 6
REMARK VINA RESULT:      -6.0      2.421      5.568
REMARK  Name = 
REMARK  5 active torsions:
REMARK  status: ('A' for Active; 'I' for Inactive)
REMARK    1  A    between atoms: C_6  and  O_7
REMARK    2  A    between atoms: O_7  and  C_8
REMARK    3  A    between atoms: C_8  and  C_9
REMARK    4  A    between atoms: C_9  and  C_10
REMARK    5  A    between atoms: C_10  and  C_11
REMARK                            x       y       z     vdW  Elec       q    Type
REMARK                         _______ _______ _______ _____ _____    ______ ____
ROOT
ATOM      1  O   UNL     1       1.406   2.276  22.147  0.00  0.00    +0.000 OA
ATOM      2  C   UNL     1       1.884   2.567  21.060  0.00  0.00    +0.000 A 
ATOM      3  O   UNL     1       3.203   2.996  20.911  0.00  0.00    +0.000 OA
ATOM      4  C   UNL     1       3.408   3.238  19.555  0.00  0.00    +0.000 A 
ATOM      5  C   UNL     1       4.636   3.680  19.084  0.00  0.00    +0.000 A 
ATOM      6  C   UNL     1       4.790   3.909  17.713  0.00  0.00    +0.000 A 
ATOM      7  C   UNL     1       3.708   3.689  16.845  0.00  0.00    +0.000 A 
ATOM      8  C   UNL     1       2.474   3.243  17.335  0.00  0.00    +0.000 A 
ATOM      9  C   UNL     1       2.341   3.022  18.693  0.00  0.00    +0.000 A 
ATOM     10  S   UNL     1       0.933   2.469  19.571  0.00  0.00    +0.000 S 
ENDROOT
BRANCH   6  11
ATOM     11  O   UNL     1       6.034   4.343  17.336  0.00  0.00    +0.000 OA
BRANCH  11  12
ATOM     12  C   UNL     1       6.082   5.537  16.554  0.00  0.00    +0.000 C 
BRANCH  12  13
ATOM     13  C   UNL     1       5.489   6.687  17.362  0.00  0.00    +0.000 C 
BRANCH  13  14
ATOM     14  C   UNL     1       4.152   7.131  16.770  0.00  0.00    +0.000 C 
BRANCH  14  15
ATOM     15  C   UNL     1       3.197   7.614  17.830  0.00  0.00    +0.000 A 
ATOM     16  C   UNL     1       2.989   6.867  18.997  0.00  0.00    +0.000 A 
ATOM     17  C   UNL     1       2.077   7.302  19.961  0.00  0.00    +0.000 A 
ATOM     18  C   UNL     1       1.364   8.484  19.765  0.00  0.00    +0.000 A 
ATOM     19  C   UNL     1       1.569   9.237  18.609  0.00  0.00    +0.000 A 
ATOM     20  C   UNL     1       2.479   8.803  17.645  0.00  0.00    +0.000 A 
ENDBRANCH  14  15
ENDBRANCH  13  14
ENDBRANCH  12  13
ENDBRANCH  11  12
ENDBRANCH   6  11
TORSDOF 5
ENDMDL
MODEL 7
REMARK VINA RESULT:      -6.0      3.173      5.222
REMARK  Name = 
REMARK  5 active torsions:
REMARK  status: ('A' for Active; 'I' for Inactive)
REMARK    1  A    between atoms: C_6  and  O_7
REMARK    2  A    between atoms: O_7  and  C_8
REMARK    3  A    between atoms: C_8  and  C_9
REMARK    4  A    between atoms: C_9  and  C_10
REMARK    5  A    between atoms: C_10  and  C_11
REMARK                            x       y       z     vdW  Elec       q    Type
REMARK                         _______ _______ _______ _____ _____    ______ ____
ROOT
ATOM      1  O   UNL     1      -0.280  11.822  19.661  0.00  0.00    +0.000 OA
ATOM      2  C   UNL     1       0.300  10.746  19.680  0.00  0.00    +0.000 A 
ATOM      3  O   UNL     1       0.946  10.222  18.560  0.00  0.00    +0.000 OA
ATOM      4  C   UNL     1       1.493   8.997  18.934  0.00  0.00    +0.000 A 
ATOM      5  C   UNL     1       2.206   8.225  18.028  0.00  0.00    +0.000 A 
ATOM      6  C   UNL     1       2.736   7.002  18.454  0.00  0.00    +0.000 A 
ATOM      7  C   UNL     1       2.536   6.583  19.779  0.00  0.00    +0.000 A 
ATOM      8  C   UNL     1       1.814   7.371  20.682  0.00  0.00    +0.000 A 
ATOM      9  C   UNL     1       1.300   8.577  20.244  0.00  0.00    +0.000 A 
ATOM     10  S   UNL     1       0.369   9.754  21.144  0.00  0.00    +0.000 S 
ENDROOT
BRANCH   6  11
ATOM     11  O   UNL     1       3.424   6.306  17.496  0.00  0.00    +0.000 OA
BRANCH  11  12
ATOM     12  C   UNL     1       4.339   5.314  17.963  0.00  0.00    +0.000 C 
BRANCH  12  13
ATOM     13  C   UNL     1       4.262   4.095  17.050  0.00  0.00    +0.000 C 
BRANCH  13  14
ATOM     14  C   UNL     1       2.898   3.415  17.171  0.00  0.00    +0.000 C 
BRANCH  14  15
ATOM     15  C   UNL     1       2.484   3.232  18.607  0.00  0.00    +0.000 A 
ATOM     16  C   UNL     1       3.415   2.827  19.573  0.00  0.00    +0.000 A 
ATOM     17  C   UNL     1       3.019   2.625  20.896  0.00  0.00    +0.000 A 
ATOM     18  C   UNL     1       1.689   2.822  21.265  0.00  0.00    +0.000 A 
ATOM     19  C   UNL     1       0.756   3.231  20.312  0.00  0.00    +0.000 A 
ATOM     20  C   UNL     1       1.150   3.432  18.989  0.00  0.00    +0.000 A 
ENDBRANCH  14  15
ENDBRANCH  13  14
ENDBRANCH  12  13
ENDBRANCH  11  12
ENDBRANCH   6  11
TORSDOF 5
ENDMDL
MODEL 8
REMARK VINA RESULT:      -5.9      1.682      3.896
REMARK  Name = 
REMARK  5 active torsions:
REMARK  status: ('A' for Active; 'I' for Inactive)
REMARK    1  A    between atoms: C_6  and  O_7
REMARK    2  A    between atoms: O_7  and  C_8
REMARK    3  A    between atoms: C_8  and  C_9
REMARK    4  A    between atoms: C_9  and  C_10
REMARK    5  A    between atoms: C_10  and  C_11
REMARK                            x       y       z     vdW  Elec       q    Type
REMARK                         _______ _______ _______ _____ _____    ______ ____
ROOT
ATOM      1  O   UNL     1       7.681   5.172  16.091  0.00  0.00    +0.000 OA
ATOM      2  C   UNL     1       6.634   4.748  16.561  0.00  0.00    +0.000 A 
ATOM      3  O   UNL     1       6.478   4.479  17.921  0.00  0.00    +0.000 OA
ATOM      4  C   UNL     1       5.177   4.016  18.103  0.00  0.00    +0.000 A 
ATOM      5  C   UNL     1       4.713   3.661  19.362  0.00  0.00    +0.000 A 
ATOM      6  C   UNL     1       3.398   3.203  19.491  0.00  0.00    +0.000 A 
ATOM      7  C   UNL     1       2.579   3.110  18.354  0.00  0.00    +0.000 A 
ATOM      8  C   UNL     1       3.061   3.470  17.090  0.00  0.00    +0.000 A 
ATOM      9  C   UNL     1       4.362   3.923  16.982  0.00  0.00    +0.000 A 
ATOM     10  S   UNL     1       5.219   4.437  15.546  0.00  0.00    +0.000 S 
ENDROOT
BRANCH   6  11
ATOM     11  O   UNL     1       3.023   2.875  20.768  0.00  0.00    +0.000 OA
BRANCH  11  12
ATOM     12  C   UNL     1       2.025   3.700  21.370  0.00  0.00    +0.000 C 
BRANCH  12  13
ATOM     13  C   UNL     1       1.619   4.791  20.385  0.00  0.00    +0.000 C 
BRANCH  13  14
ATOM     14  C   UNL     1       1.938   6.175  20.950  0.00  0.00    +0.000 C 
BRANCH  14  15
ATOM     15  C   UNL     1       2.007   7.224  19.871  0.00  0.00    +0.000 A 
ATOM     16  C   UNL     1       1.361   8.457  20.033  0.00  0.00    +0.000 A 
ATOM     17  C   UNL     1       1.398   9.412  19.015  0.00  0.00    +0.000 A 
ATOM     18  C   UNL     1       2.078   9.143  17.828  0.00  0.00    +0.000 A 
ATOM     19  C   UNL     1       2.728   7.921  17.661  0.00  0.00    +0.000 A 
ATOM     20  C   UNL     1       2.691   6.965  18.676  0.00  0.00    +0.000 A 
ENDBRANCH  14  15
ENDBRANCH  13  14
ENDBRANCH  12  13
ENDBRANCH  11  12
ENDBRANCH   6  11
TORSDOF 5
ENDMDL
MODEL 9
REMARK VINA RESULT:      -5.9      5.140      8.332
REMARK  Name = 
REMARK  5 active torsions:
REMARK  status: ('A' for Active; 'I' for Inactive)
REMARK    1  A    between atoms: C_6  and  O_7
REMARK    2  A    between atoms: O_7  and  C_8
REMARK    3  A    between atoms: C_8  and  C_9
REMARK    4  A    between atoms: C_9  and  C_10
REMARK    5  A    between atoms: C_10  and  C_11
REMARK                            x       y       z     vdW  Elec       q    Type
REMARK                         _______ _______ _______ _____ _____    ______ ____
ROOT
ATOM      1  O   UNL     1       1.747   4.160  19.374  0.00  0.00    +0.000 OA
ATOM      2  C   UNL     1       2.714   4.384  18.659  0.00  0.00    +0.000 A 
ATOM      3  O   UNL     1       3.610   5.422  18.915  0.00  0.00    +0.000 OA
ATOM      4  C   UNL     1       4.578   5.388  17.914  0.00  0.00    +0.000 A 
ATOM      5  C   UNL     1       5.619   6.305  17.893  0.00  0.00    +0.000 A 
ATOM      6  C   UNL     1       6.566   6.227  16.865  0.00  0.00    +0.000 A 
ATOM      7  C   UNL     1       6.445   5.231  15.883  0.00  0.00    +0.000 A 
ATOM      8  C   UNL     1       5.389   4.313  15.916  0.00  0.00    +0.000 A 
ATOM      9  C   UNL     1       4.464   4.404  16.940  0.00  0.00    +0.000 A 
ATOM     10  S   UNL     1       3.059   3.402  17.229  0.00  0.00    +0.000 S 
ENDROOT
BRANCH   6  11
ATOM     11  O   UNL     1       7.558   7.170  16.922  0.00  0.00    +0.000 OA
BRANCH  11  12
ATOM     12  C   UNL     1       7.245   8.384  17.606  0.00  0.00    +0.000 C 
BRANCH  12  13
ATOM     13  C   UNL     1       8.471   9.292  17.597  0.00  0.00    +0.000 C 
BRANCH  13  14
ATOM     14  C   UNL     1       8.948   9.569  19.023  0.00  0.00    +0.000 C 
BRANCH  14  15
ATOM     15  C   UNL     1       9.786  10.818  19.105  0.00  0.00    +0.000 A 
ATOM     16  C   UNL     1      10.259  11.438  17.941  0.00  0.00    +0.000 A 
ATOM     17  C   UNL     1      11.064  12.575  18.024  0.00  0.00    +0.000 A 
ATOM     18  C   UNL     1      11.406  13.101  19.269  0.00  0.00    +0.000 A 
ATOM     19  C   UNL     1      10.935  12.494  20.433  0.00  0.00    +0.000 A 
ATOM     20  C   UNL     1      10.131  11.357  20.352  0.00  0.00    +0.000 A 
ENDBRANCH  14  15
ENDBRANCH  13  14
ENDBRANCH  12  13
ENDBRANCH  11  12
ENDBRANCH   6  11
TORSDOF 5
ENDMDL
