MODEL 1
REMARK VINA RESULT:      -8.3      0.000      0.000
REMARK  Name = 
REMARK  2 active torsions:
REMARK  status: ('A' for Active; 'I' for Inactive)
REMARK    1  A    between atoms: C_2  and  C_4
REMARK    2  A    between atoms: C_9  and  C_10
REMARK                            x       y       z     vdW  Elec       q    Type
REMARK                         _______ _______ _______ _____ _____    ______ ____
ROOT
ATOM      1  C   UNL     1       3.306   2.754  18.813  0.00  0.00    +0.000 A 
ATOM      2  C   UNL     1       1.947   2.389  18.932  0.00  0.00    +0.000 A 
ATOM      3  C   UNL     1       0.931   3.233  18.497  0.00  0.00    +0.000 A 
ATOM      4  C   UNL     1       1.261   4.448  17.918  0.00  0.00    +0.000 A 
ATOM      5  C   UNL     1       2.605   4.806  17.769  0.00  0.00    +0.000 A 
ATOM      6  C   UNL     1       3.670   3.999  18.237  0.00  0.00    +0.000 A 
ENDROOT
BRANCH   6   7
ATOM      7  C   UNL     1       5.066   4.501  18.080  0.00  0.00    +0.000 A 
ATOM      8  C   UNL     1       5.801   5.054  19.152  0.00  0.00    +0.000 A 
ATOM      9  C   UNL     1       7.062   5.600  18.939  0.00  0.00    +0.000 A 
ATOM     10  N   UNL     1       7.734   5.592  17.771  0.00  0.00    +0.000 NA
ATOM     11  C   UNL     1       7.037   5.010  16.782  0.00  0.00    +0.000 A 
ATOM     12  N   UNL     1       7.527   4.858  15.514  0.00  0.00    +0.000 N 
ATOM     13  C   UNL     1       6.602   4.230  14.726  0.00  0.00    +0.000 A 
ATOM     14  C   UNL     1       5.482   4.017  15.502  0.00  0.00    +0.000 A 
ATOM     15  C   UNL     1       5.750   4.472  16.833  0.00  0.00    +0.000 A 
ATOM     16  H   UNL     1       8.445   5.172  15.234  0.00  0.00    +0.000 HD
ENDBRANCH   6   7
BRANCH   1  18
ATOM     17  N   UNL     1       4.439   0.591  18.729  0.00  0.00    +0.000 N 
ATOM     18  C   UNL     1       4.292   1.787  19.386  0.00  0.00    +0.000 C 
ATOM     19  O   UNL     1       4.952   2.012  20.392  0.00  0.00    +0.000 OA
ATOM     20  H   UNL     1       5.108  -0.066  19.114  0.00  0.00    +0.000 HD
ATOM     21  H   UNL     1       3.944   0.337  17.887  0.00  0.00    +0.000 HD
ENDBRANCH   1  18
TORSDOF 2
ENDMDL
MODEL 2
REMARK VINA RESULT:      -8.2      1.285      1.313
REMARK  Name = 
REMARK  2 active torsions:
REMARK  status: ('A' for Active; 'I' for Inactive)
REMARK    1  A    between atoms: C_2  and  C_4
REMARK    2  A    between atoms: C_9  and  C_10
REMARK                            x       y       z     vdW  Elec       q    Type
REMARK                         _______ _______ _______ _____ _____    ______ ____
ROOT
ATOM      1  C   UNL     1       3.493   3.398  19.817  0.00  0.00    +0.000 A 
ATOM      2  C   UNL     1       2.237   3.291  20.455  0.00  0.00    +0.000 A 
ATOM      3  C   UNL     1       1.445   4.410  20.684  0.00  0.00    +0.000 A 
ATOM      4  C   UNL     1       1.890   5.653  20.262  0.00  0.00    +0.000 A 
ATOM      5  C   UNL     1       3.118   5.766  19.602  0.00  0.00    +0.000 A 
ATOM      6  C   UNL     1       3.977   4.661  19.387  0.00  0.00    +0.000 A 
ENDROOT
BRANCH   6   7
ATOM      7  C   UNL     1       5.292   4.900  18.725  0.00  0.00    +0.000 A 
ATOM      8  C   UNL     1       6.408   5.422  19.416  0.00  0.00    +0.000 A 
ATOM      9  C   UNL     1       7.584   5.722  18.738  0.00  0.00    +0.000 A 
ATOM     10  N   UNL     1       7.820   5.486  17.432  0.00  0.00    +0.000 NA
ATOM     11  C   UNL     1       6.764   4.936  16.812  0.00  0.00    +0.000 A 
ATOM     12  N   UNL     1       6.778   4.579  15.492  0.00  0.00    +0.000 N 
ATOM     13  C   UNL     1       5.570   4.044  15.138  0.00  0.00    +0.000 A 
ATOM     14  C   UNL     1       4.757   4.101  16.250  0.00  0.00    +0.000 A 
ATOM     15  C   UNL     1       5.511   4.632  17.346  0.00  0.00    +0.000 A 
ATOM     16  H   UNL     1       7.582   4.703  14.893  0.00  0.00    +0.000 HD
ENDBRANCH   6   7
BRANCH   1  18
ATOM     17  N   UNL     1       4.016   1.345  18.602  0.00  0.00    +0.000 N 
ATOM     18  C   UNL     1       4.273   2.128  19.698  0.00  0.00    +0.000 C 
ATOM     19  O   UNL     1       5.106   1.769  20.519  0.00  0.00    +0.000 OA
ATOM     20  H   UNL     1       4.544   0.484  18.517  0.00  0.00    +0.000 HD
ATOM     21  H   UNL     1       3.357   1.579  17.874  0.00  0.00    +0.000 HD
ENDBRANCH   1  18
TORSDOF 2
ENDMDL
MODEL 3
REMARK VINA RESULT:      -8.1      2.170      2.613
REMARK  Name = 
REMARK  2 active torsions:
REMARK  status: ('A' for Active; 'I' for Inactive)
REMARK    1  A    between atoms: C_2  and  C_4
REMARK    2  A    between atoms: C_9  and  C_10
REMARK                            x       y       z     vdW  Elec       q    Type
REMARK                         _______ _______ _______ _____ _____    ______ ____
ROOT
ATOM      1  C   UNL     1       2.643   4.704  18.597  0.00  0.00    +0.000 A 
ATOM      2  C   UNL     1       1.409   4.032  18.741  0.00  0.00    +0.000 A 
ATOM      3  C   UNL     1       1.292   2.672  18.477  0.00  0.00    +0.000 A 
ATOM      4  C   UNL     1       2.414   1.960  18.082  0.00  0.00    +0.000 A 
ATOM      5  C   UNL     1       3.647   2.610  17.966  0.00  0.00    +0.000 A 
ATOM      6  C   UNL     1       3.803   4.000  18.181  0.00  0.00    +0.000 A 
ENDROOT
BRANCH   6   7
ATOM      7  C   UNL     1       5.150   4.606  17.973  0.00  0.00    +0.000 A 
ATOM      8  C   UNL     1       5.931   5.108  19.037  0.00  0.00    +0.000 A 
ATOM      9  C   UNL     1       7.137   5.755  18.787  0.00  0.00    +0.000 A 
ATOM     10  N   UNL     1       7.716   5.898  17.579  0.00  0.00    +0.000 NA
ATOM     11  C   UNL     1       6.981   5.362  16.592  0.00  0.00    +0.000 A 
ATOM     12  N   UNL     1       7.379   5.359  15.283  0.00  0.00    +0.000 N 
ATOM     13  C   UNL     1       6.435   4.744  14.508  0.00  0.00    +0.000 A 
ATOM     14  C   UNL     1       5.394   4.386  15.338  0.00  0.00    +0.000 A 
ATOM     15  C   UNL     1       5.736   4.736  16.683  0.00  0.00    +0.000 A 
ATOM     16  H   UNL     1       8.252   5.757  14.969  0.00  0.00    +0.000 HD
ENDBRANCH   6   7
BRANCH   1  18
ATOM     17  N   UNL     1       2.589   6.587  20.152  0.00  0.00    +0.000 N 
ATOM     18  C   UNL     1       2.613   6.179  18.842  0.00  0.00    +0.000 C 
ATOM     19  O   UNL     1       2.605   7.012  17.946  0.00  0.00    +0.000 OA
ATOM     20  H   UNL     1       2.571   7.586  20.322  0.00  0.00    +0.000 HD
ATOM     21  H   UNL     1       2.609   5.964  20.945  0.00  0.00    +0.000 HD
ENDBRANCH   1  18
TORSDOF 2
ENDMDL
MODEL 4
REMARK VINA RESULT:      -8.0      1.233      2.376
REMARK  Name = 
REMARK  2 active torsions:
REMARK  status: ('A' for Active; 'I' for Inactive)
REMARK    1  A    between atoms: C_2  and  C_4
REMARK    2  A    between atoms: C_9  and  C_10
REMARK                            x       y       z     vdW  Elec       q    Type
REMARK                         _______ _______ _______ _____ _____    ______ ____
ROOT
ATOM      1  C   UNL     1       3.413   2.907  19.838  0.00  0.00    +0.000 A 
ATOM      2  C   UNL     1       2.420   2.779  20.835  0.00  0.00    +0.000 A 
ATOM      3  C   UNL     1       1.482   3.781  21.054  0.00  0.00    +0.000 A 
ATOM      4  C   UNL     1       1.512   4.921  20.266  0.00  0.00    +0.000 A 
ATOM      5  C   UNL     1       2.472   5.044  19.256  0.00  0.00    +0.000 A 
ATOM      6  C   UNL     1       3.473   4.070  19.026  0.00  0.00    +0.000 A 
ENDROOT
BRANCH   6   7
ATOM      7  C   UNL     1       4.485   4.326  17.962  0.00  0.00    +0.000 A 
ATOM      8  C   UNL     1       4.263   4.000  16.606  0.00  0.00    +0.000 A 
ATOM      9  C   UNL     1       5.272   4.164  15.664  0.00  0.00    +0.000 A 
ATOM     10  N   UNL     1       6.486   4.703  15.897  0.00  0.00    +0.000 NA
ATOM     11  C   UNL     1       6.650   5.057  17.181  0.00  0.00    +0.000 A 
ATOM     12  N   UNL     1       7.788   5.652  17.650  0.00  0.00    +0.000 N 
ATOM     13  C   UNL     1       7.670   5.901  18.989  0.00  0.00    +0.000 A 
ATOM     14  C   UNL     1       6.443   5.414  19.389  0.00  0.00    +0.000 A 
ATOM     15  C   UNL     1       5.755   4.904  18.241  0.00  0.00    +0.000 A 
ATOM     16  H   UNL     1       8.582   5.867  17.064  0.00  0.00    +0.000 HD
ENDBRANCH   6   7
BRANCH   1  18
ATOM     17  N   UNL     1       4.266   0.918  18.705  0.00  0.00    +0.000 N 
ATOM     18  C   UNL     1       4.402   1.789  19.757  0.00  0.00    +0.000 C 
ATOM     19  O   UNL     1       5.300   1.622  20.570  0.00  0.00    +0.000 OA
ATOM     20  H   UNL     1       4.936   0.160  18.645  0.00  0.00    +0.000 HD
ATOM     21  H   UNL     1       3.562   0.996  17.986  0.00  0.00    +0.000 HD
ENDBRANCH   1  18
TORSDOF 2
ENDMDL
MODEL 5
REMARK VINA RESULT:      -7.6      2.292      3.370
REMARK  Name = 
REMARK  2 active torsions:
REMARK  status: ('A' for Active; 'I' for Inactive)
REMARK    1  A    between atoms: C_2  and  C_4
REMARK    2  A    between atoms: C_9  and  C_10
REMARK                            x       y       z     vdW  Elec       q    Type
REMARK                         _______ _______ _______ _____ _____    ______ ____
ROOT
ATOM      1  C   UNL     1       2.635   4.744  18.525  0.00  0.00    +0.000 A 
ATOM      2  C   UNL     1       1.510   4.072  19.055  0.00  0.00    +0.000 A 
ATOM      3  C   UNL     1       1.304   2.716  18.824  0.00  0.00    +0.000 A 
ATOM      4  C   UNL     1       2.230   2.008  18.075  0.00  0.00    +0.000 A 
ATOM      5  C   UNL     1       3.362   2.657  17.571  0.00  0.00    +0.000 A 
ATOM      6  C   UNL     1       3.590   4.044  17.743  0.00  0.00    +0.000 A 
ENDROOT
BRANCH   6   7
ATOM      7  C   UNL     1       4.799   4.650  17.115  0.00  0.00    +0.000 A 
ATOM      8  C   UNL     1       4.932   4.811  15.718  0.00  0.00    +0.000 A 
ATOM      9  C   UNL     1       6.116   5.288  15.169  0.00  0.00    +0.000 A 
ATOM     10  N   UNL     1       7.190   5.713  15.865  0.00  0.00    +0.000 NA
ATOM     11  C   UNL     1       7.016   5.603  17.191  0.00  0.00    +0.000 A 
ATOM     12  N   UNL     1       7.957   6.000  18.101  0.00  0.00    +0.000 N 
ATOM     13  C   UNL     1       7.505   5.772  19.372  0.00  0.00    +0.000 A 
ATOM     14  C   UNL     1       6.265   5.178  19.265  0.00  0.00    +0.000 A 
ATOM     15  C   UNL     1       5.913   5.095  17.879  0.00  0.00    +0.000 A 
ATOM     16  H   UNL     1       8.845   6.403  17.840  0.00  0.00    +0.000 HD
ENDBRANCH   6   7
BRANCH   1  18
ATOM     17  N   UNL     1       2.750   6.606  20.102  0.00  0.00    +0.000 N 
ATOM     18  C   UNL     1       2.696   6.215  18.787  0.00  0.00    +0.000 C 
ATOM     19  O   UNL     1       2.697   7.059  17.902  0.00  0.00    +0.000 OA
ATOM     20  H   UNL     1       2.795   7.602  20.284  0.00  0.00    +0.000 HD
ATOM     21  H   UNL     1       2.769   5.972  20.886  0.00  0.00    +0.000 HD
ENDBRANCH   1  18
TORSDOF 2
ENDMDL
MODEL 6
REMARK VINA RESULT:      -7.4      2.414      5.172
REMARK  Name = 
REMARK  2 active torsions:
REMARK  status: ('A' for Active; 'I' for Inactive)
REMARK    1  A    between atoms: C_2  and  C_4
REMARK    2  A    between atoms: C_9  and  C_10
REMARK                            x       y       z     vdW  Elec       q    Type
REMARK                         _______ _______ _______ _____ _____    ______ ____
ROOT
ATOM      1  C   UNL     1       6.498   5.121  17.522  0.00  0.00    +0.000 A 
ATOM      2  C   UNL     1       7.259   5.253  16.338  0.00  0.00    +0.000 A 
ATOM      3  C   UNL     1       6.801   4.753  15.125  0.00  0.00    +0.000 A 
ATOM      4  C   UNL     1       5.565   4.128  15.073  0.00  0.00    +0.000 A 
ATOM      5  C   UNL     1       4.791   4.018  16.233  0.00  0.00    +0.000 A 
ATOM      6  C   UNL     1       5.235   4.473  17.498  0.00  0.00    +0.000 A 
ENDROOT
BRANCH   6   7
ATOM      7  C   UNL     1       4.357   4.255  18.683  0.00  0.00    +0.000 A 
ATOM      8  C   UNL     1       4.315   3.029  19.384  0.00  0.00    +0.000 A 
ATOM      9  C   UNL     1       3.409   2.837  20.421  0.00  0.00    +0.000 A 
ATOM     10  N   UNL     1       2.568   3.769  20.913  0.00  0.00    +0.000 NA
ATOM     11  C   UNL     1       2.669   4.941  20.267  0.00  0.00    +0.000 A 
ATOM     12  N   UNL     1       1.936   6.044  20.607  0.00  0.00    +0.000 N 
ATOM     13  C   UNL     1       2.249   7.088  19.781  0.00  0.00    +0.000 A 
ATOM     14  C   UNL     1       3.172   6.624  18.867  0.00  0.00    +0.000 A 
ATOM     15  C   UNL     1       3.485   5.262  19.181  0.00  0.00    +0.000 A 
ATOM     16  H   UNL     1       1.272   6.055  21.368  0.00  0.00    +0.000 HD
ENDBRANCH   6   7
BRANCH   1  18
ATOM     17  N   UNL     1       7.949   6.739  18.637  0.00  0.00    +0.000 N 
ATOM     18  C   UNL     1       7.140   5.638  18.769  0.00  0.00    +0.000 C 
ATOM     19  O   UNL     1       6.979   5.132  19.871  0.00  0.00    +0.000 OA
ATOM     20  H   UNL     1       8.384   7.094  19.480  0.00  0.00    +0.000 HD
ATOM     21  H   UNL     1       8.120   7.222  17.767  0.00  0.00    +0.000 HD
ENDBRANCH   1  18
TORSDOF 2
ENDMDL
MODEL 7
REMARK VINA RESULT:      -7.4      1.678      2.515
REMARK  Name = 
REMARK  2 active torsions:
REMARK  status: ('A' for Active; 'I' for Inactive)
REMARK    1  A    between atoms: C_2  and  C_4
REMARK    2  A    between atoms: C_9  and  C_10
REMARK                            x       y       z     vdW  Elec       q    Type
REMARK                         _______ _______ _______ _____ _____    ______ ____
ROOT
ATOM      1  C   UNL     1       3.371   3.734  19.363  0.00  0.00    +0.000 A 
ATOM      2  C   UNL     1       2.451   3.886  20.424  0.00  0.00    +0.000 A 
ATOM      3  C   UNL     1       1.860   5.115  20.698  0.00  0.00    +0.000 A 
ATOM      4  C   UNL     1       2.167   6.206  19.901  0.00  0.00    +0.000 A 
ATOM      5  C   UNL     1       3.054   6.059  18.829  0.00  0.00    +0.000 A 
ATOM      6  C   UNL     1       3.712   4.840  18.541  0.00  0.00    +0.000 A 
ENDROOT
BRANCH   6   7
ATOM      7  C   UNL     1       4.684   4.805  17.410  0.00  0.00    +0.000 A 
ATOM      8  C   UNL     1       4.555   3.912  16.323  0.00  0.00    +0.000 A 
ATOM      9  C   UNL     1       5.537   3.845  15.341  0.00  0.00    +0.000 A 
ATOM     10  N   UNL     1       6.626   4.635  15.263  0.00  0.00    +0.000 NA
ATOM     11  C   UNL     1       6.694   5.513  16.276  0.00  0.00    +0.000 A 
ATOM     12  N   UNL     1       7.694   6.439  16.394  0.00  0.00    +0.000 N 
ATOM     13  C   UNL     1       7.503   7.196  17.516  0.00  0.00    +0.000 A 
ATOM     14  C   UNL     1       6.378   6.711  18.149  0.00  0.00    +0.000 A 
ATOM     15  C   UNL     1       5.820   5.659  17.354  0.00  0.00    +0.000 A 
ATOM     16  H   UNL     1       8.448   6.527  15.727  0.00  0.00    +0.000 HD
ENDBRANCH   6   7
BRANCH   1  18
ATOM     17  N   UNL     1       5.128   2.141  19.948  0.00  0.00    +0.000 N 
ATOM     18  C   UNL     1       3.986   2.378  19.225  0.00  0.00    +0.000 C 
ATOM     19  O   UNL     1       3.527   1.498  18.510  0.00  0.00    +0.000 OA
ATOM     20  H   UNL     1       5.547   1.223  19.859  0.00  0.00    +0.000 HD
ATOM     21  H   UNL     1       5.559   2.809  20.571  0.00  0.00    +0.000 HD
ENDBRANCH   1  18
TORSDOF 2
ENDMDL
MODEL 8
REMARK VINA RESULT:      -7.4      2.489      3.666
REMARK  Name = 
REMARK  2 active torsions:
REMARK  status: ('A' for Active; 'I' for Inactive)
REMARK    1  A    between atoms: C_2  and  C_4
REMARK    2  A    between atoms: C_9  and  C_10
REMARK                            x       y       z     vdW  Elec       q    Type
REMARK                         _______ _______ _______ _____ _____    ______ ____
ROOT
ATOM      1  C   UNL     1       2.721   4.935  19.915  0.00  0.00    +0.000 A 
ATOM      2  C   UNL     1       1.915   4.588  21.023  0.00  0.00    +0.000 A 
ATOM      3  C   UNL     1       2.007   3.335  21.619  0.00  0.00    +0.000 A 
ATOM      4  C   UNL     1       2.920   2.416  21.127  0.00  0.00    +0.000 A 
ATOM      5  C   UNL     1       3.743   2.761  20.050  0.00  0.00    +0.000 A 
ATOM      6  C   UNL     1       3.654   4.006  19.384  0.00  0.00    +0.000 A 
ENDROOT
BRANCH   6   7
ATOM      7  C   UNL     1       4.538   4.251  18.208  0.00  0.00    +0.000 A 
ATOM      8  C   UNL     1       4.193   3.847  16.900  0.00  0.00    +0.000 A 
ATOM      9  C   UNL     1       5.090   4.005  15.850  0.00  0.00    +0.000 A 
ATOM     10  N   UNL     1       6.294   4.607  15.929  0.00  0.00    +0.000 NA
ATOM     11  C   UNL     1       6.573   5.033  17.171  0.00  0.00    +0.000 A 
ATOM     12  N   UNL     1       7.724   5.700  17.489  0.00  0.00    +0.000 N 
ATOM     13  C   UNL     1       7.732   6.012  18.821  0.00  0.00    +0.000 A 
ATOM     14  C   UNL     1       6.578   5.493  19.369  0.00  0.00    +0.000 A 
ATOM     15  C   UNL     1       5.800   4.896  18.325  0.00  0.00    +0.000 A 
ATOM     16  H   UNL     1       8.442   5.919  16.814  0.00  0.00    +0.000 HD
ENDBRANCH   6   7
BRANCH   1  18
ATOM     17  N   UNL     1       2.331   7.328  20.207  0.00  0.00    +0.000 N 
ATOM     18  C   UNL     1       2.469   6.286  19.326  0.00  0.00    +0.000 C 
ATOM     19  O   UNL     1       2.381   6.492  18.123  0.00  0.00    +0.000 OA
ATOM     20  H   UNL     1       2.163   8.246  19.811  0.00  0.00    +0.000 HD
ATOM     21  H   UNL     1       2.406   7.243  21.210  0.00  0.00    +0.000 HD
ENDBRANCH   1  18
TORSDOF 2
ENDMDL
MODEL 9
REMARK VINA RESULT:      -7.3      1.612      1.693
REMARK  Name = 
REMARK  2 active torsions:
REMARK  status: ('A' for Active; 'I' for Inactive)
REMARK    1  A    between atoms: C_2  and  C_4
REMARK    2  A    between atoms: C_9  and  C_10
REMARK                            x       y       z     vdW  Elec       q    Type
REMARK                         _______ _______ _______ _____ _____    ______ ____
ROOT
ATOM      1  C   UNL     1       3.394   3.145  19.003  0.00  0.00    +0.000 A 
ATOM      2  C   UNL     1       2.422   2.279  19.552  0.00  0.00    +0.000 A 
ATOM      3  C   UNL     1       1.080   2.384  19.201  0.00  0.00    +0.000 A 
ATOM      4  C   UNL     1       0.694   3.346  18.282  0.00  0.00    +0.000 A 
ATOM      5  C   UNL     1       1.653   4.189  17.710  0.00  0.00    +0.000 A 
ATOM      6  C   UNL     1       3.021   4.148  18.069  0.00  0.00    +0.000 A 
ENDROOT
BRANCH   6   7
ATOM      7  C   UNL     1       3.952   5.130  17.443  0.00  0.00    +0.000 A 
ATOM      8  C   UNL     1       3.988   6.491  17.818  0.00  0.00    +0.000 A 
ATOM      9  C   UNL     1       4.800   7.392  17.139  0.00  0.00    +0.000 A 
ATOM     10  N   UNL     1       5.667   7.081  16.155  0.00  0.00    +0.000 NA
ATOM     11  C   UNL     1       5.656   5.772  15.857  0.00  0.00    +0.000 A 
ATOM     12  N   UNL     1       6.473   5.216  14.912  0.00  0.00    +0.000 N 
ATOM     13  C   UNL     1       6.244   3.871  14.828  0.00  0.00    +0.000 A 
ATOM     14  C   UNL     1       5.228   3.573  15.711  0.00  0.00    +0.000 A 
ATOM     15  C   UNL     1       4.861   4.767  16.411  0.00  0.00    +0.000 A 
ATOM     16  H   UNL     1       7.141   5.750  14.374  0.00  0.00    +0.000 HD
ENDBRANCH   6   7
BRANCH   1  18
ATOM     17  N   UNL     1       5.112   1.733  20.012  0.00  0.00    +0.000 N 
ATOM     18  C   UNL     1       4.786   2.972  19.520  0.00  0.00    +0.000 C 
ATOM     19  O   UNL     1       5.621   3.866  19.525  0.00  0.00    +0.000 OA
ATOM     20  H   UNL     1       6.056   1.610  20.361  0.00  0.00    +0.000 HD
ATOM     21  H   UNL     1       4.486   0.941  20.028  0.00  0.00    +0.000 HD
ENDBRANCH   1  18
TORSDOF 2
ENDMDL
