MODEL 1
REMARK VINA RESULT:      -7.2      0.000      0.000
REMARK  Name = 
REMARK  4 active torsions:
REMARK  status: ('A' for Active; 'I' for Inactive)
REMARK    1  A    between atoms: C_1  and  C_2
REMARK    2  A    between atoms: C_2  and  N_3
REMARK    3  A    between atoms: C_8  and  N_9
REMARK    4  A    between atoms: C_10  and  C_12
REMARK                            x       y       z     vdW  Elec       q    Type
REMARK                         _______ _______ _______ _____ _____    ______ ____
ROOT
ATOM      1  N   UNL     1       1.785   4.343  20.210  0.00  0.00    +0.000 N 
ATOM      2  C   UNL     1       1.868   5.662  20.560  0.00  0.00    +0.000 A 
ATOM      3  N   UNL     1       2.574   6.349  19.695  0.00  0.00    +0.000 NA
ATOM      4  C   UNL     1       2.973   5.435  18.751  0.00  0.00    +0.000 A 
ATOM      5  C   UNL     1       3.768   5.628  17.612  0.00  0.00    +0.000 A 
ATOM      6  C   UNL     1       4.062   4.540  16.781  0.00  0.00    +0.000 A 
ATOM      7  C   UNL     1       3.520   3.280  17.076  0.00  0.00    +0.000 A 
ATOM      8  C   UNL     1       2.728   3.061  18.215  0.00  0.00    +0.000 A 
ATOM      9  C   UNL     1       2.481   4.165  19.038  0.00  0.00    +0.000 A 
ENDROOT
BRANCH   6  10
ATOM     10  N   UNL     1       4.891   4.650  15.644  0.00  0.00    +0.000 N 
ATOM     11  C   UNL     1       6.271   4.491  15.608  0.00  0.00    +0.000 C 
ATOM     12  O   UNL     1       6.974   4.211  16.574  0.00  0.00    +0.000 OA
ATOM     13  H   UNL     1       4.448   4.770  14.740  0.00  0.00    +0.000 HD
BRANCH  11  14
ATOM     14  C   UNL     1       6.845   4.641  14.287  0.00  0.00    +0.000 A 
ATOM     15  C   UNL     1       6.549   3.977  13.110  0.00  0.00    +0.000 A 
ATOM     16  C   UNL     1       7.390   4.518  12.113  0.00  0.00    +0.000 A 
ATOM     17  C   UNL     1       8.155   5.475  12.738  0.00  0.00    +0.000 A 
ATOM     18  O   UNL     1       7.834   5.562  14.057  0.00  0.00    +0.000 OA
ENDBRANCH  11  14
ENDBRANCH   6  10
BRANCH   1  20
ATOM     19  C   UNL     1       2.038   2.538  21.862  0.00  0.00    +0.000 C 
ATOM     20  C   UNL     1       1.093   3.329  20.976  0.00  0.00    +0.000 C 
ENDBRANCH   1  20
TORSDOF 3
ENDMDL
MODEL 2
REMARK VINA RESULT:      -6.7      0.960      1.143
REMARK  Name = 
REMARK  4 active torsions:
REMARK  status: ('A' for Active; 'I' for Inactive)
REMARK    1  A    between atoms: C_1  and  C_2
REMARK    2  A    between atoms: C_2  and  N_3
REMARK    3  A    between atoms: C_8  and  N_9
REMARK    4  A    between atoms: C_10  and  C_12
REMARK                            x       y       z     vdW  Elec       q    Type
REMARK                         _______ _______ _______ _____ _____    ______ ____
ROOT
ATOM      1  N   UNL     1       2.502   4.565  20.666  0.00  0.00    +0.000 N 
ATOM      2  C   UNL     1       2.153   5.886  20.620  0.00  0.00    +0.000 A 
ATOM      3  N   UNL     1       2.499   6.440  19.483  0.00  0.00    +0.000 NA
ATOM      4  C   UNL     1       3.107   5.438  18.768  0.00  0.00    +0.000 A 
ATOM      5  C   UNL     1       3.685   5.488  17.491  0.00  0.00    +0.000 A 
ATOM      6  C   UNL     1       4.266   4.334  16.949  0.00  0.00    +0.000 A 
ATOM      7  C   UNL     1       4.222   3.134  17.674  0.00  0.00    +0.000 A 
ATOM      8  C   UNL     1       3.656   3.062  18.958  0.00  0.00    +0.000 A 
ATOM      9  C   UNL     1       3.113   4.241  19.478  0.00  0.00    +0.000 A 
ENDROOT
BRANCH   6  10
ATOM     10  N   UNL     1       4.905   4.321  15.690  0.00  0.00    +0.000 N 
ATOM     11  C   UNL     1       6.272   4.385  15.456  0.00  0.00    +0.000 C 
ATOM     12  O   UNL     1       7.135   4.447  16.327  0.00  0.00    +0.000 OA
ATOM     13  H   UNL     1       4.334   4.160  14.868  0.00  0.00    +0.000 HD
BRANCH  11  14
ATOM     14  C   UNL     1       6.632   4.326  14.054  0.00  0.00    +0.000 A 
ATOM     15  C   UNL     1       7.501   5.120  13.328  0.00  0.00    +0.000 A 
ATOM     16  C   UNL     1       7.498   4.624  12.005  0.00  0.00    +0.000 A 
ATOM     17  C   UNL     1       6.623   3.562  11.998  0.00  0.00    +0.000 A 
ATOM     18  O   UNL     1       6.091   3.369  13.235  0.00  0.00    +0.000 OA
ENDBRANCH  11  14
ENDBRANCH   6  10
BRANCH   1  20
ATOM     19  C   UNL     1       1.264   2.602  21.482  0.00  0.00    +0.000 C 
ATOM     20  C   UNL     1       2.273   3.691  21.796  0.00  0.00    +0.000 C 
ENDBRANCH   1  20
TORSDOF 3
ENDMDL
MODEL 3
REMARK VINA RESULT:      -6.5      1.239      1.645
REMARK  Name = 
REMARK  4 active torsions:
REMARK  status: ('A' for Active; 'I' for Inactive)
REMARK    1  A    between atoms: C_1  and  C_2
REMARK    2  A    between atoms: C_2  and  N_3
REMARK    3  A    between atoms: C_8  and  N_9
REMARK    4  A    between atoms: C_10  and  C_12
REMARK                            x       y       z     vdW  Elec       q    Type
REMARK                         _______ _______ _______ _____ _____    ______ ____
ROOT
ATOM      1  N   UNL     1       2.083   3.289  20.132  0.00  0.00    +0.000 N 
ATOM      2  C   UNL     1       0.960   2.873  19.473  0.00  0.00    +0.000 A 
ATOM      3  N   UNL     1       1.132   2.869  18.173  0.00  0.00    +0.000 NA
ATOM      4  C   UNL     1       2.418   3.311  17.982  0.00  0.00    +0.000 A 
ATOM      5  C   UNL     1       3.114   3.518  16.782  0.00  0.00    +0.000 A 
ATOM      6  C   UNL     1       4.432   3.988  16.819  0.00  0.00    +0.000 A 
ATOM      7  C   UNL     1       5.054   4.204  18.058  0.00  0.00    +0.000 A 
ATOM      8  C   UNL     1       4.374   4.012  19.272  0.00  0.00    +0.000 A 
ATOM      9  C   UNL     1       3.049   3.571  19.195  0.00  0.00    +0.000 A 
ENDROOT
BRANCH   6  10
ATOM     10  N   UNL     1       5.178   4.261  15.651  0.00  0.00    +0.000 N 
ATOM     11  C   UNL     1       6.551   4.460  15.574  0.00  0.00    +0.000 C 
ATOM     12  O   UNL     1       7.325   4.410  16.526  0.00  0.00    +0.000 OA
ATOM     13  H   UNL     1       4.698   4.226  14.760  0.00  0.00    +0.000 HD
BRANCH  11  14
ATOM     14  C   UNL     1       7.035   4.699  14.231  0.00  0.00    +0.000 A 
ATOM     15  C   UNL     1       6.651   4.122  13.034  0.00  0.00    +0.000 A 
ATOM     16  C   UNL     1       7.429   4.726  12.021  0.00  0.00    +0.000 A 
ATOM     17  C   UNL     1       8.247   5.630  12.658  0.00  0.00    +0.000 A 
ATOM     18  O   UNL     1       8.019   5.625  13.999  0.00  0.00    +0.000 OA
ENDBRANCH  11  14
ENDBRANCH   6  10
BRANCH   1  20
ATOM     19  C   UNL     1       1.381   2.373  22.304  0.00  0.00    +0.000 C 
ATOM     20  C   UNL     1       2.195   3.421  21.568  0.00  0.00    +0.000 C 
ENDBRANCH   1  20
TORSDOF 3
ENDMDL
MODEL 4
REMARK VINA RESULT:      -6.1      3.097      4.206
REMARK  Name = 
REMARK  4 active torsions:
REMARK  status: ('A' for Active; 'I' for Inactive)
REMARK    1  A    between atoms: C_1  and  C_2
REMARK    2  A    between atoms: C_2  and  N_3
REMARK    3  A    between atoms: C_8  and  N_9
REMARK    4  A    between atoms: C_10  and  C_12
REMARK                            x       y       z     vdW  Elec       q    Type
REMARK                         _______ _______ _______ _____ _____    ______ ____
ROOT
ATOM      1  N   UNL     1       0.799   9.813  20.534  0.00  0.00    +0.000 N 
ATOM      2  C   UNL     1       0.589  10.799  19.611  0.00  0.00    +0.000 A 
ATOM      3  N   UNL     1       1.106  10.491  18.446  0.00  0.00    +0.000 NA
ATOM      4  C   UNL     1       1.683   9.258  18.625  0.00  0.00    +0.000 A 
ATOM      5  C   UNL     1       2.393   8.472  17.707  0.00  0.00    +0.000 A 
ATOM      6  C   UNL     1       2.910   7.234  18.110  0.00  0.00    +0.000 A 
ATOM      7  C   UNL     1       2.672   6.779  19.416  0.00  0.00    +0.000 A 
ATOM      8  C   UNL     1       1.971   7.553  20.355  0.00  0.00    +0.000 A 
ATOM      9  C   UNL     1       1.496   8.797  19.925  0.00  0.00    +0.000 A 
ENDROOT
BRANCH   6  10
ATOM     10  N   UNL     1       3.672   6.410  17.254  0.00  0.00    +0.000 N 
ATOM     11  C   UNL     1       5.018   6.559  16.944  0.00  0.00    +0.000 C 
ATOM     12  O   UNL     1       5.751   7.437  17.390  0.00  0.00    +0.000 OA
ATOM     13  H   UNL     1       3.237   5.570  16.890  0.00  0.00    +0.000 HD
BRANCH  11  14
ATOM     14  C   UNL     1       5.532   5.541  16.052  0.00  0.00    +0.000 A 
ATOM     15  C   UNL     1       5.193   4.204  15.943  0.00  0.00    +0.000 A 
ATOM     16  C   UNL     1       5.983   3.666  14.903  0.00  0.00    +0.000 A 
ATOM     17  C   UNL     1       6.762   4.702  14.442  0.00  0.00    +0.000 A 
ATOM     18  O   UNL     1       6.498   5.846  15.129  0.00  0.00    +0.000 OA
ENDBRANCH  11  14
ENDBRANCH   6  10
BRANCH   1  20
ATOM     19  C   UNL     1      -0.586   8.744  22.263  0.00  0.00    +0.000 C 
ATOM     20  C   UNL     1       0.369   9.871  21.914  0.00  0.00    +0.000 C 
ENDBRANCH   1  20
TORSDOF 3
ENDMDL
MODEL 5
REMARK VINA RESULT:      -6.1      3.440      4.868
REMARK  Name = 
REMARK  4 active torsions:
REMARK  status: ('A' for Active; 'I' for Inactive)
REMARK    1  A    between atoms: C_1  and  C_2
REMARK    2  A    between atoms: C_2  and  N_3
REMARK    3  A    between atoms: C_8  and  N_9
REMARK    4  A    between atoms: C_10  and  C_12
REMARK                            x       y       z     vdW  Elec       q    Type
REMARK                         _______ _______ _______ _____ _____    ______ ____
ROOT
ATOM      1  N   UNL     1       0.228   9.859  21.220  0.00  0.00    +0.000 N 
ATOM      2  C   UNL     1      -0.011  10.916  20.387  0.00  0.00    +0.000 A 
ATOM      3  N   UNL     1       0.535  10.739  19.208  0.00  0.00    +0.000 NA
ATOM      4  C   UNL     1       1.162   9.519  19.285  0.00  0.00    +0.000 A 
ATOM      5  C   UNL     1       1.918   8.850  18.311  0.00  0.00    +0.000 A 
ATOM      6  C   UNL     1       2.481   7.603  18.610  0.00  0.00    +0.000 A 
ATOM      7  C   UNL     1       2.244   7.021  19.864  0.00  0.00    +0.000 A 
ATOM      8  C   UNL     1       1.497   7.676  20.857  0.00  0.00    +0.000 A 
ATOM      9  C   UNL     1       0.976   8.933  20.533  0.00  0.00    +0.000 A 
ENDROOT
BRANCH   6  10
ATOM     10  N   UNL     1       3.290   6.893  17.696  0.00  0.00    +0.000 N 
ATOM     11  C   UNL     1       4.286   5.978  18.011  0.00  0.00    +0.000 C 
ATOM     12  O   UNL     1       4.598   5.639  19.149  0.00  0.00    +0.000 OA
ATOM     13  H   UNL     1       3.081   6.978  16.708  0.00  0.00    +0.000 HD
BRANCH  11  14
ATOM     14  C   UNL     1       4.931   5.390  16.855  0.00  0.00    +0.000 A 
ATOM     15  C   UNL     1       5.254   5.957  15.636  0.00  0.00    +0.000 A 
ATOM     16  C   UNL     1       5.887   4.952  14.872  0.00  0.00    +0.000 A 
ATOM     17  C   UNL     1       5.908   3.828  15.665  0.00  0.00    +0.000 A 
ATOM     18  O   UNL     1       5.333   4.079  16.872  0.00  0.00    +0.000 OA
ENDBRANCH  11  14
ENDBRANCH   6  10
BRANCH   1  20
ATOM     19  C   UNL     1      -1.087  10.957  22.986  0.00  0.00    +0.000 C 
ATOM     20  C   UNL     1      -0.225   9.772  22.591  0.00  0.00    +0.000 C 
ENDBRANCH   1  20
TORSDOF 3
ENDMDL
MODEL 6
REMARK VINA RESULT:      -6.1      1.151      1.972
REMARK  Name = 
REMARK  4 active torsions:
REMARK  status: ('A' for Active; 'I' for Inactive)
REMARK    1  A    between atoms: C_1  and  C_2
REMARK    2  A    between atoms: C_2  and  N_3
REMARK    3  A    between atoms: C_8  and  N_9
REMARK    4  A    between atoms: C_10  and  C_12
REMARK                            x       y       z     vdW  Elec       q    Type
REMARK                         _______ _______ _______ _____ _____    ______ ____
ROOT
ATOM      1  N   UNL     1       2.201   3.122  19.764  0.00  0.00    +0.000 N 
ATOM      2  C   UNL     1       2.270   1.765  19.609  0.00  0.00    +0.000 A 
ATOM      3  N   UNL     1       3.017   1.431  18.584  0.00  0.00    +0.000 NA
ATOM      4  C   UNL     1       3.441   2.621  18.047  0.00  0.00    +0.000 A 
ATOM      5  C   UNL     1       4.248   2.848  16.923  0.00  0.00    +0.000 A 
ATOM      6  C   UNL     1       4.552   4.161  16.543  0.00  0.00    +0.000 A 
ATOM      7  C   UNL     1       4.081   5.231  17.318  0.00  0.00    +0.000 A 
ATOM      8  C   UNL     1       3.264   5.029  18.443  0.00  0.00    +0.000 A 
ATOM      9  C   UNL     1       2.956   3.705  18.774  0.00  0.00    +0.000 A 
ENDROOT
BRANCH   6  10
ATOM     10  N   UNL     1       5.321   4.466  15.399  0.00  0.00    +0.000 N 
ATOM     11  C   UNL     1       6.705   4.565  15.334  0.00  0.00    +0.000 C 
ATOM     12  O   UNL     1       7.470   4.383  16.277  0.00  0.00    +0.000 OA
ATOM     13  H   UNL     1       4.843   4.536  14.508  0.00  0.00    +0.000 HD
BRANCH  11  14
ATOM     14  C   UNL     1       7.212   4.869  14.012  0.00  0.00    +0.000 A 
ATOM     15  C   UNL     1       6.810   4.392  12.777  0.00  0.00    +0.000 A 
ATOM     16  C   UNL     1       7.624   5.023  11.811  0.00  0.00    +0.000 A 
ATOM     17  C   UNL     1       8.479   5.843  12.510  0.00  0.00    +0.000 A 
ATOM     18  O   UNL     1       8.240   5.760  13.847  0.00  0.00    +0.000 OA
ENDBRANCH  11  14
ENDBRANCH   6  10
BRANCH   1  20
ATOM     19  C   UNL     1       1.187   2.907  21.994  0.00  0.00    +0.000 C 
ATOM     20  C   UNL     1       1.437   3.796  20.790  0.00  0.00    +0.000 C 
ENDBRANCH   1  20
TORSDOF 3
ENDMDL
MODEL 7
REMARK VINA RESULT:      -6.0      1.370      2.520
REMARK  Name = 
REMARK  4 active torsions:
REMARK  status: ('A' for Active; 'I' for Inactive)
REMARK    1  A    between atoms: C_1  and  C_2
REMARK    2  A    between atoms: C_2  and  N_3
REMARK    3  A    between atoms: C_8  and  N_9
REMARK    4  A    between atoms: C_10  and  C_12
REMARK                            x       y       z     vdW  Elec       q    Type
REMARK                         _______ _______ _______ _____ _____    ______ ____
ROOT
ATOM      1  N   UNL     1       1.871   6.949  20.336  0.00  0.00    +0.000 N 
ATOM      2  C   UNL     1       1.689   5.675  20.796  0.00  0.00    +0.000 A 
ATOM      3  N   UNL     1       2.294   4.793  20.037  0.00  0.00    +0.000 NA
ATOM      4  C   UNL     1       2.884   5.527  19.037  0.00  0.00    +0.000 A 
ATOM      5  C   UNL     1       3.641   5.084  17.943  0.00  0.00    +0.000 A 
ATOM      6  C   UNL     1       4.146   6.016  17.029  0.00  0.00    +0.000 A 
ATOM      7  C   UNL     1       3.925   7.385  17.244  0.00  0.00    +0.000 A 
ATOM      8  C   UNL     1       3.163   7.851  18.328  0.00  0.00    +0.000 A 
ATOM      9  C   UNL     1       2.649   6.889  19.204  0.00  0.00    +0.000 A 
ENDROOT
BRANCH   6  10
ATOM     10  N   UNL     1       4.877   5.640  15.881  0.00  0.00    +0.000 N 
ATOM     11  C   UNL     1       6.163   5.114  15.854  0.00  0.00    +0.000 C 
ATOM     12  O   UNL     1       6.850   4.882  16.845  0.00  0.00    +0.000 OA
ATOM     13  H   UNL     1       4.405   5.666  14.985  0.00  0.00    +0.000 HD
BRANCH  11  14
ATOM     14  C   UNL     1       6.643   4.802  14.524  0.00  0.00    +0.000 A 
ATOM     15  C   UNL     1       6.194   3.859  13.618  0.00  0.00    +0.000 A 
ATOM     16  C   UNL     1       7.001   3.983  12.465  0.00  0.00    +0.000 A 
ATOM     17  C   UNL     1       7.899   4.989  12.736  0.00  0.00    +0.000 A 
ATOM     18  O   UNL     1       7.693   5.496  13.982  0.00  0.00    +0.000 OA
ENDBRANCH  11  14
ENDBRANCH   6  10
BRANCH   1  20
ATOM     19  C   UNL     1      -0.140   7.937  21.349  0.00  0.00    +0.000 C 
ATOM     20  C   UNL     1       1.309   8.135  20.946  0.00  0.00    +0.000 C 
ENDBRANCH   1  20
TORSDOF 3
ENDMDL
MODEL 8
REMARK VINA RESULT:      -6.0      4.330      6.422
REMARK  Name = 
REMARK  4 active torsions:
REMARK  status: ('A' for Active; 'I' for Inactive)
REMARK    1  A    between atoms: C_1  and  C_2
REMARK    2  A    between atoms: C_2  and  N_3
REMARK    3  A    between atoms: C_8  and  N_9
REMARK    4  A    between atoms: C_10  and  C_12
REMARK                            x       y       z     vdW  Elec       q    Type
REMARK                         _______ _______ _______ _____ _____    ______ ____
ROOT
ATOM      1  N   UNL     1       0.740  10.942  19.566  0.00  0.00    +0.000 N 
ATOM      2  C   UNL     1       0.344  10.900  20.874  0.00  0.00    +0.000 A 
ATOM      3  N   UNL     1       0.615   9.742  21.426  0.00  0.00    +0.000 NA
ATOM      4  C   UNL     1       1.201   8.999  20.431  0.00  0.00    +0.000 A 
ATOM      5  C   UNL     1       1.667   7.678  20.471  0.00  0.00    +0.000 A 
ATOM      6  C   UNL     1       2.229   7.107  19.322  0.00  0.00    +0.000 A 
ATOM      7  C   UNL     1       2.357   7.881  18.159  0.00  0.00    +0.000 A 
ATOM      8  C   UNL     1       1.890   9.204  18.093  0.00  0.00    +0.000 A 
ATOM      9  C   UNL     1       1.307   9.730  19.251  0.00  0.00    +0.000 A 
ENDROOT
BRANCH   6  10
ATOM     10  N   UNL     1       2.678   5.769  19.276  0.00  0.00    +0.000 N 
ATOM     11  C   UNL     1       2.179   4.757  18.466  0.00  0.00    +0.000 C 
ATOM     12  O   UNL     1       1.271   4.889  17.650  0.00  0.00    +0.000 OA
ATOM     13  H   UNL     1       3.502   5.524  19.813  0.00  0.00    +0.000 HD
BRANCH  11  14
ATOM     14  C   UNL     1       2.861   3.489  18.624  0.00  0.00    +0.000 A 
ATOM     15  C   UNL     1       2.744   2.322  17.891  0.00  0.00    +0.000 A 
ATOM     16  C   UNL     1       3.647   1.393  18.454  0.00  0.00    +0.000 A 
ATOM     17  C   UNL     1       4.257   2.043  19.501  0.00  0.00    +0.000 A 
ATOM     18  O   UNL     1       3.791   3.316  19.616  0.00  0.00    +0.000 OA
ENDBRANCH  11  14
ENDBRANCH   6  10
BRANCH   1  20
ATOM     19  C   UNL     1       1.827  12.890  18.531  0.00  0.00    +0.000 C 
ATOM     20  C   UNL     1       0.557  12.075  18.685  0.00  0.00    +0.000 C 
ENDBRANCH   1  20
TORSDOF 3
ENDMDL
MODEL 9
REMARK VINA RESULT:      -6.0      4.221      8.066
REMARK  Name = 
REMARK  4 active torsions:
REMARK  status: ('A' for Active; 'I' for Inactive)
REMARK    1  A    between atoms: C_1  and  C_2
REMARK    2  A    between atoms: C_2  and  N_3
REMARK    3  A    between atoms: C_8  and  N_9
REMARK    4  A    between atoms: C_10  and  C_12
REMARK                            x       y       z     vdW  Elec       q    Type
REMARK                         _______ _______ _______ _____ _____    ______ ____
ROOT
ATOM      1  N   UNL     1       4.507   4.522  17.032  0.00  0.00    +0.000 N 
ATOM      2  C   UNL     1       4.211   3.352  17.673  0.00  0.00    +0.000 A 
ATOM      3  N   UNL     1       3.412   3.546  18.695  0.00  0.00    +0.000 NA
ATOM      4  C   UNL     1       3.189   4.901  18.722  0.00  0.00    +0.000 A 
ATOM      5  C   UNL     1       2.424   5.654  19.623  0.00  0.00    +0.000 A 
ATOM      6  C   UNL     1       2.340   7.043  19.468  0.00  0.00    +0.000 A 
ATOM      7  C   UNL     1       2.989   7.657  18.386  0.00  0.00    +0.000 A 
ATOM      8  C   UNL     1       3.769   6.924  17.476  0.00  0.00    +0.000 A 
ATOM      9  C   UNL     1       3.853   5.543  17.680  0.00  0.00    +0.000 A 
ENDROOT
BRANCH   6  10
ATOM     10  N   UNL     1       1.625   7.870  20.362  0.00  0.00    +0.000 N 
ATOM     11  C   UNL     1       0.976   9.058  20.051  0.00  0.00    +0.000 C 
ATOM     12  O   UNL     1       0.918   9.557  18.931  0.00  0.00    +0.000 OA
ATOM     13  H   UNL     1       1.485   7.538  21.309  0.00  0.00    +0.000 HD
BRANCH  11  14
ATOM     14  C   UNL     1       0.306   9.673  21.177  0.00  0.00    +0.000 A 
ATOM     15  C   UNL     1       0.102   9.194  22.458  0.00  0.00    +0.000 A 
ATOM     16  C   UNL     1      -0.592  10.200  23.166  0.00  0.00    +0.000 A 
ATOM     17  C   UNL     1      -0.779  11.231  22.275  0.00  0.00    +0.000 A 
ATOM     18  O   UNL     1      -0.238  10.927  21.064  0.00  0.00    +0.000 OA
ENDBRANCH  11  14
ENDBRANCH   6  10
BRANCH   1  20
ATOM     19  C   UNL     1       6.841   4.460  16.258  0.00  0.00    +0.000 C 
ATOM     20  C   UNL     1       5.380   4.635  15.885  0.00  0.00    +0.000 C 
ENDBRANCH   1  20
TORSDOF 3
ENDMDL
