MODEL 1
REMARK VINA RESULT:     -10.1      0.000      0.000
REMARK  Name = 
REMARK  5 active torsions:
REMARK  status: ('A' for Active; 'I' for Inactive)
REMARK    1  A    between atoms: C_2  and  O_3
REMARK    2  A    between atoms: C_2  and  C_4
REMARK    3  A    between atoms: C_9  and  C_10
REMARK    4  A    between atoms: C_13  and  C_14
REMARK    5  A    between atoms: C_14  and  N_15
REMARK                            x       y       z     vdW  Elec       q    Type
REMARK                         _______ _______ _______ _____ _____    ______ ____
ROOT
ATOM      1  C   UNL     1       0.593  10.037  20.126  0.00  0.00    +0.000 A 
ATOM      2  C   UNL     1       0.771  10.155  18.727  0.00  0.00    +0.000 A 
ATOM      3  C   UNL     1       1.462   9.189  18.003  0.00  0.00    +0.000 A 
ATOM      4  C   UNL     1       1.995   8.071  18.652  0.00  0.00    +0.000 A 
ATOM      5  C   UNL     1       1.810   7.920  20.023  0.00  0.00    +0.000 A 
ATOM      6  C   UNL     1       1.128   8.889  20.750  0.00  0.00    +0.000 A 
ENDROOT
BRANCH   1  12
ATOM      7  C   UNL     1      -0.520  10.916  22.327  0.00  0.00    +0.000 A 
ATOM      8  C   UNL     1      -1.200  11.968  22.975  0.00  0.00    +0.000 A 
ATOM      9  C   UNL     1      -1.545  13.131  22.302  0.00  0.00    +0.000 A 
ATOM     10  C   UNL     1      -1.208  13.283  20.967  0.00  0.00    +0.000 A 
ATOM     11  C   UNL     1      -0.529  12.273  20.298  0.00  0.00    +0.000 A 
ATOM     12  C   UNL     1      -0.167  11.060  20.940  0.00  0.00    +0.000 A 
BRANCH   7  14
ATOM     13  O   UNL     1       0.621   9.643  23.955  0.00  0.00    +0.000 OA
ATOM     14  C   UNL     1      -0.293   9.688  23.148  0.00  0.00    +0.000 C 
BRANCH  14  15
ATOM     15  O   UNL     1      -1.055   8.581  22.981  0.00  0.00    +0.000 OA
ATOM     16  H   UNL     1      -1.517   8.389  22.153  0.00  0.00    +0.000 HD
ENDBRANCH  14  15
ENDBRANCH   7  14
ENDBRANCH   1  12
BRANCH   4  17
ATOM     17  C   UNL     1       2.618   6.967  17.869  0.00  0.00    +0.000 C 
BRANCH  17  18
ATOM     18  N   UNL     1       3.403   5.989  18.637  0.00  0.00    +0.000 N 
ATOM     19  C   UNL     1       2.795   4.704  18.704  0.00  0.00    +0.000 A 
ATOM     20  C   UNL     1       1.583   4.349  19.301  0.00  0.00    +0.000 A 
ATOM     21  C   UNL     1       1.134   3.023  19.143  0.00  0.00    +0.000 A 
ATOM     22  C   UNL     1       1.884   2.105  18.380  0.00  0.00    +0.000 A 
ATOM     23  C   UNL     1       3.081   2.502  17.758  0.00  0.00    +0.000 A 
ATOM     24  C   UNL     1       3.501   3.816  17.949  0.00  0.00    +0.000 A 
ATOM     25  N   UNL     1       4.609   4.485  17.406  0.00  0.00    +0.000 N 
ATOM     26  C   UNL     1       5.177   4.270  16.115  0.00  0.00    +0.000 C 
ATOM     27  C   UNL     1       6.691   4.133  16.215  0.00  0.00    +0.000 C 
ATOM     28  C   UNL     1       7.376   5.320  16.924  0.00  0.00    +0.000 C 
ATOM     29  C   UNL     1       7.262   5.406  18.481  0.00  0.00    +0.000 C 
ATOM     30  C   UNL     1       5.851   5.470  19.153  0.00  0.00    +0.000 C 
ATOM     31  C   UNL     1       4.749   5.735  18.112  0.00  0.00    +0.000 C 
ENDBRANCH  17  18
ENDBRANCH   4  17
TORSDOF 5
ENDMDL
MODEL 2
REMARK VINA RESULT:     -10.1      1.566      1.954
REMARK  Name = 
REMARK  5 active torsions:
REMARK  status: ('A' for Active; 'I' for Inactive)
REMARK    1  A    between atoms: C_2  and  O_3
REMARK    2  A    between atoms: C_2  and  C_4
REMARK    3  A    between atoms: C_9  and  C_10
REMARK    4  A    between atoms: C_13  and  C_14
REMARK    5  A    between atoms: C_14  and  N_15
REMARK                            x       y       z     vdW  Elec       q    Type
REMARK                         _______ _______ _______ _____ _____    ______ ____
ROOT
ATOM      1  C   UNL     1       0.741  10.040  20.536  0.00  0.00    +0.000 A 
ATOM      2  C   UNL     1       0.882  10.199  19.137  0.00  0.00    +0.000 A 
ATOM      3  C   UNL     1       1.494   9.224  18.357  0.00  0.00    +0.000 A 
ATOM      4  C   UNL     1       1.986   8.056  18.948  0.00  0.00    +0.000 A 
ATOM      5  C   UNL     1       1.836   7.865  20.319  0.00  0.00    +0.000 A 
ATOM      6  C   UNL     1       1.231   8.842  21.102  0.00  0.00    +0.000 A 
ENDROOT
BRANCH   1  12
ATOM      7  C   UNL     1       0.355  12.482  21.399  0.00  0.00    +0.000 A 
ATOM      8  C   UNL     1      -0.379  13.339  22.244  0.00  0.00    +0.000 A 
ATOM      9  C   UNL     1      -1.365  12.852  23.092  0.00  0.00    +0.000 A 
ATOM     10  C   UNL     1      -1.654  11.498  23.110  0.00  0.00    +0.000 A 
ATOM     11  C   UNL     1      -0.959  10.624  22.285  0.00  0.00    +0.000 A 
ATOM     12  C   UNL     1       0.065  11.073  21.410  0.00  0.00    +0.000 A 
BRANCH   7  14
ATOM     13  O   UNL     1       2.579  13.190  21.050  0.00  0.00    +0.000 OA
ATOM     14  C   UNL     1       1.444  13.129  20.607  0.00  0.00    +0.000 C 
BRANCH  14  15
ATOM     15  O   UNL     1       1.192  13.711  19.411  0.00  0.00    +0.000 OA
ATOM     16  H   UNL     1       1.124  13.204  18.590  0.00  0.00    +0.000 HD
ENDBRANCH  14  15
ENDBRANCH   7  14
ENDBRANCH   1  12
BRANCH   4  17
ATOM     17  C   UNL     1       2.521   6.949  18.107  0.00  0.00    +0.000 C 
BRANCH  17  18
ATOM     18  N   UNL     1       3.329   5.936  18.804  0.00  0.00    +0.000 N 
ATOM     19  C   UNL     1       2.709   4.657  18.855  0.00  0.00    +0.000 A 
ATOM     20  C   UNL     1       1.521   4.294  19.496  0.00  0.00    +0.000 A 
ATOM     21  C   UNL     1       1.049   2.979  19.314  0.00  0.00    +0.000 A 
ATOM     22  C   UNL     1       1.751   2.081  18.486  0.00  0.00    +0.000 A 
ATOM     23  C   UNL     1       2.923   2.486  17.822  0.00  0.00    +0.000 A 
ATOM     24  C   UNL     1       3.368   3.788  18.037  0.00  0.00    +0.000 A 
ATOM     25  N   UNL     1       4.457   4.464  17.467  0.00  0.00    +0.000 N 
ATOM     26  C   UNL     1       4.962   4.287  16.143  0.00  0.00    +0.000 C 
ATOM     27  C   UNL     1       6.478   4.131  16.168  0.00  0.00    +0.000 C 
ATOM     28  C   UNL     1       7.210   5.285  16.884  0.00  0.00    +0.000 C 
ATOM     29  C   UNL     1       7.169   5.318  18.447  0.00  0.00    +0.000 C 
ATOM     30  C   UNL     1       5.792   5.374  19.186  0.00  0.00    +0.000 C 
ATOM     31  C   UNL     1       4.646   5.687  18.208  0.00  0.00    +0.000 C 
ENDBRANCH  17  18
ENDBRANCH   4  17
TORSDOF 5
ENDMDL
MODEL 3
REMARK VINA RESULT:     -10.0      3.345      9.012
REMARK  Name = 
REMARK  5 active torsions:
REMARK  status: ('A' for Active; 'I' for Inactive)
REMARK    1  A    between atoms: C_2  and  O_3
REMARK    2  A    between atoms: C_2  and  C_4
REMARK    3  A    between atoms: C_9  and  C_10
REMARK    4  A    between atoms: C_13  and  C_14
REMARK    5  A    between atoms: C_14  and  N_15
REMARK                            x       y       z     vdW  Elec       q    Type
REMARK                         _______ _______ _______ _____ _____    ______ ____
ROOT
ATOM      1  C   UNL     1       2.814   7.261  18.362  0.00  0.00    +0.000 A 
ATOM      2  C   UNL     1       2.335   7.198  19.692  0.00  0.00    +0.000 A 
ATOM      3  C   UNL     1       1.509   8.191  20.209  0.00  0.00    +0.000 A 
ATOM      4  C   UNL     1       1.132   9.277  19.415  0.00  0.00    +0.000 A 
ATOM      5  C   UNL     1       1.570   9.347  18.095  0.00  0.00    +0.000 A 
ATOM      6  C   UNL     1       2.403   8.361  17.578  0.00  0.00    +0.000 A 
ENDROOT
BRANCH   1  12
ATOM      7  C   UNL     1       3.313   4.821  17.551  0.00  0.00    +0.000 A 
ATOM      8  C   UNL     1       4.229   3.935  16.948  0.00  0.00    +0.000 A 
ATOM      9  C   UNL     1       5.497   4.352  16.567  0.00  0.00    +0.000 A 
ATOM     10  C   UNL     1       5.880   5.668  16.764  0.00  0.00    +0.000 A 
ATOM     11  C   UNL     1       5.001   6.572  17.345  0.00  0.00    +0.000 A 
ATOM     12  C   UNL     1       3.700   6.190  17.764  0.00  0.00    +0.000 A 
BRANCH   7  14
ATOM     13  O   UNL     1       1.031   4.280  17.281  0.00  0.00    +0.000 OA
ATOM     14  C   UNL     1       2.020   4.215  17.993  0.00  0.00    +0.000 C 
BRANCH  14  15
ATOM     15  O   UNL     1       1.897   3.632  19.208  0.00  0.00    +0.000 OA
ATOM     16  H   UNL     1       1.934   2.673  19.331  0.00  0.00    +0.000 HD
ENDBRANCH  14  15
ENDBRANCH   7  14
ENDBRANCH   1  12
BRANCH   4  17
ATOM     17  C   UNL     1       0.143  10.273  19.913  0.00  0.00    +0.000 C 
BRANCH  17  18
ATOM     18  N   UNL     1      -0.327  11.267  18.937  0.00  0.00    +0.000 N 
ATOM     19  C   UNL     1      -1.612  10.971  18.403  0.00  0.00    +0.000 A 
ATOM     20  C   UNL     1      -1.996   9.877  17.623  0.00  0.00    +0.000 A 
ATOM     21  C   UNL     1      -3.361   9.743  17.301  0.00  0.00    +0.000 A 
ATOM     22  C   UNL     1      -4.300  10.679  17.782  0.00  0.00    +0.000 A 
ATOM     23  C   UNL     1      -3.889  11.748  18.598  0.00  0.00    +0.000 A 
ATOM     24  C   UNL     1      -2.530  11.857  18.883  0.00  0.00    +0.000 A 
ATOM     25  N   UNL     1      -1.863  12.777  19.705  0.00  0.00    +0.000 N 
ATOM     26  C   UNL     1      -2.374  13.370  20.899  0.00  0.00    +0.000 C 
ATOM     27  C   UNL     1      -2.142  14.876  20.887  0.00  0.00    +0.000 C 
ATOM     28  C   UNL     1      -0.668  15.276  20.664  0.00  0.00    +0.000 C 
ATOM     29  C   UNL     1      -0.088  15.156  19.217  0.00  0.00    +0.000 C 
ATOM     30  C   UNL     1      -0.105  13.773  18.487  0.00  0.00    +0.000 C 
ATOM     31  C   UNL     1      -0.449  12.632  19.461  0.00  0.00    +0.000 C 
ENDBRANCH  17  18
ENDBRANCH   4  17
TORSDOF 5
ENDMDL
MODEL 4
REMARK VINA RESULT:      -9.7      2.152      4.034
REMARK  Name = 
REMARK  5 active torsions:
REMARK  status: ('A' for Active; 'I' for Inactive)
REMARK    1  A    between atoms: C_2  and  O_3
REMARK    2  A    between atoms: C_2  and  C_4
REMARK    3  A    between atoms: C_9  and  C_10
REMARK    4  A    between atoms: C_13  and  C_14
REMARK    5  A    between atoms: C_14  and  N_15
REMARK                            x       y       z     vdW  Elec       q    Type
REMARK                         _______ _______ _______ _____ _____    ______ ____
ROOT
ATOM      1  C   UNL     1       0.219   9.974  19.603  0.00  0.00    +0.000 A 
ATOM      2  C   UNL     1       0.679   9.024  20.545  0.00  0.00    +0.000 A 
ATOM      3  C   UNL     1       1.665   8.100  20.215  0.00  0.00    +0.000 A 
ATOM      4  C   UNL     1       2.224   8.094  18.934  0.00  0.00    +0.000 A 
ATOM      5  C   UNL     1       1.806   9.037  17.998  0.00  0.00    +0.000 A 
ATOM      6  C   UNL     1       0.815   9.956  18.323  0.00  0.00    +0.000 A 
ENDROOT
BRANCH   1  12
ATOM      7  C   UNL     1      -1.952  11.347  19.089  0.00  0.00    +0.000 A 
ATOM      8  C   UNL     1      -2.886  12.302  19.539  0.00  0.00    +0.000 A 
ATOM      9  C   UNL     1      -2.749  12.925  20.772  0.00  0.00    +0.000 A 
ATOM     10  C   UNL     1      -1.683  12.602  21.596  0.00  0.00    +0.000 A 
ATOM     11  C   UNL     1      -0.748  11.658  21.190  0.00  0.00    +0.000 A 
ATOM     12  C   UNL     1      -0.839  11.004  19.934  0.00  0.00    +0.000 A 
BRANCH   7  14
ATOM     13  O   UNL     1      -2.546   9.676  17.531  0.00  0.00    +0.000 OA
ATOM     14  C   UNL     1      -2.174  10.825  17.706  0.00  0.00    +0.000 C 
BRANCH  14  15
ATOM     15  O   UNL     1      -1.917  11.588  16.619  0.00  0.00    +0.000 OA
ATOM     16  H   UNL     1      -1.400  12.404  16.667  0.00  0.00    +0.000 HD
ENDBRANCH  14  15
ENDBRANCH   7  14
ENDBRANCH   1  12
BRANCH   4  17
ATOM     17  C   UNL     1       3.371   7.200  18.612  0.00  0.00    +0.000 C 
BRANCH  17  18
ATOM     18  N   UNL     1       3.077   6.057  17.734  0.00  0.00    +0.000 N 
ATOM     19  C   UNL     1       4.207   5.605  16.997  0.00  0.00    +0.000 A 
ATOM     20  C   UNL     1       4.938   6.292  16.024  0.00  0.00    +0.000 A 
ATOM     21  C   UNL     1       6.092   5.671  15.507  0.00  0.00    +0.000 A 
ATOM     22  C   UNL     1       6.497   4.409  15.988  0.00  0.00    +0.000 A 
ATOM     23  C   UNL     1       5.762   3.760  16.997  0.00  0.00    +0.000 A 
ATOM     24  C   UNL     1       4.618   4.396  17.473  0.00  0.00    +0.000 A 
ATOM     25  N   UNL     1       3.745   4.009  18.500  0.00  0.00    +0.000 N 
ATOM     26  C   UNL     1       4.099   3.299  19.687  0.00  0.00    +0.000 C 
ATOM     27  C   UNL     1       3.136   2.142  19.922  0.00  0.00    +0.000 C 
ATOM     28  C   UNL     1       1.653   2.565  19.958  0.00  0.00    +0.000 C 
ATOM     29  C   UNL     1       0.953   2.895  18.599  0.00  0.00    +0.000 C 
ATOM     30  C   UNL     1       1.532   4.022  17.683  0.00  0.00    +0.000 C 
ATOM     31  C   UNL     1       2.585   4.862  18.428  0.00  0.00    +0.000 C 
ENDBRANCH  17  18
ENDBRANCH   4  17
TORSDOF 5
ENDMDL
MODEL 5
REMARK VINA RESULT:      -9.7      1.687      2.106
REMARK  Name = 
REMARK  5 active torsions:
REMARK  status: ('A' for Active; 'I' for Inactive)
REMARK    1  A    between atoms: C_2  and  O_3
REMARK    2  A    between atoms: C_2  and  C_4
REMARK    3  A    between atoms: C_9  and  C_10
REMARK    4  A    between atoms: C_13  and  C_14
REMARK    5  A    between atoms: C_14  and  N_15
REMARK                            x       y       z     vdW  Elec       q    Type
REMARK                         _______ _______ _______ _____ _____    ______ ____
ROOT
ATOM      1  C   UNL     1       0.418   9.972  20.086  0.00  0.00    +0.000 A 
ATOM      2  C   UNL     1       0.505  10.041  18.675  0.00  0.00    +0.000 A 
ATOM      3  C   UNL     1       1.262   9.126  17.952  0.00  0.00    +0.000 A 
ATOM      4  C   UNL     1       1.957   8.110  18.613  0.00  0.00    +0.000 A 
ATOM      5  C   UNL     1       1.866   8.005  19.999  0.00  0.00    +0.000 A 
ATOM      6  C   UNL     1       1.117   8.923  20.725  0.00  0.00    +0.000 A 
ENDROOT
BRANCH   1  12
ATOM      7  C   UNL     1      -0.939  12.186  20.415  0.00  0.00    +0.000 A 
ATOM      8  C   UNL     1      -1.729  12.978  21.276  0.00  0.00    +0.000 A 
ATOM      9  C   UNL     1      -1.995  12.586  22.581  0.00  0.00    +0.000 A 
ATOM     10  C   UNL     1      -1.493  11.387  23.059  0.00  0.00    +0.000 A 
ATOM     11  C   UNL     1      -0.720  10.576  22.237  0.00  0.00    +0.000 A 
ATOM     12  C   UNL     1      -0.410  10.940  20.901  0.00  0.00    +0.000 A 
BRANCH   7  14
ATOM     13  O   UNL     1       0.372  13.391  18.866  0.00  0.00    +0.000 OA
ATOM     14  C   UNL     1      -0.660  12.773  19.070  0.00  0.00    +0.000 C 
BRANCH  14  15
ATOM     15  O   UNL     1      -1.562  12.684  18.065  0.00  0.00    +0.000 OA
ATOM     16  H   UNL     1      -1.482  13.195  17.247  0.00  0.00    +0.000 HD
ENDBRANCH  14  15
ENDBRANCH   7  14
ENDBRANCH   1  12
BRANCH   4  17
ATOM     17  C   UNL     1       2.661   7.047  17.841  0.00  0.00    +0.000 C 
BRANCH  17  18
ATOM     18  N   UNL     1       3.409   6.058  18.631  0.00  0.00    +0.000 N 
ATOM     19  C   UNL     1       2.799   4.773  18.654  0.00  0.00    +0.000 A 
ATOM     20  C   UNL     1       1.560   4.412  19.191  0.00  0.00    +0.000 A 
ATOM     21  C   UNL     1       1.118   3.088  18.996  0.00  0.00    +0.000 A 
ATOM     22  C   UNL     1       1.901   2.180  18.256  0.00  0.00    +0.000 A 
ATOM     23  C   UNL     1       3.126   2.584  17.693  0.00  0.00    +0.000 A 
ATOM     24  C   UNL     1       3.538   3.894  17.920  0.00  0.00    +0.000 A 
ATOM     25  N   UNL     1       4.669   4.569  17.436  0.00  0.00    +0.000 N 
ATOM     26  C   UNL     1       5.294   4.370  16.169  0.00  0.00    +0.000 C 
ATOM     27  C   UNL     1       6.802   4.231  16.336  0.00  0.00    +0.000 C 
ATOM     28  C   UNL     1       7.456   5.407  17.090  0.00  0.00    +0.000 C 
ATOM     29  C   UNL     1       7.272   5.474  18.642  0.00  0.00    +0.000 C 
ATOM     30  C   UNL     1       5.832   5.530  19.250  0.00  0.00    +0.000 C 
ATOM     31  C   UNL     1       4.778   5.810  18.164  0.00  0.00    +0.000 C 
ENDBRANCH  17  18
ENDBRANCH   4  17
TORSDOF 5
ENDMDL
MODEL 6
REMARK VINA RESULT:      -9.7      3.346      8.985
REMARK  Name = 
REMARK  5 active torsions:
REMARK  status: ('A' for Active; 'I' for Inactive)
REMARK    1  A    between atoms: C_2  and  O_3
REMARK    2  A    between atoms: C_2  and  C_4
REMARK    3  A    between atoms: C_9  and  C_10
REMARK    4  A    between atoms: C_13  and  C_14
REMARK    5  A    between atoms: C_14  and  N_15
REMARK                            x       y       z     vdW  Elec       q    Type
REMARK                         _______ _______ _______ _____ _____    ______ ____
ROOT
ATOM      1  C   UNL     1       2.775   7.311  18.333  0.00  0.00    +0.000 A 
ATOM      2  C   UNL     1       2.371   8.398  17.523  0.00  0.00    +0.000 A 
ATOM      3  C   UNL     1       1.527   9.389  18.012  0.00  0.00    +0.000 A 
ATOM      4  C   UNL     1       1.060   9.328  19.328  0.00  0.00    +0.000 A 
ATOM      5  C   UNL     1       1.464   8.282  20.153  0.00  0.00    +0.000 A 
ATOM      6  C   UNL     1       2.301   7.286  19.663  0.00  0.00    +0.000 A 
ENDROOT
BRANCH   1  12
ATOM      7  C   UNL     1       3.349   4.841  17.680  0.00  0.00    +0.000 A 
ATOM      8  C   UNL     1       4.307   3.940  17.172  0.00  0.00    +0.000 A 
ATOM      9  C   UNL     1       5.587   4.358  16.833  0.00  0.00    +0.000 A 
ATOM     10  C   UNL     1       5.941   5.688  16.978  0.00  0.00    +0.000 A 
ATOM     11  C   UNL     1       5.020   6.607  17.466  0.00  0.00    +0.000 A 
ATOM     12  C   UNL     1       3.705   6.225  17.838  0.00  0.00    +0.000 A 
BRANCH   7  14
ATOM     13  O   UNL     1       1.906   3.752  19.198  0.00  0.00    +0.000 OA
ATOM     14  C   UNL     1       2.044   4.237  18.087  0.00  0.00    +0.000 C 
BRANCH  14  15
ATOM     15  O   UNL     1       1.006   4.162  17.222  0.00  0.00    +0.000 OA
ATOM     16  H   UNL     1       1.024   4.579  16.349  0.00  0.00    +0.000 HD
ENDBRANCH  14  15
ENDBRANCH   7  14
ENDBRANCH   1  12
BRANCH   4  17
ATOM     17  C   UNL     1       0.266  10.451  19.902  0.00  0.00    +0.000 C 
BRANCH  17  18
ATOM     18  N   UNL     1      -0.265  11.429  18.941  0.00  0.00    +0.000 N 
ATOM     19  C   UNL     1      -1.550  11.086  18.438  0.00  0.00    +0.000 A 
ATOM     20  C   UNL     1      -1.911   9.980  17.663  0.00  0.00    +0.000 A 
ATOM     21  C   UNL     1      -3.278   9.796  17.374  0.00  0.00    +0.000 A 
ATOM     22  C   UNL     1      -4.239  10.693  17.882  0.00  0.00    +0.000 A 
ATOM     23  C   UNL     1      -3.850  11.775  18.691  0.00  0.00    +0.000 A 
ATOM     24  C   UNL     1      -2.489  11.935  18.944  0.00  0.00    +0.000 A 
ATOM     25  N   UNL     1      -1.838  12.877  19.753  0.00  0.00    +0.000 N 
ATOM     26  C   UNL     1      -2.342  13.447  20.961  0.00  0.00    +0.000 C 
ATOM     27  C   UNL     1      -2.167  14.961  20.949  0.00  0.00    +0.000 C 
ATOM     28  C   UNL     1      -0.716  15.417  20.693  0.00  0.00    +0.000 C 
ATOM     29  C   UNL     1      -0.167  15.324  19.231  0.00  0.00    +0.000 C 
ATOM     30  C   UNL     1      -0.149  13.943  18.496  0.00  0.00    +0.000 C 
ATOM     31  C   UNL     1      -0.426  12.787  19.474  0.00  0.00    +0.000 C 
ENDBRANCH  17  18
ENDBRANCH   4  17
TORSDOF 5
ENDMDL
MODEL 7
REMARK VINA RESULT:      -9.6      1.647      3.492
REMARK  Name = 
REMARK  5 active torsions:
REMARK  status: ('A' for Active; 'I' for Inactive)
REMARK    1  A    between atoms: C_2  and  O_3
REMARK    2  A    between atoms: C_2  and  C_4
REMARK    3  A    between atoms: C_9  and  C_10
REMARK    4  A    between atoms: C_13  and  C_14
REMARK    5  A    between atoms: C_14  and  N_15
REMARK                            x       y       z     vdW  Elec       q    Type
REMARK                         _______ _______ _______ _____ _____    ______ ____
ROOT
ATOM      1  C   UNL     1       0.078   9.942  19.444  0.00  0.00    +0.000 A 
ATOM      2  C   UNL     1       0.778   9.814  18.221  0.00  0.00    +0.000 A 
ATOM      3  C   UNL     1       1.834   8.919  18.084  0.00  0.00    +0.000 A 
ATOM      4  C   UNL     1       2.226   8.121  19.163  0.00  0.00    +0.000 A 
ATOM      5  C   UNL     1       1.535   8.211  20.369  0.00  0.00    +0.000 A 
ATOM      6  C   UNL     1       0.484   9.110  20.511  0.00  0.00    +0.000 A 
ENDROOT
BRANCH   1  12
ATOM      7  C   UNL     1      -1.199  11.872  20.670  0.00  0.00    +0.000 A 
ATOM      8  C   UNL     1      -2.325  12.720  20.695  0.00  0.00    +0.000 A 
ATOM      9  C   UNL     1      -3.329  12.622  19.741  0.00  0.00    +0.000 A 
ATOM     10  C   UNL     1      -3.229  11.685  18.727  0.00  0.00    +0.000 A 
ATOM     11  C   UNL     1      -2.130  10.839  18.663  0.00  0.00    +0.000 A 
ATOM     12  C   UNL     1      -1.086  10.892  19.622  0.00  0.00    +0.000 A 
BRANCH   7  14
ATOM     13  O   UNL     1       0.793  12.653  21.665  0.00  0.00    +0.000 OA
ATOM     14  C   UNL     1      -0.244  12.027  21.809  0.00  0.00    +0.000 C 
BRANCH  14  15
ATOM     15  O   UNL     1      -0.476  11.436  23.004  0.00  0.00    +0.000 OA
ATOM     16  H   UNL     1      -0.488  11.930  23.835  0.00  0.00    +0.000 HD
ENDBRANCH  14  15
ENDBRANCH   7  14
ENDBRANCH   1  12
BRANCH   4  17
ATOM     17  C   UNL     1       3.264   7.068  18.988  0.00  0.00    +0.000 C 
BRANCH  17  18
ATOM     18  N   UNL     1       2.971   6.025  17.993  0.00  0.00    +0.000 N 
ATOM     19  C   UNL     1       4.082   5.709  17.162  0.00  0.00    +0.000 A 
ATOM     20  C   UNL     1       4.744   6.534  16.249  0.00  0.00    +0.000 A 
ATOM     21  C   UNL     1       5.895   6.026  15.615  0.00  0.00    +0.000 A 
ATOM     22  C   UNL     1       6.364   4.733  15.926  0.00  0.00    +0.000 A 
ATOM     23  C   UNL     1       5.699   3.940  16.878  0.00  0.00    +0.000 A 
ATOM     24  C   UNL     1       4.557   4.470  17.473  0.00  0.00    +0.000 A 
ATOM     25  N   UNL     1       3.745   3.930  18.481  0.00  0.00    +0.000 N 
ATOM     26  C   UNL     1       4.176   3.100  19.560  0.00  0.00    +0.000 C 
ATOM     27  C   UNL     1       3.266   1.885  19.694  0.00  0.00    +0.000 C 
ATOM     28  C   UNL     1       1.772   2.241  19.840  0.00  0.00    +0.000 C 
ATOM     29  C   UNL     1       1.001   2.701  18.559  0.00  0.00    +0.000 C 
ATOM     30  C   UNL     1       1.498   3.950  17.761  0.00  0.00    +0.000 C 
ATOM     31  C   UNL     1       2.553   4.738  18.559  0.00  0.00    +0.000 C 
ENDBRANCH  17  18
ENDBRANCH   4  17
TORSDOF 5
ENDMDL
MODEL 8
REMARK VINA RESULT:      -9.6      2.204      3.966
REMARK  Name = 
REMARK  5 active torsions:
REMARK  status: ('A' for Active; 'I' for Inactive)
REMARK    1  A    between atoms: C_2  and  O_3
REMARK    2  A    between atoms: C_2  and  C_4
REMARK    3  A    between atoms: C_9  and  C_10
REMARK    4  A    between atoms: C_13  and  C_14
REMARK    5  A    between atoms: C_14  and  N_15
REMARK                            x       y       z     vdW  Elec       q    Type
REMARK                         _______ _______ _______ _____ _____    ______ ____
ROOT
ATOM      1  C   UNL     1       0.027  10.069  19.624  0.00  0.00    +0.000 A 
ATOM      2  C   UNL     1       0.764   9.922  18.424  0.00  0.00    +0.000 A 
ATOM      3  C   UNL     1       1.779   8.978  18.311  0.00  0.00    +0.000 A 
ATOM      4  C   UNL     1       2.091   8.148  19.392  0.00  0.00    +0.000 A 
ATOM      5  C   UNL     1       1.362   8.255  20.573  0.00  0.00    +0.000 A 
ATOM      6  C   UNL     1       0.353   9.204  20.692  0.00  0.00    +0.000 A 
ENDROOT
BRANCH   1  12
ATOM      7  C   UNL     1      -2.247  11.160  18.918  0.00  0.00    +0.000 A 
ATOM      8  C   UNL     1      -3.237  12.124  19.196  0.00  0.00    +0.000 A 
ATOM      9  C   UNL     1      -3.117  12.998  20.269  0.00  0.00    +0.000 A 
ATOM     10  C   UNL     1      -2.013  12.923  21.101  0.00  0.00    +0.000 A 
ATOM     11  C   UNL     1      -1.022  11.979  20.865  0.00  0.00    +0.000 A 
ATOM     12  C   UNL     1      -1.094  11.074  19.774  0.00  0.00    +0.000 A 
BRANCH   7  14
ATOM     13  O   UNL     1      -3.161   9.349  17.711  0.00  0.00    +0.000 OA
ATOM     14  C   UNL     1      -2.462  10.348  17.682  0.00  0.00    +0.000 C 
BRANCH  14  15
ATOM     15  O   UNL     1      -1.847  10.666  16.519  0.00  0.00    +0.000 OA
ATOM     16  H   UNL     1      -2.160  11.376  15.942  0.00  0.00    +0.000 HD
ENDBRANCH  14  15
ENDBRANCH   7  14
ENDBRANCH   1  12
BRANCH   4  17
ATOM     17  C   UNL     1       3.082   7.046  19.238  0.00  0.00    +0.000 C 
BRANCH  17  18
ATOM     18  N   UNL     1       2.799   6.061  18.183  0.00  0.00    +0.000 N 
ATOM     19  C   UNL     1       3.904   5.828  17.317  0.00  0.00    +0.000 A 
ATOM     20  C   UNL     1       4.528   6.727  16.448  0.00  0.00    +0.000 A 
ATOM     21  C   UNL     1       5.681   6.292  15.766  0.00  0.00    +0.000 A 
ATOM     22  C   UNL     1       6.190   4.996  15.987  0.00  0.00    +0.000 A 
ATOM     23  C   UNL     1       5.563   4.126  16.897  0.00  0.00    +0.000 A 
ATOM     24  C   UNL     1       4.417   4.585  17.541  0.00  0.00    +0.000 A 
ATOM     25  N   UNL     1       3.636   3.960  18.526  0.00  0.00    +0.000 N 
ATOM     26  C   UNL     1       4.108   3.077  19.543  0.00  0.00    +0.000 C 
ATOM     27  C   UNL     1       3.233   1.831  19.613  0.00  0.00    +0.000 C 
ATOM     28  C   UNL     1       1.733   2.136  19.805  0.00  0.00    +0.000 C 
ATOM     29  C   UNL     1       0.928   2.653  18.567  0.00  0.00    +0.000 C 
ATOM     30  C   UNL     1       1.378   3.964  17.843  0.00  0.00    +0.000 C 
ATOM     31  C   UNL     1       2.425   4.729  18.672  0.00  0.00    +0.000 C 
ENDBRANCH  17  18
ENDBRANCH   4  17
TORSDOF 5
ENDMDL
MODEL 9
REMARK VINA RESULT:      -9.4      2.083      2.485
REMARK  Name = 
REMARK  5 active torsions:
REMARK  status: ('A' for Active; 'I' for Inactive)
REMARK    1  A    between atoms: C_2  and  O_3
REMARK    2  A    between atoms: C_2  and  C_4
REMARK    3  A    between atoms: C_9  and  C_10
REMARK    4  A    between atoms: C_13  and  C_14
REMARK    5  A    between atoms: C_14  and  N_15
REMARK                            x       y       z     vdW  Elec       q    Type
REMARK                         _______ _______ _______ _____ _____    ______ ____
ROOT
ATOM      1  C   UNL     1       1.021  10.789  19.496  0.00  0.00    +0.000 A 
ATOM      2  C   UNL     1       1.604  10.615  18.218  0.00  0.00    +0.000 A 
ATOM      3  C   UNL     1       2.089   9.377  17.808  0.00  0.00    +0.000 A 
ATOM      4  C   UNL     1       2.006   8.272  18.661  0.00  0.00    +0.000 A 
ATOM      5  C   UNL     1       1.413   8.413  19.912  0.00  0.00    +0.000 A 
ATOM      6  C   UNL     1       0.935   9.651  20.327  0.00  0.00    +0.000 A 
ENDROOT
BRANCH   1  12
ATOM      7  C   UNL     1      -0.779  12.691  19.537  0.00  0.00    +0.000 A 
ATOM      8  C   UNL     1      -1.192  13.923  20.085  0.00  0.00    +0.000 A 
ATOM      9  C   UNL     1      -0.416  14.597  21.019  0.00  0.00    +0.000 A 
ATOM     10  C   UNL     1       0.786  14.053  21.441  0.00  0.00    +0.000 A 
ATOM     11  C   UNL     1       1.220  12.836  20.931  0.00  0.00    +0.000 A 
ATOM     12  C   UNL     1       0.468  12.117  19.966  0.00  0.00    +0.000 A 
BRANCH   7  14
ATOM     13  O   UNL     1      -2.590  11.382  18.776  0.00  0.00    +0.000 OA
ATOM     14  C   UNL     1      -1.668  12.123  18.478  0.00  0.00    +0.000 C 
BRANCH  14  15
ATOM     15  O   UNL     1      -1.441  12.368  17.166  0.00  0.00    +0.000 OA
ATOM     16  H   UNL     1      -1.584  11.702  16.480  0.00  0.00    +0.000 HD
ENDBRANCH  14  15
ENDBRANCH   7  14
ENDBRANCH   1  12
BRANCH   4  17
ATOM     17  C   UNL     1       2.398   6.917  18.183  0.00  0.00    +0.000 C 
BRANCH  17  18
ATOM     18  N   UNL     1       3.586   6.323  18.816  0.00  0.00    +0.000 N 
ATOM     19  C   UNL     1       3.311   5.110  19.507  0.00  0.00    +0.000 A 
ATOM     20  C   UNL     1       2.495   4.914  20.623  0.00  0.00    +0.000 A 
ATOM     21  C   UNL     1       2.291   3.592  21.067  0.00  0.00    +0.000 A 
ATOM     22  C   UNL     1       2.878   2.513  20.377  0.00  0.00    +0.000 A 
ATOM     23  C   UNL     1       3.664   2.738  19.232  0.00  0.00    +0.000 A 
ATOM     24  C   UNL     1       3.856   4.058  18.832  0.00  0.00    +0.000 A 
ATOM     25  N   UNL     1       4.534   4.560  17.711  0.00  0.00    +0.000 N 
ATOM     26  C   UNL     1       4.625   3.939  16.430  0.00  0.00    +0.000 C 
ATOM     27  C   UNL     1       6.067   3.941  15.938  0.00  0.00    +0.000 C 
ATOM     28  C   UNL     1       6.713   5.341  15.914  0.00  0.00    +0.000 C 
ATOM     29  C   UNL     1       7.158   5.965  17.278  0.00  0.00    +0.000 C 
ATOM     30  C   UNL     1       6.105   6.174  18.415  0.00  0.00    +0.000 C 
ATOM     31  C   UNL     1       4.671   5.985  17.889  0.00  0.00    +0.000 C 
ENDBRANCH  17  18
ENDBRANCH   4  17
TORSDOF 5
ENDMDL
