MODEL 1
REMARK VINA RESULT:      -8.0      0.000      0.000
REMARK  Name = 
REMARK  3 active torsions:
REMARK  status: ('A' for Active; 'I' for Inactive)
REMARK    1  A    between atoms: C_6  and  C_7
REMARK    2  A    between atoms: C_7  and  N_8
REMARK    3  A    between atoms: N_8  and  C_9
REMARK                            x       y       z     vdW  Elec       q    Type
REMARK                         _______ _______ _______ _____ _____    ______ ____
ROOT
ATOM      1  C   UNL     1       6.345   5.174  16.198  0.00  0.00    +0.000 A 
ATOM      2  N   UNL     1       7.421   5.568  16.931  0.00  0.00    +0.000 NA
ATOM      3  C   UNL     1       7.468   5.261  18.244  0.00  0.00    +0.000 A 
ATOM      4  N   UNL     1       6.568   4.576  18.972  0.00  0.00    +0.000 NA
ATOM      5  C   UNL     1       5.525   4.202  18.213  0.00  0.00    +0.000 A 
ATOM      6  C   UNL     1       5.333   4.449  16.864  0.00  0.00    +0.000 A 
ATOM      7  N   UNL     1       4.140   3.899  16.436  0.00  0.00    +0.000 NA
ATOM      8  C   UNL     1       3.604   3.343  17.509  0.00  0.00    +0.000 A 
ATOM      9  N   UNL     1       4.422   3.496  18.604  0.00  0.00    +0.000 N 
ATOM     10  C   UNL     1       4.155   3.008  19.939  0.00  0.00    +0.000 C 
ATOM     11  C   UNL     1       2.904   3.624  20.558  0.00  0.00    +0.000 C 
ATOM     12  C   UNL     1       1.597   3.038  20.020  0.00  0.00    +0.000 C 
ATOM     13  C   UNL     1       1.315   3.326  18.543  0.00  0.00    +0.000 C 
ATOM     14  C   UNL     1       2.286   2.647  17.576  0.00  0.00    +0.000 C 
ENDROOT
BRANCH   1  15
ATOM     15  N   UNL     1       6.262   5.497  14.837  0.00  0.00    +0.000 N 
ATOM     16  H   UNL     1       5.289   5.592  14.557  0.00  0.00    +0.000 HD
BRANCH  15  17
ATOM     17  C   UNL     1       7.080   4.658  13.979  0.00  0.00    +0.000 C 
BRANCH  17  23
ATOM     18 CL   UNL     1       6.414   0.499  10.879  0.00  0.00    +0.000 Cl
ATOM     19  C   UNL     1       5.851   1.975  11.560  0.00  0.00    +0.000 A 
ATOM     20  C   UNL     1       4.602   2.473  11.193  0.00  0.00    +0.000 A 
ATOM     21  C   UNL     1       4.150   3.674  11.739  0.00  0.00    +0.000 A 
ATOM     22  C   UNL     1       4.948   4.371  12.648  0.00  0.00    +0.000 A 
ATOM     23  C   UNL     1       6.206   3.875  13.026  0.00  0.00    +0.000 A 
ATOM     24  C   UNL     1       6.653   2.668  12.469  0.00  0.00    +0.000 A 
ENDBRANCH  17  23
ENDBRANCH  15  17
ENDBRANCH   1  15
TORSDOF 3
ENDMDL
MODEL 2
REMARK VINA RESULT:      -8.0      1.194      1.560
REMARK  Name = 
REMARK  3 active torsions:
REMARK  status: ('A' for Active; 'I' for Inactive)
REMARK    1  A    between atoms: C_6  and  C_7
REMARK    2  A    between atoms: C_7  and  N_8
REMARK    3  A    between atoms: N_8  and  C_9
REMARK                            x       y       z     vdW  Elec       q    Type
REMARK                         _______ _______ _______ _____ _____    ______ ____
ROOT
ATOM      1  C   UNL     1       5.522   4.648  16.458  0.00  0.00    +0.000 A 
ATOM      2  N   UNL     1       6.675   5.060  17.050  0.00  0.00    +0.000 NA
ATOM      3  C   UNL     1       6.852   4.837  18.369  0.00  0.00    +0.000 A 
ATOM      4  N   UNL     1       6.019   4.224  19.228  0.00  0.00    +0.000 NA
ATOM      5  C   UNL     1       4.896   3.829  18.606  0.00  0.00    +0.000 A 
ATOM      6  C   UNL     1       4.571   3.994  17.270  0.00  0.00    +0.000 A 
ATOM      7  N   UNL     1       3.329   3.448  17.003  0.00  0.00    +0.000 NA
ATOM      8  C   UNL     1       2.897   2.977  18.160  0.00  0.00    +0.000 A 
ATOM      9  N   UNL     1       3.827   3.177  19.154  0.00  0.00    +0.000 N 
ATOM     10  C   UNL     1       3.690   2.782  20.538  0.00  0.00    +0.000 C 
ATOM     11  C   UNL     1       2.522   3.469  21.239  0.00  0.00    +0.000 C 
ATOM     12  C   UNL     1       1.155   2.883  20.877  0.00  0.00    +0.000 C 
ATOM     13  C   UNL     1       0.728   3.084  19.420  0.00  0.00    +0.000 C 
ATOM     14  C   UNL     1       1.580   2.320  18.407  0.00  0.00    +0.000 C 
ENDROOT
BRANCH   1  15
ATOM     15  N   UNL     1       5.305   4.886  15.095  0.00  0.00    +0.000 N 
ATOM     16  H   UNL     1       4.484   4.378  14.775  0.00  0.00    +0.000 HD
BRANCH  15  17
ATOM     17  C   UNL     1       6.492   4.735  14.272  0.00  0.00    +0.000 C 
BRANCH  17  23
ATOM     18 CL   UNL     1       3.030   2.892  10.813  0.00  0.00    +0.000 Cl
ATOM     19  C   UNL     1       4.624   2.962  11.457  0.00  0.00    +0.000 A 
ATOM     20  C   UNL     1       5.629   2.173  10.901  0.00  0.00    +0.000 A 
ATOM     21  C   UNL     1       6.918   2.224  11.429  0.00  0.00    +0.000 A 
ATOM     22  C   UNL     1       7.197   3.062  12.510  0.00  0.00    +0.000 A 
ATOM     23  C   UNL     1       6.191   3.862  13.075  0.00  0.00    +0.000 A 
ATOM     24  C   UNL     1       4.896   3.802  12.538  0.00  0.00    +0.000 A 
ENDBRANCH  17  23
ENDBRANCH  15  17
ENDBRANCH   1  15
TORSDOF 3
ENDMDL
MODEL 3
REMARK VINA RESULT:      -7.9      1.158      1.518
REMARK  Name = 
REMARK  3 active torsions:
REMARK  status: ('A' for Active; 'I' for Inactive)
REMARK    1  A    between atoms: C_6  and  C_7
REMARK    2  A    between atoms: C_7  and  N_8
REMARK    3  A    between atoms: N_8  and  C_9
REMARK                            x       y       z     vdW  Elec       q    Type
REMARK                         _______ _______ _______ _____ _____    ______ ____
ROOT
ATOM      1  C   UNL     1       6.870   4.734  16.807  0.00  0.00    +0.000 A 
ATOM      2  N   UNL     1       7.717   5.419  17.622  0.00  0.00    +0.000 NA
ATOM      3  C   UNL     1       7.381   5.600  18.916  0.00  0.00    +0.000 A 
ATOM      4  N   UNL     1       6.280   5.169  19.558  0.00  0.00    +0.000 NA
ATOM      5  C   UNL     1       5.473   4.495  18.722  0.00  0.00    +0.000 A 
ATOM      6  C   UNL     1       5.678   4.238  17.377  0.00  0.00    +0.000 A 
ATOM      7  N   UNL     1       4.625   3.508  16.858  0.00  0.00    +0.000 NA
ATOM      8  C   UNL     1       3.784   3.340  17.863  0.00  0.00    +0.000 A 
ATOM      9  N   UNL     1       4.271   3.914  19.015  0.00  0.00    +0.000 N 
ATOM     10  C   UNL     1       3.619   3.915  20.306  0.00  0.00    +0.000 C 
ATOM     11  C   UNL     1       2.277   4.642  20.292  0.00  0.00    +0.000 C 
ATOM     12  C   UNL     1       1.144   3.834  19.656  0.00  0.00    +0.000 C 
ATOM     13  C   UNL     1       1.300   3.566  18.156  0.00  0.00    +0.000 C 
ATOM     14  C   UNL     1       2.466   2.643  17.804  0.00  0.00    +0.000 C 
ENDROOT
BRANCH   1  15
ATOM     15  N   UNL     1       7.187   4.550  15.455  0.00  0.00    +0.000 N 
ATOM     16  H   UNL     1       8.147   4.837  15.276  0.00  0.00    +0.000 HD
BRANCH  15  17
ATOM     17  C   UNL     1       6.195   5.083  14.538  0.00  0.00    +0.000 C 
BRANCH  17  23
ATOM     18 CL   UNL     1       3.153   2.856  10.913  0.00  0.00    +0.000 Cl
ATOM     19  C   UNL     1       4.692   3.105  11.641  0.00  0.00    +0.000 A 
ATOM     20  C   UNL     1       5.808   2.434  11.144  0.00  0.00    +0.000 A 
ATOM     21  C   UNL     1       7.053   2.631  11.740  0.00  0.00    +0.000 A 
ATOM     22  C   UNL     1       7.177   3.497  12.829  0.00  0.00    +0.000 A 
ATOM     23  C   UNL     1       6.059   4.179  13.333  0.00  0.00    +0.000 A 
ATOM     24  C   UNL     1       4.810   3.972  12.728  0.00  0.00    +0.000 A 
ENDBRANCH  17  23
ENDBRANCH  15  17
ENDBRANCH   1  15
TORSDOF 3
ENDMDL
MODEL 4
REMARK VINA RESULT:      -7.9      4.777      6.825
REMARK  Name = 
REMARK  3 active torsions:
REMARK  status: ('A' for Active; 'I' for Inactive)
REMARK    1  A    between atoms: C_6  and  C_7
REMARK    2  A    between atoms: C_7  and  N_8
REMARK    3  A    between atoms: N_8  and  C_9
REMARK                            x       y       z     vdW  Elec       q    Type
REMARK                         _______ _______ _______ _____ _____    ______ ____
ROOT
ATOM      1  C   UNL     1       6.616   6.769  16.948  0.00  0.00    +0.000 A 
ATOM      2  N   UNL     1       7.488   5.962  16.287  0.00  0.00    +0.000 NA
ATOM      3  C   UNL     1       7.124   4.694  16.005  0.00  0.00    +0.000 A 
ATOM      4  N   UNL     1       5.960   4.081  16.284  0.00  0.00    +0.000 NA
ATOM      5  C   UNL     1       5.126   4.910  16.932  0.00  0.00    +0.000 A 
ATOM      6  C   UNL     1       5.361   6.225  17.296  0.00  0.00    +0.000 A 
ATOM      7  N   UNL     1       4.260   6.752  17.944  0.00  0.00    +0.000 NA
ATOM      8  C   UNL     1       3.377   5.770  17.993  0.00  0.00    +0.000 A 
ATOM      9  N   UNL     1       3.862   4.639  17.376  0.00  0.00    +0.000 N 
ATOM     10  C   UNL     1       3.164   3.381  17.236  0.00  0.00    +0.000 C 
ATOM     11  C   UNL     1       2.835   2.732  18.578  0.00  0.00    +0.000 C 
ATOM     12  C   UNL     1       1.650   3.375  19.300  0.00  0.00    +0.000 C 
ATOM     13  C   UNL     1       1.879   4.816  19.768  0.00  0.00    +0.000 C 
ATOM     14  C   UNL     1       2.029   5.826  18.630  0.00  0.00    +0.000 C 
ENDROOT
BRANCH   1  15
ATOM     15  N   UNL     1       6.978   8.084  17.271  0.00  0.00    +0.000 N 
ATOM     16  H   UNL     1       7.006   8.657  16.431  0.00  0.00    +0.000 HD
BRANCH  15  17
ATOM     17  C   UNL     1       8.142   8.182  18.133  0.00  0.00    +0.000 C 
BRANCH  17  23
ATOM     18 CL   UNL     1      10.684  11.842  20.872  0.00  0.00    +0.000 Cl
ATOM     19  C   UNL     1       9.688  11.370  19.550  0.00  0.00    +0.000 A 
ATOM     20  C   UNL     1       9.211  12.336  18.666  0.00  0.00    +0.000 A 
ATOM     21  C   UNL     1       8.397  11.954  17.600  0.00  0.00    +0.000 A 
ATOM     22  C   UNL     1       8.064  10.610  17.423  0.00  0.00    +0.000 A 
ATOM     23  C   UNL     1       8.542   9.630  18.308  0.00  0.00    +0.000 A 
ATOM     24  C   UNL     1       9.358  10.025  19.379  0.00  0.00    +0.000 A 
ENDBRANCH  17  23
ENDBRANCH  15  17
ENDBRANCH   1  15
TORSDOF 3
ENDMDL
MODEL 5
REMARK VINA RESULT:      -7.7      4.446      6.663
REMARK  Name = 
REMARK  3 active torsions:
REMARK  status: ('A' for Active; 'I' for Inactive)
REMARK    1  A    between atoms: C_6  and  C_7
REMARK    2  A    between atoms: C_7  and  N_8
REMARK    3  A    between atoms: N_8  and  C_9
REMARK                            x       y       z     vdW  Elec       q    Type
REMARK                         _______ _______ _______ _____ _____    ______ ____
ROOT
ATOM      1  C   UNL     1       6.666   6.628  16.715  0.00  0.00    +0.000 A 
ATOM      2  N   UNL     1       7.432   5.769  15.990  0.00  0.00    +0.000 NA
ATOM      3  C   UNL     1       6.968   4.527  15.739  0.00  0.00    +0.000 A 
ATOM      4  N   UNL     1       5.792   3.988  16.107  0.00  0.00    +0.000 NA
ATOM      5  C   UNL     1       5.064   4.867  16.816  0.00  0.00    +0.000 A 
ATOM      6  C   UNL     1       5.409   6.163  17.159  0.00  0.00    +0.000 A 
ATOM      7  N   UNL     1       4.397   6.757  17.889  0.00  0.00    +0.000 NA
ATOM      8  C   UNL     1       3.459   5.832  18.006  0.00  0.00    +0.000 A 
ATOM      9  N   UNL     1       3.824   4.675  17.356  0.00  0.00    +0.000 N 
ATOM     10  C   UNL     1       3.038   3.464  17.272  0.00  0.00    +0.000 C 
ATOM     11  C   UNL     1       2.773   2.832  18.636  0.00  0.00    +0.000 C 
ATOM     12  C   UNL     1       1.690   3.547  19.446  0.00  0.00    +0.000 C 
ATOM     13  C   UNL     1       2.044   4.968  19.892  0.00  0.00    +0.000 C 
ATOM     14  C   UNL     1       2.171   5.971  18.745  0.00  0.00    +0.000 C 
ENDROOT
BRANCH   1  15
ATOM     15  N   UNL     1       7.134   7.915  17.007  0.00  0.00    +0.000 N 
ATOM     16  H   UNL     1       7.405   8.394  16.150  0.00  0.00    +0.000 HD
BRANCH  15  17
ATOM     17  C   UNL     1       8.108   7.961  18.083  0.00  0.00    +0.000 C 
BRANCH  17  23
ATOM     18 CL   UNL     1       7.724  13.047  16.924  0.00  0.00    +0.000 Cl
ATOM     19  C   UNL     1       8.376  11.761  17.864  0.00  0.00    +0.000 A 
ATOM     20  C   UNL     1       9.308  12.039  18.862  0.00  0.00    +0.000 A 
ATOM     21  C   UNL     1       9.842  10.997  19.617  0.00  0.00    +0.000 A 
ATOM     22  C   UNL     1       9.443   9.681  19.371  0.00  0.00    +0.000 A 
ATOM     23  C   UNL     1       8.503   9.392  18.370  0.00  0.00    +0.000 A 
ATOM     24  C   UNL     1       7.974  10.449  17.613  0.00  0.00    +0.000 A 
ENDBRANCH  17  23
ENDBRANCH  15  17
ENDBRANCH   1  15
TORSDOF 3
ENDMDL
MODEL 6
REMARK VINA RESULT:      -7.6      2.161      2.898
REMARK  Name = 
REMARK  3 active torsions:
REMARK  status: ('A' for Active; 'I' for Inactive)
REMARK    1  A    between atoms: C_6  and  C_7
REMARK    2  A    between atoms: C_7  and  N_8
REMARK    3  A    between atoms: N_8  and  C_9
REMARK                            x       y       z     vdW  Elec       q    Type
REMARK                         _______ _______ _______ _____ _____    ______ ____
ROOT
ATOM      1  C   UNL     1       4.550   6.700  16.963  0.00  0.00    +0.000 A 
ATOM      2  N   UNL     1       3.903   7.894  16.887  0.00  0.00    +0.000 NA
ATOM      3  C   UNL     1       2.899   8.152  17.750  0.00  0.00    +0.000 A 
ATOM      4  N   UNL     1       2.426   7.369  18.736  0.00  0.00    +0.000 NA
ATOM      5  C   UNL     1       3.092   6.204  18.781  0.00  0.00    +0.000 A 
ATOM      6  C   UNL     1       4.131   5.795  17.962  0.00  0.00    +0.000 A 
ATOM      7  N   UNL     1       4.563   4.532  18.322  0.00  0.00    +0.000 NA
ATOM      8  C   UNL     1       3.788   4.169  19.329  0.00  0.00    +0.000 A 
ATOM      9  N   UNL     1       2.891   5.164  19.645  0.00  0.00    +0.000 N 
ATOM     10  C   UNL     1       1.900   5.112  20.696  0.00  0.00    +0.000 C 
ATOM     11  C   UNL     1       0.875   4.000  20.492  0.00  0.00    +0.000 C 
ATOM     12  C   UNL     1       1.401   2.606  20.840  0.00  0.00    +0.000 C 
ATOM     13  C   UNL     1       2.519   2.088  19.931  0.00  0.00    +0.000 C 
ATOM     14  C   UNL     1       3.831   2.863  20.049  0.00  0.00    +0.000 C 
ENDROOT
BRANCH   1  15
ATOM     15  N   UNL     1       5.583   6.399  16.066  0.00  0.00    +0.000 N 
ATOM     16  H   UNL     1       5.470   6.934  15.207  0.00  0.00    +0.000 HD
BRANCH  15  17
ATOM     17  C   UNL     1       5.817   4.977  15.888  0.00  0.00    +0.000 C 
BRANCH  17  23
ATOM     18 CL   UNL     1       5.324   2.231  11.465  0.00  0.00    +0.000 Cl
ATOM     19  C   UNL     1       6.106   3.439  12.409  0.00  0.00    +0.000 A 
ATOM     20  C   UNL     1       7.199   4.125  11.883  0.00  0.00    +0.000 A 
ATOM     21  C   UNL     1       7.837   5.098  12.652  0.00  0.00    +0.000 A 
ATOM     22  C   UNL     1       7.381   5.379  13.941  0.00  0.00    +0.000 A 
ATOM     23  C   UNL     1       6.279   4.695  14.477  0.00  0.00    +0.000 A 
ATOM     24  C   UNL     1       5.645   3.716  13.696  0.00  0.00    +0.000 A 
ENDBRANCH  17  23
ENDBRANCH  15  17
ENDBRANCH   1  15
TORSDOF 3
ENDMDL
MODEL 7
REMARK VINA RESULT:      -7.5      1.458      1.789
REMARK  Name = 
REMARK  3 active torsions:
REMARK  status: ('A' for Active; 'I' for Inactive)
REMARK    1  A    between atoms: C_6  and  C_7
REMARK    2  A    between atoms: C_7  and  N_8
REMARK    3  A    between atoms: N_8  and  C_9
REMARK                            x       y       z     vdW  Elec       q    Type
REMARK                         _______ _______ _______ _____ _____    ______ ____
ROOT
ATOM      1  C   UNL     1       6.930   5.121  15.922  0.00  0.00    +0.000 A 
ATOM      2  N   UNL     1       7.499   6.297  16.301  0.00  0.00    +0.000 NA
ATOM      3  C   UNL     1       7.023   6.935  17.390  0.00  0.00    +0.000 A 
ATOM      4  N   UNL     1       6.025   6.556  18.208  0.00  0.00    +0.000 NA
ATOM      5  C   UNL     1       5.494   5.391  17.804  0.00  0.00    +0.000 A 
ATOM      6  C   UNL     1       5.867   4.629  16.710  0.00  0.00    +0.000 A 
ATOM      7  N   UNL     1       5.088   3.490  16.624  0.00  0.00    +0.000 NA
ATOM      8  C   UNL     1       4.241   3.567  17.636  0.00  0.00    +0.000 A 
ATOM      9  N   UNL     1       4.466   4.701  18.383  0.00  0.00    +0.000 N 
ATOM     10  C   UNL     1       3.733   5.099  19.563  0.00  0.00    +0.000 C 
ATOM     11  C   UNL     1       2.253   5.352  19.288  0.00  0.00    +0.000 C 
ATOM     12  C   UNL     1       1.427   4.073  19.137  0.00  0.00    +0.000 C 
ATOM     13  C   UNL     1       1.770   3.219  17.912  0.00  0.00    +0.000 C 
ATOM     14  C   UNL     1       3.161   2.589  17.958  0.00  0.00    +0.000 C 
ENDROOT
BRANCH   1  15
ATOM     15  N   UNL     1       7.393   4.448  14.784  0.00  0.00    +0.000 N 
ATOM     16  H   UNL     1       8.396   4.292  14.851  0.00  0.00    +0.000 HD
BRANCH  15  17
ATOM     17  C   UNL     1       6.932   5.019  13.531  0.00  0.00    +0.000 C 
BRANCH  17  23
ATOM     18 CL   UNL     1       3.021   2.683  10.963  0.00  0.00    +0.000 Cl
ATOM     19  C   UNL     1       4.681   2.792  11.402  0.00  0.00    +0.000 A 
ATOM     20  C   UNL     1       5.583   1.839  10.934  0.00  0.00    +0.000 A 
ATOM     21  C   UNL     1       6.927   1.923  11.297  0.00  0.00    +0.000 A 
ATOM     22  C   UNL     1       7.362   2.959  12.127  0.00  0.00    +0.000 A 
ATOM     23  C   UNL     1       6.460   3.925  12.600  0.00  0.00    +0.000 A 
ATOM     24  C   UNL     1       5.110   3.830  12.231  0.00  0.00    +0.000 A 
ENDBRANCH  17  23
ENDBRANCH  15  17
ENDBRANCH   1  15
TORSDOF 3
ENDMDL
MODEL 8
REMARK VINA RESULT:      -7.4      4.513      6.830
REMARK  Name = 
REMARK  3 active torsions:
REMARK  status: ('A' for Active; 'I' for Inactive)
REMARK    1  A    between atoms: C_6  and  C_7
REMARK    2  A    between atoms: C_7  and  N_8
REMARK    3  A    between atoms: N_8  and  C_9
REMARK                            x       y       z     vdW  Elec       q    Type
REMARK                         _______ _______ _______ _____ _____    ______ ____
ROOT
ATOM      1  C   UNL     1       7.101   6.308  17.263  0.00  0.00    +0.000 A 
ATOM      2  N   UNL     1       7.606   5.839  16.090  0.00  0.00    +0.000 NA
ATOM      3  C   UNL     1       6.977   4.823  15.465  0.00  0.00    +0.000 A 
ATOM      4  N   UNL     1       5.858   4.179  15.840  0.00  0.00    +0.000 NA
ATOM      5  C   UNL     1       5.388   4.673  16.998  0.00  0.00    +0.000 A 
ATOM      6  C   UNL     1       5.926   5.700  17.755  0.00  0.00    +0.000 A 
ATOM      7  N   UNL     1       5.155   5.927  18.879  0.00  0.00    +0.000 NA
ATOM      8  C   UNL     1       4.176   5.041  18.819  0.00  0.00    +0.000 A 
ATOM      9  N   UNL     1       4.277   4.270  17.683  0.00  0.00    +0.000 N 
ATOM     10  C   UNL     1       3.375   3.211  17.293  0.00  0.00    +0.000 C 
ATOM     11  C   UNL     1       3.342   2.059  18.293  0.00  0.00    +0.000 C 
ATOM     12  C   UNL     1       2.532   2.361  19.555  0.00  0.00    +0.000 C 
ATOM     13  C   UNL     1       3.113   3.458  20.453  0.00  0.00    +0.000 C 
ATOM     14  C   UNL     1       3.093   4.853  19.829  0.00  0.00    +0.000 C 
ENDROOT
BRANCH   1  15
ATOM     15  N   UNL     1       7.746   7.349  17.943  0.00  0.00    +0.000 N 
ATOM     16  H   UNL     1       7.619   7.246  18.947  0.00  0.00    +0.000 HD
BRANCH  15  17
ATOM     17  C   UNL     1       7.462   8.670  17.410  0.00  0.00    +0.000 C 
BRANCH  17  23
ATOM     18 CL   UNL     1       9.394  13.527  17.585  0.00  0.00    +0.000 Cl
ATOM     19  C   UNL     1       9.232  11.945  18.244  0.00  0.00    +0.000 A 
ATOM     20  C   UNL     1       9.911  11.613  19.414  0.00  0.00    +0.000 A 
ATOM     21  C   UNL     1       9.787  10.329  19.943  0.00  0.00    +0.000 A 
ATOM     22  C   UNL     1       8.985   9.384  19.300  0.00  0.00    +0.000 A 
ATOM     23  C   UNL     1       8.295   9.711  18.122  0.00  0.00    +0.000 A 
ATOM     24  C   UNL     1       8.429  11.006  17.597  0.00  0.00    +0.000 A 
ENDBRANCH  17  23
ENDBRANCH  15  17
ENDBRANCH   1  15
TORSDOF 3
ENDMDL
MODEL 9
REMARK VINA RESULT:      -7.4      1.564      1.935
REMARK  Name = 
REMARK  3 active torsions:
REMARK  status: ('A' for Active; 'I' for Inactive)
REMARK    1  A    between atoms: C_6  and  C_7
REMARK    2  A    between atoms: C_7  and  N_8
REMARK    3  A    between atoms: N_8  and  C_9
REMARK                            x       y       z     vdW  Elec       q    Type
REMARK                         _______ _______ _______ _____ _____    ______ ____
ROOT
ATOM      1  C   UNL     1       5.850   4.551  16.115  0.00  0.00    +0.000 A 
ATOM      2  N   UNL     1       6.284   5.840  16.134  0.00  0.00    +0.000 NA
ATOM      3  C   UNL     1       5.840   6.667  17.102  0.00  0.00    +0.000 A 
ATOM      4  N   UNL     1       4.997   6.389  18.113  0.00  0.00    +0.000 NA
ATOM      5  C   UNL     1       4.595   5.109  18.062  0.00  0.00    +0.000 A 
ATOM      6  C   UNL     1       4.955   4.150  17.130  0.00  0.00    +0.000 A 
ATOM      7  N   UNL     1       4.340   2.945  17.413  0.00  0.00    +0.000 NA
ATOM      8  C   UNL     1       3.602   3.171  18.487  0.00  0.00    +0.000 A 
ATOM      9  N   UNL     1       3.742   4.470  18.917  0.00  0.00    +0.000 N 
ATOM     10  C   UNL     1       3.089   5.060  20.064  0.00  0.00    +0.000 C 
ATOM     11  C   UNL     1       1.568   5.071  19.941  0.00  0.00    +0.000 C 
ATOM     12  C   UNL     1       0.919   3.709  20.200  0.00  0.00    +0.000 C 
ATOM     13  C   UNL     1       1.247   2.627  19.168  0.00  0.00    +0.000 C 
ATOM     14  C   UNL     1       2.711   2.186  19.167  0.00  0.00    +0.000 C 
ENDROOT
BRANCH   1  15
ATOM     15  N   UNL     1       6.280   3.677  15.108  0.00  0.00    +0.000 N 
ATOM     16  H   UNL     1       6.999   3.053  15.467  0.00  0.00    +0.000 HD
BRANCH  15  17
ATOM     17  C   UNL     1       6.594   4.331  13.850  0.00  0.00    +0.000 C 
BRANCH  17  23
ATOM     18 CL   UNL     1       2.804   3.098  10.464  0.00  0.00    +0.000 Cl
ATOM     19  C   UNL     1       4.383   2.866  11.107  0.00  0.00    +0.000 A 
ATOM     20  C   UNL     1       5.202   1.867  10.584  0.00  0.00    +0.000 A 
ATOM     21  C   UNL     1       6.478   1.675  11.111  0.00  0.00    +0.000 A 
ATOM     22  C   UNL     1       6.929   2.481  12.159  0.00  0.00    +0.000 A 
ATOM     23  C   UNL     1       6.112   3.491  12.689  0.00  0.00    +0.000 A 
ATOM     24  C   UNL     1       4.829   3.675  12.153  0.00  0.00    +0.000 A 
ENDBRANCH  17  23
ENDBRANCH  15  17
ENDBRANCH   1  15
TORSDOF 3
ENDMDL
