MODEL 1
REMARK VINA RESULT:      -7.3      0.000      0.000
REMARK  Name = 
REMARK  5 active torsions:
REMARK  status: ('A' for Active; 'I' for Inactive)
REMARK    1  A    between atoms: C_2  and  C_3
REMARK    2  A    between atoms: C_2  and  C_16
REMARK    3  A    between atoms: C_3  and  C_4
REMARK    4  A    between atoms: C_4  and  C_5
REMARK    5  A    between atoms: C_5  and  N_6
REMARK                            x       y       z     vdW  Elec       q    Type
REMARK                         _______ _______ _______ _____ _____    ______ ____
ROOT
ATOM      1  C   UNL     1       1.690   2.394  18.294  0.00  0.00    +0.000 C 
ENDROOT
BRANCH   1   2
ATOM      2  N   UNL     1       3.094   2.415  17.870  0.00  0.00    +0.000 NA
ATOM      3  C   UNL     1       4.026   2.410  19.011  0.00  0.00    +0.000 C 
ATOM      4  C   UNL     1       4.802   3.717  19.248  0.00  0.00    +0.000 C 
ATOM      5  C   UNL     1       5.494   4.111  17.971  0.00  0.00    +0.000 A 
ATOM      6  C   UNL     1       6.782   4.645  17.930  0.00  0.00    +0.000 A 
ATOM      7  C   UNL     1       7.358   4.967  16.699  0.00  0.00    +0.000 A 
ATOM      8  C   UNL     1       6.649   4.772  15.513  0.00  0.00    +0.000 A 
ATOM      9  C   UNL     1       5.355   4.260  15.552  0.00  0.00    +0.000 A 
ATOM     10  C   UNL     1       4.777   3.927  16.780  0.00  0.00    +0.000 A 
ATOM     11  C   UNL     1       3.347   3.477  16.878  0.00  0.00    +0.000 C 
ENDBRANCH   1   2
BRANCH   1  12
ATOM     12  C   UNL     1       1.544   2.498  19.817  0.00  0.00    +0.000 C 
BRANCH  12  13
ATOM     13  C   UNL     1       0.833   3.775  20.231  0.00  0.00    +0.000 C 
BRANCH  13  15
ATOM     14  O   UNL     1       2.538   4.592  21.740  0.00  0.00    +0.000 OA
ATOM     15  C   UNL     1       1.825   4.798  20.762  0.00  0.00    +0.000 C 
BRANCH  15  16
ATOM     16  C   UNL     1       1.882   6.121  20.087  0.00  0.00    +0.000 A 
ATOM     17  C   UNL     1       2.391   6.267  18.792  0.00  0.00    +0.000 A 
ATOM     18  C   UNL     1       2.440   7.530  18.201  0.00  0.00    +0.000 A 
ATOM     19  C   UNL     1       1.972   8.642  18.897  0.00  0.00    +0.000 A 
ATOM     20  C   UNL     1       1.456   8.501  20.183  0.00  0.00    +0.000 A 
ATOM     21  C   UNL     1       1.413   7.242  20.783  0.00  0.00    +0.000 A 
ENDBRANCH  15  16
ENDBRANCH  13  15
ENDBRANCH  12  13
ENDBRANCH   1  12
TORSDOF 5
ENDMDL
MODEL 2
REMARK VINA RESULT:      -7.2      0.362      1.129
REMARK  Name = 
REMARK  5 active torsions:
REMARK  status: ('A' for Active; 'I' for Inactive)
REMARK    1  A    between atoms: C_2  and  C_3
REMARK    2  A    between atoms: C_2  and  C_16
REMARK    3  A    between atoms: C_3  and  C_4
REMARK    4  A    between atoms: C_4  and  C_5
REMARK    5  A    between atoms: C_5  and  N_6
REMARK                            x       y       z     vdW  Elec       q    Type
REMARK                         _______ _______ _______ _____ _____    ______ ____
ROOT
ATOM      1  C   UNL     1       1.872   2.110  18.651  0.00  0.00    +0.000 C 
ENDROOT
BRANCH   1   2
ATOM      2  N   UNL     1       3.220   2.268  18.095  0.00  0.00    +0.000 NA
ATOM      3  C   UNL     1       4.256   2.333  19.141  0.00  0.00    +0.000 C 
ATOM      4  C   UNL     1       4.929   3.704  19.334  0.00  0.00    +0.000 C 
ATOM      5  C   UNL     1       5.453   4.181  18.007  0.00  0.00    +0.000 A 
ATOM      6  C   UNL     1       6.676   4.834  17.856  0.00  0.00    +0.000 A 
ATOM      7  C   UNL     1       7.097   5.227  16.583  0.00  0.00    +0.000 A 
ATOM      8  C   UNL     1       6.296   4.985  15.467  0.00  0.00    +0.000 A 
ATOM      9  C   UNL     1       5.065   4.354  15.617  0.00  0.00    +0.000 A 
ATOM     10  C   UNL     1       4.643   3.948  16.886  0.00  0.00    +0.000 A 
ATOM     11  C   UNL     1       3.276   3.365  17.109  0.00  0.00    +0.000 C 
ENDBRANCH   1   2
BRANCH   1  12
ATOM     12  C   UNL     1       1.109   3.439  18.708  0.00  0.00    +0.000 C 
BRANCH  12  13
ATOM     13  C   UNL     1       0.766   3.832  20.135  0.00  0.00    +0.000 C 
BRANCH  13  15
ATOM     14  O   UNL     1       2.552   4.498  21.624  0.00  0.00    +0.000 OA
ATOM     15  C   UNL     1       1.804   4.791  20.696  0.00  0.00    +0.000 C 
BRANCH  15  16
ATOM     16  C   UNL     1       1.865   6.159  20.119  0.00  0.00    +0.000 A 
ATOM     17  C   UNL     1       1.309   7.263  20.776  0.00  0.00    +0.000 A 
ATOM     18  C   UNL     1       1.377   8.528  20.191  0.00  0.00    +0.000 A 
ATOM     19  C   UNL     1       2.006   8.693  18.960  0.00  0.00    +0.000 A 
ATOM     20  C   UNL     1       2.569   7.599  18.306  0.00  0.00    +0.000 A 
ATOM     21  C   UNL     1       2.497   6.330  18.881  0.00  0.00    +0.000 A 
ENDBRANCH  15  16
ENDBRANCH  13  15
ENDBRANCH  12  13
ENDBRANCH   1  12
TORSDOF 5
ENDMDL
MODEL 3
REMARK VINA RESULT:      -7.1      2.837      5.445
REMARK  Name = 
REMARK  5 active torsions:
REMARK  status: ('A' for Active; 'I' for Inactive)
REMARK    1  A    between atoms: C_2  and  C_3
REMARK    2  A    between atoms: C_2  and  C_16
REMARK    3  A    between atoms: C_3  and  C_4
REMARK    4  A    between atoms: C_4  and  C_5
REMARK    5  A    between atoms: C_5  and  N_6
REMARK                            x       y       z     vdW  Elec       q    Type
REMARK                         _______ _______ _______ _____ _____    ______ ____
ROOT
ATOM      1  C   UNL     1       3.206   7.922  17.829  0.00  0.00    +0.000 C 
ENDROOT
BRANCH   1   2
ATOM      2  N   UNL     1       3.410   6.618  18.470  0.00  0.00    +0.000 NA
ATOM      3  C   UNL     1       3.424   5.510  17.499  0.00  0.00    +0.000 C 
ATOM      4  C   UNL     1       2.213   4.563  17.545  0.00  0.00    +0.000 C 
ATOM      5  C   UNL     1       2.039   4.062  18.952  0.00  0.00    +0.000 A 
ATOM      6  C   UNL     1       1.684   2.748  19.260  0.00  0.00    +0.000 A 
ATOM      7  C   UNL     1       1.563   2.360  20.597  0.00  0.00    +0.000 A 
ATOM      8  C   UNL     1       1.780   3.280  21.623  0.00  0.00    +0.000 A 
ATOM      9  C   UNL     1       2.112   4.597  21.319  0.00  0.00    +0.000 A 
ATOM     10  C   UNL     1       2.245   4.989  19.984  0.00  0.00    +0.000 A 
ATOM     11  C   UNL     1       2.492   6.423  19.608  0.00  0.00    +0.000 C 
ENDBRANCH   1   2
BRANCH   1  12
ATOM     12  C   UNL     1       1.737   8.362  17.867  0.00  0.00    +0.000 C 
BRANCH  12  13
ATOM     13  C   UNL     1       1.583   9.775  18.402  0.00  0.00    +0.000 C 
BRANCH  13  15
ATOM     14  O   UNL     1      -0.765  10.228  18.046  0.00  0.00    +0.000 OA
ATOM     15  C   UNL     1       0.151  10.034  18.840  0.00  0.00    +0.000 C 
BRANCH  15  16
ATOM     16  C   UNL     1      -0.125  10.106  20.298  0.00  0.00    +0.000 A 
ATOM     17  C   UNL     1      -0.498  11.303  20.920  0.00  0.00    +0.000 A 
ATOM     18  C   UNL     1      -0.734  11.329  22.295  0.00  0.00    +0.000 A 
ATOM     19  C   UNL     1      -0.608  10.163  23.045  0.00  0.00    +0.000 A 
ATOM     20  C   UNL     1      -0.245   8.967  22.430  0.00  0.00    +0.000 A 
ATOM     21  C   UNL     1       0.001   8.936  21.056  0.00  0.00    +0.000 A 
ENDBRANCH  15  16
ENDBRANCH  13  15
ENDBRANCH  12  13
ENDBRANCH   1  12
TORSDOF 5
ENDMDL
MODEL 4
REMARK VINA RESULT:      -7.0      2.721      6.467
REMARK  Name = 
REMARK  5 active torsions:
REMARK  status: ('A' for Active; 'I' for Inactive)
REMARK    1  A    between atoms: C_2  and  C_3
REMARK    2  A    between atoms: C_2  and  C_16
REMARK    3  A    between atoms: C_3  and  C_4
REMARK    4  A    between atoms: C_4  and  C_5
REMARK    5  A    between atoms: C_5  and  N_6
REMARK                            x       y       z     vdW  Elec       q    Type
REMARK                         _______ _______ _______ _____ _____    ______ ____
ROOT
ATOM      1  C   UNL     1       4.656   7.164  17.652  0.00  0.00    +0.000 C 
ENDROOT
BRANCH   1   2
ATOM      2  N   UNL     1       3.939   6.199  18.494  0.00  0.00    +0.000 NA
ATOM      3  C   UNL     1       4.853   5.326  19.250  0.00  0.00    +0.000 C 
ATOM      4  C   UNL     1       4.894   3.853  18.806  0.00  0.00    +0.000 C 
ATOM      5  C   UNL     1       3.492   3.309  18.794  0.00  0.00    +0.000 A 
ATOM      6  C   UNL     1       3.165   2.023  19.225  0.00  0.00    +0.000 A 
ATOM      7  C   UNL     1       1.833   1.602  19.199  0.00  0.00    +0.000 A 
ATOM      8  C   UNL     1       0.831   2.454  18.732  0.00  0.00    +0.000 A 
ATOM      9  C   UNL     1       1.157   3.729  18.279  0.00  0.00    +0.000 A 
ATOM     10  C   UNL     1       2.486   4.159  18.313  0.00  0.00    +0.000 A 
ATOM     11  C   UNL     1       2.897   5.483  17.733  0.00  0.00    +0.000 C 
ENDBRANCH   1   2
BRANCH   1  12
ATOM     12  C   UNL     1       5.178   6.527  16.358  0.00  0.00    +0.000 C 
BRANCH  12  13
ATOM     13  C   UNL     1       6.696   6.484  16.321  0.00  0.00    +0.000 C 
BRANCH  13  15
ATOM     14  O   UNL     1       7.773   4.349  16.684  0.00  0.00    +0.000 OA
ATOM     15  C   UNL     1       7.187   5.104  15.914  0.00  0.00    +0.000 C 
BRANCH  15  16
ATOM     16  C   UNL     1       6.988   4.689  14.501  0.00  0.00    +0.000 A 
ATOM     17  C   UNL     1       7.789   5.185  13.466  0.00  0.00    +0.000 A 
ATOM     18  C   UNL     1       7.558   4.780  12.151  0.00  0.00    +0.000 A 
ATOM     19  C   UNL     1       6.539   3.873  11.871  0.00  0.00    +0.000 A 
ATOM     20  C   UNL     1       5.745   3.368  12.898  0.00  0.00    +0.000 A 
ATOM     21  C   UNL     1       5.965   3.777  14.214  0.00  0.00    +0.000 A 
ENDBRANCH  15  16
ENDBRANCH  13  15
ENDBRANCH  12  13
ENDBRANCH   1  12
TORSDOF 5
ENDMDL
MODEL 5
REMARK VINA RESULT:      -7.0      5.507      7.454
REMARK  Name = 
REMARK  5 active torsions:
REMARK  status: ('A' for Active; 'I' for Inactive)
REMARK    1  A    between atoms: C_2  and  C_3
REMARK    2  A    between atoms: C_2  and  C_16
REMARK    3  A    between atoms: C_3  and  C_4
REMARK    4  A    between atoms: C_4  and  C_5
REMARK    5  A    between atoms: C_5  and  N_6
REMARK                            x       y       z     vdW  Elec       q    Type
REMARK                         _______ _______ _______ _____ _____    ______ ____
ROOT
ATOM      1  C   UNL     1       7.429   7.241  17.089  0.00  0.00    +0.000 C 
ENDROOT
BRANCH   1   2
ATOM      2  N   UNL     1       6.471   6.318  17.709  0.00  0.00    +0.000 NA
ATOM      3  C   UNL     1       6.768   4.909  17.400  0.00  0.00    +0.000 C 
ATOM      4  C   UNL     1       5.774   4.205  16.459  0.00  0.00    +0.000 C 
ATOM      5  C   UNL     1       4.383   4.369  17.008  0.00  0.00    +0.000 A 
ATOM      6  C   UNL     1       3.425   3.357  16.983  0.00  0.00    +0.000 A 
ATOM      7  C   UNL     1       2.161   3.587  17.533  0.00  0.00    +0.000 A 
ATOM      8  C   UNL     1       1.848   4.826  18.093  0.00  0.00    +0.000 A 
ATOM      9  C   UNL     1       2.795   5.847  18.098  0.00  0.00    +0.000 A 
ATOM     10  C   UNL     1       4.064   5.618  17.560  0.00  0.00    +0.000 A 
ATOM     11  C   UNL     1       5.077   6.723  17.445  0.00  0.00    +0.000 C 
ENDBRANCH   1   2
BRANCH   1  12
ATOM     12  C   UNL     1       8.168   8.092  18.129  0.00  0.00    +0.000 C 
BRANCH  12  13
ATOM     13  C   UNL     1       8.237   9.553  17.718  0.00  0.00    +0.000 C 
BRANCH  13  15
ATOM     14  O   UNL     1       9.229  10.016  19.874  0.00  0.00    +0.000 OA
ATOM     15  C   UNL     1       9.071  10.353  18.704  0.00  0.00    +0.000 C 
BRANCH  15  16
ATOM     16  C   UNL     1       9.671  11.627  18.229  0.00  0.00    +0.000 A 
ATOM     17  C   UNL     1      10.913  11.662  17.585  0.00  0.00    +0.000 A 
ATOM     18  C   UNL     1      11.447  12.882  17.167  0.00  0.00    +0.000 A 
ATOM     19  C   UNL     1      10.738  14.062  17.383  0.00  0.00    +0.000 A 
ATOM     20  C   UNL     1       9.498  14.031  18.016  0.00  0.00    +0.000 A 
ATOM     21  C   UNL     1       8.963  12.816  18.444  0.00  0.00    +0.000 A 
ENDBRANCH  15  16
ENDBRANCH  13  15
ENDBRANCH  12  13
ENDBRANCH   1  12
TORSDOF 5
ENDMDL
MODEL 6
REMARK VINA RESULT:      -7.0      2.590      6.729
REMARK  Name = 
REMARK  5 active torsions:
REMARK  status: ('A' for Active; 'I' for Inactive)
REMARK    1  A    between atoms: C_2  and  C_3
REMARK    2  A    between atoms: C_2  and  C_16
REMARK    3  A    between atoms: C_3  and  C_4
REMARK    4  A    between atoms: C_4  and  C_5
REMARK    5  A    between atoms: C_5  and  N_6
REMARK                            x       y       z     vdW  Elec       q    Type
REMARK                         _______ _______ _______ _____ _____    ______ ____
ROOT
ATOM      1  C   UNL     1       4.700   6.087  16.920  0.00  0.00    +0.000 C 
ENDROOT
BRANCH   1   2
ATOM      2  N   UNL     1       4.319   4.972  17.794  0.00  0.00    +0.000 NA
ATOM      3  C   UNL     1       3.578   3.921  17.073  0.00  0.00    +0.000 C 
ATOM      4  C   UNL     1       2.085   3.793  17.422  0.00  0.00    +0.000 C 
ATOM      5  C   UNL     1       1.945   3.646  18.913  0.00  0.00    +0.000 A 
ATOM      6  C   UNL     1       1.028   2.783  19.515  0.00  0.00    +0.000 A 
ATOM      7  C   UNL     1       0.976   2.693  20.908  0.00  0.00    +0.000 A 
ATOM      8  C   UNL     1       1.823   3.469  21.700  0.00  0.00    +0.000 A 
ATOM      9  C   UNL     1       2.722   4.348  21.103  0.00  0.00    +0.000 A 
ATOM     10  C   UNL     1       2.787   4.435  19.709  0.00  0.00    +0.000 A 
ATOM     11  C   UNL     1       3.663   5.447  19.026  0.00  0.00    +0.000 C 
ENDBRANCH   1   2
BRANCH   1  12
ATOM     12  C   UNL     1       5.967   6.799  17.409  0.00  0.00    +0.000 C 
BRANCH  12  13
ATOM     13  C   UNL     1       7.104   6.682  16.408  0.00  0.00    +0.000 C 
BRANCH  13  15
ATOM     14  O   UNL     1       7.839   4.422  16.856  0.00  0.00    +0.000 OA
ATOM     15  C   UNL     1       7.368   5.226  16.058  0.00  0.00    +0.000 C 
BRANCH  15  16
ATOM     16  C   UNL     1       7.087   4.788  14.666  0.00  0.00    +0.000 A 
ATOM     17  C   UNL     1       6.114   3.825  14.378  0.00  0.00    +0.000 A 
ATOM     18  C   UNL     1       5.893   3.432  13.057  0.00  0.00    +0.000 A 
ATOM     19  C   UNL     1       6.633   4.006  12.027  0.00  0.00    +0.000 A 
ATOM     20  C   UNL     1       7.596   4.972  12.307  0.00  0.00    +0.000 A 
ATOM     21  C   UNL     1       7.829   5.363  13.627  0.00  0.00    +0.000 A 
ENDBRANCH  15  16
ENDBRANCH  13  15
ENDBRANCH  12  13
ENDBRANCH   1  12
TORSDOF 5
ENDMDL
MODEL 7
REMARK VINA RESULT:      -6.9      1.926      4.091
REMARK  Name = 
REMARK  5 active torsions:
REMARK  status: ('A' for Active; 'I' for Inactive)
REMARK    1  A    between atoms: C_2  and  C_3
REMARK    2  A    between atoms: C_2  and  C_16
REMARK    3  A    between atoms: C_3  and  C_4
REMARK    4  A    between atoms: C_4  and  C_5
REMARK    5  A    between atoms: C_5  and  N_6
REMARK                            x       y       z     vdW  Elec       q    Type
REMARK                         _______ _______ _______ _____ _____    ______ ____
ROOT
ATOM      1  C   UNL     1       5.108   4.978  18.170  0.00  0.00    +0.000 C 
ENDROOT
BRANCH   1   2
ATOM      2  N   UNL     1       5.805   4.333  17.051  0.00  0.00    +0.000 NA
ATOM      3  C   UNL     1       7.178   4.838  16.879  0.00  0.00    +0.000 C 
ATOM      4  C   UNL     1       7.424   5.699  15.628  0.00  0.00    +0.000 C 
ATOM      5  C   UNL     1       6.958   4.940  14.415  0.00  0.00    +0.000 A 
ATOM      6  C   UNL     1       7.644   4.940  13.201  0.00  0.00    +0.000 A 
ATOM      7  C   UNL     1       7.151   4.192  12.129  0.00  0.00    +0.000 A 
ATOM      8  C   UNL     1       5.972   3.458  12.261  0.00  0.00    +0.000 A 
ATOM      9  C   UNL     1       5.273   3.474  13.464  0.00  0.00    +0.000 A 
ATOM     10  C   UNL     1       5.767   4.212  14.543  0.00  0.00    +0.000 A 
ATOM     11  C   UNL     1       4.989   4.347  15.822  0.00  0.00    +0.000 C 
ENDBRANCH   1   2
BRANCH   1  12
ATOM     12  C   UNL     1       4.738   6.434  17.860  0.00  0.00    +0.000 C 
BRANCH  12  13
ATOM     13  C   UNL     1       3.238   6.616  17.712  0.00  0.00    +0.000 C 
BRANCH  13  15
ATOM     14  O   UNL     1       2.454   7.323  19.888  0.00  0.00    +0.000 OA
ATOM     15  C   UNL     1       2.536   6.432  19.048  0.00  0.00    +0.000 C 
BRANCH  15  16
ATOM     16  C   UNL     1       1.979   5.090  19.357  0.00  0.00    +0.000 A 
ATOM     17  C   UNL     1       1.795   4.652  20.674  0.00  0.00    +0.000 A 
ATOM     18  C   UNL     1       1.281   3.378  20.919  0.00  0.00    +0.000 A 
ATOM     19  C   UNL     1       0.943   2.547  19.854  0.00  0.00    +0.000 A 
ATOM     20  C   UNL     1       1.116   2.981  18.542  0.00  0.00    +0.000 A 
ATOM     21  C   UNL     1       1.637   4.250  18.289  0.00  0.00    +0.000 A 
ENDBRANCH  15  16
ENDBRANCH  13  15
ENDBRANCH  12  13
ENDBRANCH   1  12
TORSDOF 5
ENDMDL
MODEL 8
REMARK VINA RESULT:      -6.9      2.362      5.773
REMARK  Name = 
REMARK  5 active torsions:
REMARK  status: ('A' for Active; 'I' for Inactive)
REMARK    1  A    between atoms: C_2  and  C_3
REMARK    2  A    between atoms: C_2  and  C_16
REMARK    3  A    between atoms: C_3  and  C_4
REMARK    4  A    between atoms: C_4  and  C_5
REMARK    5  A    between atoms: C_5  and  N_6
REMARK                            x       y       z     vdW  Elec       q    Type
REMARK                         _______ _______ _______ _____ _____    ______ ____
ROOT
ATOM      1  C   UNL     1       4.282   3.681  17.811  0.00  0.00    +0.000 C 
ENDROOT
BRANCH   1   2
ATOM      2  N   UNL     1       4.142   5.002  18.432  0.00  0.00    +0.000 NA
ATOM      3  C   UNL     1       3.902   4.919  19.884  0.00  0.00    +0.000 C 
ATOM      4  C   UNL     1       2.493   5.318  20.354  0.00  0.00    +0.000 C 
ATOM      5  C   UNL     1       2.170   6.686  19.818  0.00  0.00    +0.000 A 
ATOM      6  C   UNL     1       1.494   7.659  20.556  0.00  0.00    +0.000 A 
ATOM      7  C   UNL     1       1.251   8.912  19.988  0.00  0.00    +0.000 A 
ATOM      8  C   UNL     1       1.667   9.192  18.686  0.00  0.00    +0.000 A 
ATOM      9  C   UNL     1       2.321   8.217  17.940  0.00  0.00    +0.000 A 
ATOM     10  C   UNL     1       2.577   6.965  18.506  0.00  0.00    +0.000 A 
ATOM     11  C   UNL     1       3.180   5.848  17.700  0.00  0.00    +0.000 C 
ENDBRANCH   1   2
BRANCH   1  12
ATOM     12  C   UNL     1       4.482   3.773  16.293  0.00  0.00    +0.000 C 
BRANCH  12  13
ATOM     13  C   UNL     1       5.937   3.578  15.902  0.00  0.00    +0.000 C 
BRANCH  13  15
ATOM     14  O   UNL     1       6.745   5.389  14.517  0.00  0.00    +0.000 OA
ATOM     15  C   UNL     1       6.610   4.917  15.642  0.00  0.00    +0.000 C 
BRANCH  15  16
ATOM     16  C   UNL     1       7.170   5.647  16.808  0.00  0.00    +0.000 A 
ATOM     17  C   UNL     1       7.577   4.982  17.970  0.00  0.00    +0.000 A 
ATOM     18  C   UNL     1       8.085   5.709  19.047  0.00  0.00    +0.000 A 
ATOM     19  C   UNL     1       8.197   7.094  18.961  0.00  0.00    +0.000 A 
ATOM     20  C   UNL     1       7.803   7.761  17.803  0.00  0.00    +0.000 A 
ATOM     21  C   UNL     1       7.285   7.041  16.726  0.00  0.00    +0.000 A 
ENDBRANCH  15  16
ENDBRANCH  13  15
ENDBRANCH  12  13
ENDBRANCH   1  12
TORSDOF 5
ENDMDL
MODEL 9
REMARK VINA RESULT:      -6.9      2.765      5.338
REMARK  Name = 
REMARK  5 active torsions:
REMARK  status: ('A' for Active; 'I' for Inactive)
REMARK    1  A    between atoms: C_2  and  C_3
REMARK    2  A    between atoms: C_2  and  C_16
REMARK    3  A    between atoms: C_3  and  C_4
REMARK    4  A    between atoms: C_4  and  C_5
REMARK    5  A    between atoms: C_5  and  N_6
REMARK                            x       y       z     vdW  Elec       q    Type
REMARK                         _______ _______ _______ _____ _____    ______ ____
ROOT
ATOM      1  C   UNL     1       3.188   8.003  17.780  0.00  0.00    +0.000 C 
ENDROOT
BRANCH   1   2
ATOM      2  N   UNL     1       3.383   6.758  18.531  0.00  0.00    +0.000 NA
ATOM      3  C   UNL     1       3.944   5.680  17.697  0.00  0.00    +0.000 C 
ATOM      4  C   UNL     1       2.990   4.518  17.373  0.00  0.00    +0.000 C 
ATOM      5  C   UNL     1       2.419   3.982  18.658  0.00  0.00    +0.000 A 
ATOM      6  C   UNL     1       2.223   2.623  18.901  0.00  0.00    +0.000 A 
ATOM      7  C   UNL     1       1.704   2.209  20.131  0.00  0.00    +0.000 A 
ATOM      8  C   UNL     1       1.370   3.146  21.109  0.00  0.00    +0.000 A 
ATOM      9  C   UNL     1       1.543   4.504  20.861  0.00  0.00    +0.000 A 
ATOM     10  C   UNL     1       2.071   4.924  19.636  0.00  0.00    +0.000 A 
ATOM     11  C   UNL     1       2.171   6.381  19.284  0.00  0.00    +0.000 C 
ENDBRANCH   1   2
BRANCH   1  12
ATOM     12  C   UNL     1       1.727   8.470  17.803  0.00  0.00    +0.000 C 
BRANCH  12  13
ATOM     13  C   UNL     1       1.584   9.848  18.427  0.00  0.00    +0.000 C 
BRANCH  13  15
ATOM     14  O   UNL     1      -0.763  10.331  18.102  0.00  0.00    +0.000 OA
ATOM     15  C   UNL     1       0.154  10.089  18.882  0.00  0.00    +0.000 C 
BRANCH  15  16
ATOM     16  C   UNL     1      -0.118  10.081  20.342  0.00  0.00    +0.000 A 
ATOM     17  C   UNL     1       0.099   8.944  21.128  0.00  0.00    +0.000 A 
ATOM     18  C   UNL     1      -0.183   8.976  22.494  0.00  0.00    +0.000 A 
ATOM     19  C   UNL     1      -0.672  10.143  23.076  0.00  0.00    +0.000 A 
ATOM     20  C   UNL     1      -0.882  11.281  22.301  0.00  0.00    +0.000 A 
ATOM     21  C   UNL     1      -0.610  11.252  20.932  0.00  0.00    +0.000 A 
ENDBRANCH  15  16
ENDBRANCH  13  15
ENDBRANCH  12  13
ENDBRANCH   1  12
TORSDOF 5
ENDMDL
