MODEL 1
REMARK VINA RESULT:      -6.4      0.000      0.000
REMARK  Name = 
REMARK  1 active torsions:
REMARK  status: ('A' for Active; 'I' for Inactive)
REMARK    1  A    between atoms: N_1  and  N_2
REMARK                            x       y       z     vdW  Elec       q    Type
REMARK                         _______ _______ _______ _____ _____    ______ ____
ROOT
ATOM      1  N   UNL     1       7.074   4.891  17.265  0.00  0.00    +0.000 N 
ATOM      2  C   UNL     1       5.866   4.402  17.668  0.00  0.00    +0.000 A 
ATOM      3  N   UNL     1       5.625   3.677  18.738  0.00  0.00    +0.000 NA
ATOM      4  C   UNL     1       4.281   3.348  18.825  0.00  0.00    +0.000 A 
ATOM      5  C   UNL     1       3.647   2.603  19.845  0.00  0.00    +0.000 A 
ATOM      6  F   UNL     1       4.350   2.144  20.891  0.00  0.00    +0.000 F 
ATOM      7  C   UNL     1       2.284   2.322  19.784  0.00  0.00    +0.000 A 
ATOM      8  C   UNL     1       1.544   2.781  18.709  0.00  0.00    +0.000 A 
ATOM      9  F   UNL     1       0.236   2.500  18.647  0.00  0.00    +0.000 F 
ATOM     10  C   UNL     1       2.121   3.530  17.684  0.00  0.00    +0.000 A 
ATOM     11  C   UNL     1       3.494   3.809  17.768  0.00  0.00    +0.000 A 
ATOM     12  S   UNL     1       4.479   4.715  16.689  0.00  0.00    +0.000 S 
ATOM     13  H   UNL     1       7.119   5.233  16.305  0.00  0.00    +0.000 HD
ENDROOT
BRANCH   1  14
ATOM     14  N   UNL     1       8.174   4.175  17.773  0.00  0.00    +0.000 NA
ATOM     15  H   UNL     1       7.885   3.426  18.403  0.00  0.00    +0.000 HD
ATOM     16  H   UNL     1       8.814   4.786  18.287  0.00  0.00    +0.000 HD
ENDBRANCH   1  14
TORSDOF 1
ENDMDL
MODEL 2
REMARK VINA RESULT:      -6.3      1.211      1.211
REMARK  Name = 
REMARK  1 active torsions:
REMARK  status: ('A' for Active; 'I' for Inactive)
REMARK    1  A    between atoms: N_1  and  N_2
REMARK                            x       y       z     vdW  Elec       q    Type
REMARK                         _______ _______ _______ _____ _____    ______ ____
ROOT
ATOM      1  N   UNL     1       7.054   5.277  17.361  0.00  0.00    +0.000 N 
ATOM      2  C   UNL     1       5.892   4.939  17.991  0.00  0.00    +0.000 A 
ATOM      3  N   UNL     1       5.704   3.929  18.812  0.00  0.00    +0.000 NA
ATOM      4  C   UNL     1       4.392   3.884  19.256  0.00  0.00    +0.000 A 
ATOM      5  C   UNL     1       3.826   2.958  20.161  0.00  0.00    +0.000 A 
ATOM      6  F   UNL     1       4.580   1.996  20.713  0.00  0.00    +0.000 F 
ATOM      7  C   UNL     1       2.474   3.017  20.494  0.00  0.00    +0.000 A 
ATOM      8  C   UNL     1       1.679   3.998  19.929  0.00  0.00    +0.000 A 
ATOM      9  F   UNL     1       0.377   4.046  20.243  0.00  0.00    +0.000 F 
ATOM     10  C   UNL     1       2.192   4.942  19.040  0.00  0.00    +0.000 A 
ATOM     11  C   UNL     1       3.558   4.870  18.724  0.00  0.00    +0.000 A 
ATOM     12  S   UNL     1       4.481   5.888  17.692  0.00  0.00    +0.000 S 
ATOM     13  H   UNL     1       6.967   5.942  16.592  0.00  0.00    +0.000 HD
ENDROOT
BRANCH   1  14
ATOM     14  N   UNL     1       7.955   4.205  17.220  0.00  0.00    +0.000 NA
ATOM     15  H   UNL     1       8.821   4.363  17.735  0.00  0.00    +0.000 HD
ATOM     16  H   UNL     1       8.199   4.047  16.239  0.00  0.00    +0.000 HD
ENDBRANCH   1  14
TORSDOF 1
ENDMDL
MODEL 3
REMARK VINA RESULT:      -6.3      2.941      4.176
REMARK  Name = 
REMARK  1 active torsions:
REMARK  status: ('A' for Active; 'I' for Inactive)
REMARK    1  A    between atoms: N_1  and  N_2
REMARK                            x       y       z     vdW  Elec       q    Type
REMARK                         _______ _______ _______ _____ _____    ______ ____
ROOT
ATOM      1  N   UNL     1       7.594   5.422  13.339  0.00  0.00    +0.000 N 
ATOM      2  C   UNL     1       7.095   5.243  14.597  0.00  0.00    +0.000 A 
ATOM      3  N   UNL     1       7.523   5.808  15.704  0.00  0.00    +0.000 NA
ATOM      4  C   UNL     1       6.785   5.385  16.798  0.00  0.00    +0.000 A 
ATOM      5  C   UNL     1       6.938   5.791  18.143  0.00  0.00    +0.000 A 
ATOM      6  F   UNL     1       7.865   6.702  18.478  0.00  0.00    +0.000 F 
ATOM      7  C   UNL     1       6.138   5.253  19.149  0.00  0.00    +0.000 A 
ATOM      8  C   UNL     1       5.181   4.308  18.822  0.00  0.00    +0.000 A 
ATOM      9  F   UNL     1       4.421   3.785  19.793  0.00  0.00    +0.000 F 
ATOM     10  C   UNL     1       4.984   3.883  17.509  0.00  0.00    +0.000 A 
ATOM     11  C   UNL     1       5.795   4.444  16.509  0.00  0.00    +0.000 A 
ATOM     12  S   UNL     1       5.780   4.146  14.816  0.00  0.00    +0.000 S 
ATOM     13  H   UNL     1       7.297   4.741  12.641  0.00  0.00    +0.000 HD
ENDROOT
BRANCH   1  14
ATOM     14  N   UNL     1       8.930   5.865  13.318  0.00  0.00    +0.000 NA
ATOM     15  H   UNL     1       9.533   5.292  13.907  0.00  0.00    +0.000 HD
ATOM     16  H   UNL     1       9.009   6.833  13.639  0.00  0.00    +0.000 HD
ENDBRANCH   1  14
TORSDOF 1
ENDMDL
MODEL 4
REMARK VINA RESULT:      -6.2      1.653      1.673
REMARK  Name = 
REMARK  1 active torsions:
REMARK  status: ('A' for Active; 'I' for Inactive)
REMARK    1  A    between atoms: N_1  and  N_2
REMARK                            x       y       z     vdW  Elec       q    Type
REMARK                         _______ _______ _______ _____ _____    ______ ____
ROOT
ATOM      1  N   UNL     1       6.656   5.327  18.580  0.00  0.00    +0.000 N 
ATOM      2  C   UNL     1       5.400   4.808  18.707  0.00  0.00    +0.000 A 
ATOM      3  N   UNL     1       4.615   4.889  19.758  0.00  0.00    +0.000 NA
ATOM      4  C   UNL     1       3.413   4.235  19.535  0.00  0.00    +0.000 A 
ATOM      5  C   UNL     1       2.319   4.130  20.423  0.00  0.00    +0.000 A 
ATOM      6  F   UNL     1       2.360   4.718  21.628  0.00  0.00    +0.000 F 
ATOM      7  C   UNL     1       1.179   3.410  20.071  0.00  0.00    +0.000 A 
ATOM      8  C   UNL     1       1.122   2.791  18.835  0.00  0.00    +0.000 A 
ATOM      9  F   UNL     1       0.029   2.091  18.504  0.00  0.00    +0.000 F 
ATOM     10  C   UNL     1       2.170   2.876  17.920  0.00  0.00    +0.000 A 
ATOM     11  C   UNL     1       3.306   3.613  18.290  0.00  0.00    +0.000 A 
ATOM     12  S   UNL     1       4.736   3.917  17.386  0.00  0.00    +0.000 S 
ATOM     13  H   UNL     1       7.204   4.980  17.794  0.00  0.00    +0.000 HD
ENDROOT
BRANCH   1  14
ATOM     14  N   UNL     1       7.307   5.541  19.809  0.00  0.00    +0.000 NA
ATOM     15  H   UNL     1       8.265   5.191  19.801  0.00  0.00    +0.000 HD
ATOM     16  H   UNL     1       6.814   5.083  20.579  0.00  0.00    +0.000 HD
ENDBRANCH   1  14
TORSDOF 1
ENDMDL
MODEL 5
REMARK VINA RESULT:      -6.2      2.127      2.563
REMARK  Name = 
REMARK  1 active torsions:
REMARK  status: ('A' for Active; 'I' for Inactive)
REMARK    1  A    between atoms: N_1  and  N_2
REMARK                            x       y       z     vdW  Elec       q    Type
REMARK                         _______ _______ _______ _____ _____    ______ ____
ROOT
ATOM      1  N   UNL     1       7.474   4.720  16.988  0.00  0.00    +0.000 N 
ATOM      2  C   UNL     1       6.225   4.657  17.531  0.00  0.00    +0.000 A 
ATOM      3  N   UNL     1       5.142   4.171  16.967  0.00  0.00    +0.000 NA
ATOM      4  C   UNL     1       4.047   4.281  17.809  0.00  0.00    +0.000 A 
ATOM      5  C   UNL     1       2.725   3.847  17.557  0.00  0.00    +0.000 A 
ATOM      6  F   UNL     1       2.418   3.233  16.404  0.00  0.00    +0.000 F 
ATOM      7  C   UNL     1       1.713   4.054  18.492  0.00  0.00    +0.000 A 
ATOM      8  C   UNL     1       2.010   4.692  19.683  0.00  0.00    +0.000 A 
ATOM      9  F   UNL     1       1.033   4.899  20.575  0.00  0.00    +0.000 F 
ATOM     10  C   UNL     1       3.300   5.128  19.983  0.00  0.00    +0.000 A 
ATOM     11  C   UNL     1       4.307   4.903  19.032  0.00  0.00    +0.000 A 
ATOM     12  S   UNL     1       5.978   5.297  19.116  0.00  0.00    +0.000 S 
ATOM     13  H   UNL     1       8.139   5.328  17.467  0.00  0.00    +0.000 HD
ENDROOT
BRANCH   1  14
ATOM     14  N   UNL     1       7.482   4.697  15.581  0.00  0.00    +0.000 NA
ATOM     15  H   UNL     1       7.155   3.804  15.211  0.00  0.00    +0.000 HD
ATOM     16  H   UNL     1       8.421   4.864  15.209  0.00  0.00    +0.000 HD
ENDBRANCH   1  14
TORSDOF 1
ENDMDL
MODEL 6
REMARK VINA RESULT:      -6.1      2.363      3.018
REMARK  Name = 
REMARK  1 active torsions:
REMARK  status: ('A' for Active; 'I' for Inactive)
REMARK    1  A    between atoms: N_1  and  N_2
REMARK                            x       y       z     vdW  Elec       q    Type
REMARK                         _______ _______ _______ _____ _____    ______ ____
ROOT
ATOM      1  N   UNL     1       7.536   6.853  16.597  0.00  0.00    +0.000 N 
ATOM      2  C   UNL     1       6.367   6.197  16.848  0.00  0.00    +0.000 A 
ATOM      3  N   UNL     1       5.250   6.721  17.302  0.00  0.00    +0.000 NA
ATOM      4  C   UNL     1       4.268   5.754  17.448  0.00  0.00    +0.000 A 
ATOM      5  C   UNL     1       2.938   5.944  17.887  0.00  0.00    +0.000 A 
ATOM      6  F   UNL     1       2.491   7.170  18.197  0.00  0.00    +0.000 F 
ATOM      7  C   UNL     1       2.065   4.865  18.014  0.00  0.00    +0.000 A 
ATOM      8  C   UNL     1       2.511   3.592  17.705  0.00  0.00    +0.000 A 
ATOM      9  F   UNL     1       1.673   2.555  17.839  0.00  0.00    +0.000 F 
ATOM     10  C   UNL     1       3.810   3.355  17.258  0.00  0.00    +0.000 A 
ATOM     11  C   UNL     1       4.671   4.456  17.128  0.00  0.00    +0.000 A 
ATOM     12  S   UNL     1       6.302   4.492  16.587  0.00  0.00    +0.000 S 
ATOM     13  H   UNL     1       8.359   6.264  16.469  0.00  0.00    +0.000 HD
ENDROOT
BRANCH   1  14
ATOM     14  N   UNL     1       7.678   8.055  17.315  0.00  0.00    +0.000 NA
ATOM     15  H   UNL     1       7.936   7.892  18.288  0.00  0.00    +0.000 HD
ATOM     16  H   UNL     1       6.811   8.600  17.308  0.00  0.00    +0.000 HD
ENDBRANCH   1  14
TORSDOF 1
ENDMDL
MODEL 7
REMARK VINA RESULT:      -6.0      1.480      1.480
REMARK  Name = 
REMARK  1 active torsions:
REMARK  status: ('A' for Active; 'I' for Inactive)
REMARK    1  A    between atoms: N_1  and  N_2
REMARK                            x       y       z     vdW  Elec       q    Type
REMARK                         _______ _______ _______ _____ _____    ______ ____
ROOT
ATOM      1  N   UNL     1       6.648   5.615  19.261  0.00  0.00    +0.000 N 
ATOM      2  C   UNL     1       5.488   4.905  19.158  0.00  0.00    +0.000 A 
ATOM      3  N   UNL     1       5.368   3.598  19.074  0.00  0.00    +0.000 NA
ATOM      4  C   UNL     1       4.037   3.225  18.970  0.00  0.00    +0.000 A 
ATOM      5  C   UNL     1       3.520   1.912  18.885  0.00  0.00    +0.000 A 
ATOM      6  F   UNL     1       4.342   0.853  18.921  0.00  0.00    +0.000 F 
ATOM      7  C   UNL     1       2.151   1.689  18.754  0.00  0.00    +0.000 A 
ATOM      8  C   UNL     1       1.289   2.770  18.707  0.00  0.00    +0.000 A 
ATOM      9  F   UNL     1      -0.025   2.553  18.569  0.00  0.00    +0.000 F 
ATOM     10  C   UNL     1       1.749   4.083  18.799  0.00  0.00    +0.000 A 
ATOM     11  C   UNL     1       3.131   4.286  18.939  0.00  0.00    +0.000 A 
ATOM     12  S   UNL     1       3.993   5.765  19.098  0.00  0.00    +0.000 S 
ATOM     13  H   UNL     1       6.574   6.618  19.087  0.00  0.00    +0.000 HD
ENDROOT
BRANCH   1  14
ATOM     14  N   UNL     1       7.777   4.932  18.771  0.00  0.00    +0.000 NA
ATOM     15  H   UNL     1       7.863   5.012  17.758  0.00  0.00    +0.000 HD
ATOM     16  H   UNL     1       7.743   3.937  19.004  0.00  0.00    +0.000 HD
ENDBRANCH   1  14
TORSDOF 1
ENDMDL
MODEL 8
REMARK VINA RESULT:      -6.0      3.531      5.321
REMARK  Name = 
REMARK  1 active torsions:
REMARK  status: ('A' for Active; 'I' for Inactive)
REMARK    1  A    between atoms: N_1  and  N_2
REMARK                            x       y       z     vdW  Elec       q    Type
REMARK                         _______ _______ _______ _____ _____    ______ ____
ROOT
ATOM      1  N   UNL     1       4.206   2.674  18.368  0.00  0.00    +0.000 N 
ATOM      2  C   UNL     1       4.982   3.791  18.249  0.00  0.00    +0.000 A 
ATOM      3  N   UNL     1       6.091   4.055  18.904  0.00  0.00    +0.000 NA
ATOM      4  C   UNL     1       6.606   5.288  18.536  0.00  0.00    +0.000 A 
ATOM      5  C   UNL     1       7.791   5.896  19.008  0.00  0.00    +0.000 A 
ATOM      6  F   UNL     1       8.574   5.265  19.897  0.00  0.00    +0.000 F 
ATOM      7  C   UNL     1       8.171   7.162  18.568  0.00  0.00    +0.000 A 
ATOM      8  C   UNL     1       7.372   7.831  17.657  0.00  0.00    +0.000 A 
ATOM      9  F   UNL     1       7.734   9.053  17.245  0.00  0.00    +0.000 F 
ATOM     10  C   UNL     1       6.200   7.270  17.154  0.00  0.00    +0.000 A 
ATOM     11  C   UNL     1       5.840   5.989  17.603  0.00  0.00    +0.000 A 
ATOM     12  S   UNL     1       4.483   5.033  17.159  0.00  0.00    +0.000 S 
ATOM     13  H   UNL     1       3.273   2.734  17.961  0.00  0.00    +0.000 HD
ENDROOT
BRANCH   1  14
ATOM     14  N   UNL     1       4.359   2.006  19.597  0.00  0.00    +0.000 NA
ATOM     15  H   UNL     1       4.758   1.075  19.479  0.00  0.00    +0.000 HD
ATOM     16  H   UNL     1       3.464   1.904  20.082  0.00  0.00    +0.000 HD
ENDBRANCH   1  14
TORSDOF 1
ENDMDL
MODEL 9
REMARK VINA RESULT:      -6.0      2.021      2.163
REMARK  Name = 
REMARK  1 active torsions:
REMARK  status: ('A' for Active; 'I' for Inactive)
REMARK    1  A    between atoms: N_1  and  N_2
REMARK                            x       y       z     vdW  Elec       q    Type
REMARK                         _______ _______ _______ _____ _____    ______ ____
ROOT
ATOM      1  N   UNL     1       7.804   5.461  19.157  0.00  0.00    +0.000 N 
ATOM      2  C   UNL     1       6.480   5.230  18.921  0.00  0.00    +0.000 A 
ATOM      3  N   UNL     1       5.499   5.295  19.795  0.00  0.00    +0.000 NA
ATOM      4  C   UNL     1       4.284   4.987  19.205  0.00  0.00    +0.000 A 
ATOM      5  C   UNL     1       3.012   4.976  19.821  0.00  0.00    +0.000 A 
ATOM      6  F   UNL     1       2.878   5.307  21.114  0.00  0.00    +0.000 F 
ATOM      7  C   UNL     1       1.873   4.614  19.105  0.00  0.00    +0.000 A 
ATOM      8  C   UNL     1       1.993   4.262  17.772  0.00  0.00    +0.000 A 
ATOM      9  F   UNL     1       0.897   3.904  17.089  0.00  0.00    +0.000 F 
ATOM     10  C   UNL     1       3.223   4.269  17.116  0.00  0.00    +0.000 A 
ATOM     11  C   UNL     1       4.357   4.645  17.853  0.00  0.00    +0.000 A 
ATOM     12  S   UNL     1       5.989   4.773  17.330  0.00  0.00    +0.000 S 
ATOM     13  H   UNL     1       8.447   5.147  18.430  0.00  0.00    +0.000 HD
ENDROOT
BRANCH   1  14
ATOM     14  N   UNL     1       8.178   5.291  20.503  0.00  0.00    +0.000 NA
ATOM     15  H   UNL     1       8.899   5.954  20.786  0.00  0.00    +0.000 HD
ATOM     16  H   UNL     1       8.536   4.348  20.675  0.00  0.00    +0.000 HD
ENDBRANCH   1  14
TORSDOF 1
ENDMDL
