MODEL 1
REMARK VINA RESULT:      -7.5      0.000      0.000
REMARK  Name = 
REMARK  6 active torsions:
REMARK  status: ('A' for Active; 'I' for Inactive)
REMARK    1  A    between atoms: C_2  and  C_3
REMARK    2  A    between atoms: C_3  and  C_4
REMARK    3  A    between atoms: C_4  and  N_5
REMARK    4  A    between atoms: C_8  and  C_9
REMARK    5  A    between atoms: C_12  and  O_13
REMARK    6  A    between atoms: C_19  and  C_20
REMARK                            x       y       z     vdW  Elec       q    Type
REMARK                         _______ _______ _______ _____ _____    ______ ____
ROOT
ATOM      1  N   UNL     1       5.578   4.657  14.758  0.00  0.00    +0.000 NA
ATOM      2  C   UNL     1       6.808   5.379  15.209  0.00  0.00    +0.000 C 
ATOM      3  C   UNL     1       7.286   4.902  16.735  0.00  0.00    +0.000 C 
ATOM      4  C   UNL     1       6.079   5.000  18.049  0.00  0.00    +0.000 C 
ATOM      5  C   UNL     1       7.030   5.110  19.238  0.00  0.00    +0.000 C 
ATOM      6  C   UNL     1       4.702   4.544  18.731  0.00  0.00    +0.000 A 
ATOM      7  C   UNL     1       4.115   5.499  19.665  0.00  0.00    +0.000 A 
ATOM      8  C   UNL     1       2.727   5.675  19.758  0.00  0.00    +0.000 A 
ATOM      9  C   UNL     1       1.837   4.790  19.172  0.00  0.00    +0.000 A 
ATOM     10  C   UNL     1       2.341   3.785  18.361  0.00  0.00    +0.000 A 
ATOM     11  C   UNL     1       3.720   3.750  18.045  0.00  0.00    +0.000 A 
ATOM     12  C   UNL     1       4.072   3.279  16.653  0.00  0.00    +0.000 C 
ATOM     13  C   UNL     1       5.015   4.379  16.063  0.00  0.00    +0.000 C 
ATOM     14  C   UNL     1       5.197   5.789  17.106  0.00  0.00    +0.000 C 
ATOM     15  C   UNL     1       5.799   7.219  17.104  0.00  0.00    +0.000 C 
ENDROOT
BRANCH   8  16
ATOM     16  O   UNL     1       2.213   6.856  20.236  0.00  0.00    +0.000 OA
ATOM     17  H   UNL     1       2.046   6.746  21.188  0.00  0.00    +0.000 HD
ENDBRANCH   8  16
BRANCH   1  18
ATOM     18  C   UNL     1       6.098   3.551  13.924  0.00  0.00    +0.000 C 
BRANCH  18  19
ATOM     19  C   UNL     1       6.384   3.581  12.415  0.00  0.00    +0.000 C 
BRANCH  19  21
ATOM     20  C   UNL     1       4.120   3.263  11.266  0.00  0.00    +0.000 C 
ATOM     21  C   UNL     1       5.257   2.772  11.778  0.00  0.00    +0.000 C 
ENDBRANCH  19  21
ENDBRANCH  18  19
ENDBRANCH   1  18
TORSDOF 4
ENDMDL
MODEL 2
REMARK VINA RESULT:      -6.8      2.724      5.681
REMARK  Name = 
REMARK  6 active torsions:
REMARK  status: ('A' for Active; 'I' for Inactive)
REMARK    1  A    between atoms: C_2  and  C_3
REMARK    2  A    between atoms: C_3  and  C_4
REMARK    3  A    between atoms: C_4  and  N_5
REMARK    4  A    between atoms: C_8  and  C_9
REMARK    5  A    between atoms: C_12  and  O_13
REMARK    6  A    between atoms: C_19  and  C_20
REMARK                            x       y       z     vdW  Elec       q    Type
REMARK                         _______ _______ _______ _____ _____    ______ ____
ROOT
ATOM      1  N   UNL     1       3.553   4.314  19.233  0.00  0.00    +0.000 NA
ATOM      2  C   UNL     1       2.801   4.557  17.963  0.00  0.00    +0.000 C 
ATOM      3  C   UNL     1       3.789   4.448  16.623  0.00  0.00    +0.000 C 
ATOM      4  C   UNL     1       5.259   5.464  16.593  0.00  0.00    +0.000 C 
ATOM      5  C   UNL     1       5.461   5.545  15.082  0.00  0.00    +0.000 C 
ATOM      6  C   UNL     1       6.696   5.876  17.171  0.00  0.00    +0.000 A 
ATOM      7  C   UNL     1       7.131   7.235  16.867  0.00  0.00    +0.000 A 
ATOM      8  C   UNL     1       7.858   7.998  17.793  0.00  0.00    +0.000 A 
ATOM      9  C   UNL     1       8.422   7.430  18.923  0.00  0.00    +0.000 A 
ATOM     10  C   UNL     1       8.139   6.103  19.209  0.00  0.00    +0.000 A 
ATOM     11  C   UNL     1       7.196   5.392  18.428  0.00  0.00    +0.000 A 
ATOM     12  C   UNL     1       6.337   4.394  19.168  0.00  0.00    +0.000 C 
ATOM     13  C   UNL     1       4.861   4.739  18.779  0.00  0.00    +0.000 C 
ATOM     14  C   UNL     1       4.711   6.197  17.798  0.00  0.00    +0.000 C 
ATOM     15  C   UNL     1       3.636   7.156  17.224  0.00  0.00    +0.000 C 
ENDROOT
BRANCH   8  16
ATOM     16  O   UNL     1       7.836   9.369  17.724  0.00  0.00    +0.000 OA
ATOM     17  H   UNL     1       7.361   9.621  16.913  0.00  0.00    +0.000 HD
ENDBRANCH   8  16
BRANCH   1  18
ATOM     18  C   UNL     1       3.300   2.888  19.532  0.00  0.00    +0.000 C 
BRANCH  18  19
ATOM     19  C   UNL     1       1.966   2.137  19.408  0.00  0.00    +0.000 C 
BRANCH  19  21
ATOM     20  C   UNL     1       1.516   2.878  21.815  0.00  0.00    +0.000 C 
ATOM     21  C   UNL     1       1.106   2.654  20.559  0.00  0.00    +0.000 C 
ENDBRANCH  19  21
ENDBRANCH  18  19
ENDBRANCH   1  18
TORSDOF 4
ENDMDL
MODEL 3
REMARK VINA RESULT:      -6.8      0.644      1.071
REMARK  Name = 
REMARK  6 active torsions:
REMARK  status: ('A' for Active; 'I' for Inactive)
REMARK    1  A    between atoms: C_2  and  C_3
REMARK    2  A    between atoms: C_3  and  C_4
REMARK    3  A    between atoms: C_4  and  N_5
REMARK    4  A    between atoms: C_8  and  C_9
REMARK    5  A    between atoms: C_12  and  O_13
REMARK    6  A    between atoms: C_19  and  C_20
REMARK                            x       y       z     vdW  Elec       q    Type
REMARK                         _______ _______ _______ _____ _____    ______ ____
ROOT
ATOM      1  N   UNL     1       5.457   4.732  14.952  0.00  0.00    +0.000 NA
ATOM      2  C   UNL     1       6.605   5.581  15.399  0.00  0.00    +0.000 C 
ATOM      3  C   UNL     1       7.134   5.161  16.925  0.00  0.00    +0.000 C 
ATOM      4  C   UNL     1       5.926   5.133  18.241  0.00  0.00    +0.000 C 
ATOM      5  C   UNL     1       6.863   5.346  19.428  0.00  0.00    +0.000 C 
ATOM      6  C   UNL     1       4.607   4.535  18.927  0.00  0.00    +0.000 A 
ATOM      7  C   UNL     1       3.924   5.424  19.861  0.00  0.00    +0.000 A 
ATOM      8  C   UNL     1       2.525   5.453  19.958  0.00  0.00    +0.000 A 
ATOM      9  C   UNL     1       1.733   4.477  19.375  0.00  0.00    +0.000 A 
ATOM     10  C   UNL     1       2.338   3.529  18.565  0.00  0.00    +0.000 A 
ATOM     11  C   UNL     1       3.713   3.641  18.245  0.00  0.00    +0.000 A 
ATOM     12  C   UNL     1       4.109   3.207  16.853  0.00  0.00    +0.000 C 
ATOM     13  C   UNL     1       4.929   4.399  16.259  0.00  0.00    +0.000 C 
ATOM     14  C   UNL     1       4.964   5.822  17.299  0.00  0.00    +0.000 C 
ATOM     15  C   UNL     1       5.410   7.308  17.293  0.00  0.00    +0.000 C 
ENDROOT
BRANCH   8  16
ATOM     16  O   UNL     1       1.891   6.574  20.434  0.00  0.00    +0.000 OA
ATOM     17  H   UNL     1       0.988   6.585  20.069  0.00  0.00    +0.000 HD
ENDBRANCH   8  16
BRANCH   1  18
ATOM     18  C   UNL     1       6.090   3.685  14.119  0.00  0.00    +0.000 C 
BRANCH  18  19
ATOM     19  C   UNL     1       5.803   3.377  12.642  0.00  0.00    +0.000 C 
BRANCH  19  21
ATOM     20  C   UNL     1       7.634   5.083  12.111  0.00  0.00    +0.000 C 
ATOM     21  C   UNL     1       7.007   3.922  11.878  0.00  0.00    +0.000 C 
ENDBRANCH  19  21
ENDBRANCH  18  19
ENDBRANCH   1  18
TORSDOF 4
ENDMDL
MODEL 4
REMARK VINA RESULT:      -6.7      2.849      5.581
REMARK  Name = 
REMARK  6 active torsions:
REMARK  status: ('A' for Active; 'I' for Inactive)
REMARK    1  A    between atoms: C_2  and  C_3
REMARK    2  A    between atoms: C_3  and  C_4
REMARK    3  A    between atoms: C_4  and  N_5
REMARK    4  A    between atoms: C_8  and  C_9
REMARK    5  A    between atoms: C_12  and  O_13
REMARK    6  A    between atoms: C_19  and  C_20
REMARK                            x       y       z     vdW  Elec       q    Type
REMARK                         _______ _______ _______ _____ _____    ______ ____
ROOT
ATOM      1  N   UNL     1       2.932   7.446  18.403  0.00  0.00    +0.000 NA
ATOM      2  C   UNL     1       4.269   7.684  17.778  0.00  0.00    +0.000 C 
ATOM      3  C   UNL     1       4.543   6.664  16.485  0.00  0.00    +0.000 C 
ATOM      4  C   UNL     1       4.373   4.908  16.766  0.00  0.00    +0.000 C 
ATOM      5  C   UNL     1       5.274   4.399  15.642  0.00  0.00    +0.000 C 
ATOM      6  C   UNL     1       3.490   3.621  17.130  0.00  0.00    +0.000 A 
ATOM      7  C   UNL     1       4.231   2.478  17.654  0.00  0.00    +0.000 A 
ATOM      8  C   UNL     1       3.697   1.656  18.658  0.00  0.00    +0.000 A 
ATOM      9  C   UNL     1       2.361   1.719  19.019  0.00  0.00    +0.000 A 
ATOM     10  C   UNL     1       1.572   2.716  18.467  0.00  0.00    +0.000 A 
ATOM     11  C   UNL     1       2.156   3.716  17.653  0.00  0.00    +0.000 A 
ATOM     12  C   UNL     1       1.566   5.101  17.775  0.00  0.00    +0.000 C 
ATOM     13  C   UNL     1       2.779   6.054  18.034  0.00  0.00    +0.000 C 
ATOM     14  C   UNL     1       4.311   5.207  18.248  0.00  0.00    +0.000 C 
ATOM     15  C   UNL     1       5.783   5.465  18.662  0.00  0.00    +0.000 C 
ENDROOT
BRANCH   8  16
ATOM     16  O   UNL     1       4.532   0.929  19.470  0.00  0.00    +0.000 OA
ATOM     17  H   UNL     1       4.450  -0.008  19.221  0.00  0.00    +0.000 HD
ENDBRANCH   8  16
BRANCH   1  18
ATOM     18  C   UNL     1       2.062   8.475  17.792  0.00  0.00    +0.000 C 
BRANCH  18  19
ATOM     19  C   UNL     1       1.243   9.550  18.521  0.00  0.00    +0.000 C 
BRANCH  19  21
ATOM     20  C   UNL     1       0.152   9.359  20.827  0.00  0.00    +0.000 C 
ATOM     21  C   UNL     1       1.130   9.058  19.962  0.00  0.00    +0.000 C 
ENDBRANCH  19  21
ENDBRANCH  18  19
ENDBRANCH   1  18
TORSDOF 4
ENDMDL
MODEL 5
REMARK VINA RESULT:      -6.7      2.864      5.477
REMARK  Name = 
REMARK  6 active torsions:
REMARK  status: ('A' for Active; 'I' for Inactive)
REMARK    1  A    between atoms: C_2  and  C_3
REMARK    2  A    between atoms: C_3  and  C_4
REMARK    3  A    between atoms: C_4  and  N_5
REMARK    4  A    between atoms: C_8  and  C_9
REMARK    5  A    between atoms: C_12  and  O_13
REMARK    6  A    between atoms: C_19  and  C_20
REMARK                            x       y       z     vdW  Elec       q    Type
REMARK                         _______ _______ _______ _____ _____    ______ ____
ROOT
ATOM      1  N   UNL     1       2.930   5.114  19.818  0.00  0.00    +0.000 NA
ATOM      2  C   UNL     1       2.164   5.280  18.544  0.00  0.00    +0.000 C 
ATOM      3  C   UNL     1       3.029   4.740  17.223  0.00  0.00    +0.000 C 
ATOM      4  C   UNL     1       4.665   5.414  16.972  0.00  0.00    +0.000 C 
ATOM      5  C   UNL     1       4.787   5.187  15.467  0.00  0.00    +0.000 C 
ATOM      6  C   UNL     1       6.187   5.618  17.431  0.00  0.00    +0.000 A 
ATOM      7  C   UNL     1       6.861   6.785  16.872  0.00  0.00    +0.000 A 
ATOM      8  C   UNL     1       7.779   7.532  17.625  0.00  0.00    +0.000 A 
ATOM      9  C   UNL     1       8.287   7.067  18.827  0.00  0.00    +0.000 A 
ATOM     10  C   UNL     1       7.767   5.897  19.357  0.00  0.00    +0.000 A 
ATOM     11  C   UNL     1       6.657   5.268  18.742  0.00  0.00    +0.000 A 
ATOM     12  C   UNL     1       5.665   4.611  19.673  0.00  0.00    +0.000 C 
ATOM     13  C   UNL     1       4.265   5.177  19.263  0.00  0.00    +0.000 C 
ATOM     14  C   UNL     1       4.345   6.441  18.036  0.00  0.00    +0.000 C 
ATOM     15  C   UNL     1       3.447   7.484  17.322  0.00  0.00    +0.000 C 
ENDROOT
BRANCH   8  16
ATOM     16  O   UNL     1       8.022   8.846  17.308  0.00  0.00    +0.000 OA
ATOM     17  H   UNL     1       8.596   9.219  18.000  0.00  0.00    +0.000 HD
ENDBRANCH   8  16
BRANCH   1  18
ATOM     18  C   UNL     1       2.419   3.843  20.379  0.00  0.00    +0.000 C 
BRANCH  18  19
ATOM     19  C   UNL     1       1.225   3.020  19.875  0.00  0.00    +0.000 C 
BRANCH  19  21
ATOM     20  C   UNL     1       3.088   1.666  18.761  0.00  0.00    +0.000 C 
ATOM     21  C   UNL     1       1.837   1.780  19.228  0.00  0.00    +0.000 C 
ENDBRANCH  19  21
ENDBRANCH  18  19
ENDBRANCH   1  18
TORSDOF 4
ENDMDL
MODEL 6
REMARK VINA RESULT:      -6.5      2.964      5.430
REMARK  Name = 
REMARK  6 active torsions:
REMARK  status: ('A' for Active; 'I' for Inactive)
REMARK    1  A    between atoms: C_2  and  C_3
REMARK    2  A    between atoms: C_3  and  C_4
REMARK    3  A    between atoms: C_4  and  N_5
REMARK    4  A    between atoms: C_8  and  C_9
REMARK    5  A    between atoms: C_12  and  O_13
REMARK    6  A    between atoms: C_19  and  C_20
REMARK                            x       y       z     vdW  Elec       q    Type
REMARK                         _______ _______ _______ _____ _____    ______ ____
ROOT
ATOM      1  N   UNL     1       3.251   7.527  18.400  0.00  0.00    +0.000 NA
ATOM      2  C   UNL     1       4.432   7.449  17.486  0.00  0.00    +0.000 C 
ATOM      3  C   UNL     1       4.450   6.028  16.611  0.00  0.00    +0.000 C 
ATOM      4  C   UNL     1       4.359   4.494  17.522  0.00  0.00    +0.000 C 
ATOM      5  C   UNL     1       5.020   3.571  16.500  0.00  0.00    +0.000 C 
ATOM      6  C   UNL     1       3.582   3.471  18.481  0.00  0.00    +0.000 A 
ATOM      7  C   UNL     1       4.425   2.539  19.222  0.00  0.00    +0.000 A 
ATOM      8  C   UNL     1       4.113   2.153  20.535  0.00  0.00    +0.000 A 
ATOM      9  C   UNL     1       2.877   2.421  21.100  0.00  0.00    +0.000 A 
ATOM     10  C   UNL     1       1.982   3.209  20.394  0.00  0.00    +0.000 A 
ATOM     11  C   UNL     1       2.379   3.825  19.182  0.00  0.00    +0.000 A 
ATOM     12  C   UNL     1       1.811   5.199  18.917  0.00  0.00    +0.000 C 
ATOM     13  C   UNL     1       3.042   6.106  18.585  0.00  0.00    +0.000 C 
ATOM     14  C   UNL     1       4.594   5.293  18.785  0.00  0.00    +0.000 C 
ATOM     15  C   UNL     1       6.117   5.589  18.790  0.00  0.00    +0.000 C 
ENDROOT
BRANCH   8  16
ATOM     16  O   UNL     1       5.103   1.705  21.374  0.00  0.00    +0.000 OA
ATOM     17  H   UNL     1       4.677   1.263  22.129  0.00  0.00    +0.000 HD
ENDBRANCH   8  16
BRANCH   1  18
ATOM     18  C   UNL     1       2.265   8.330  17.644  0.00  0.00    +0.000 C 
BRANCH  18  19
ATOM     19  C   UNL     1       1.681   9.694  18.039  0.00  0.00    +0.000 C 
BRANCH  19  21
ATOM     20  C   UNL     1       0.085  10.250  19.960  0.00  0.00    +0.000 C 
ATOM     21  C   UNL     1       1.013   9.467  19.393  0.00  0.00    +0.000 C 
ENDBRANCH  19  21
ENDBRANCH  18  19
ENDBRANCH   1  18
TORSDOF 4
ENDMDL
MODEL 7
REMARK VINA RESULT:      -6.5      1.270      1.412
REMARK  Name = 
REMARK  6 active torsions:
REMARK  status: ('A' for Active; 'I' for Inactive)
REMARK    1  A    between atoms: C_2  and  C_3
REMARK    2  A    between atoms: C_3  and  C_4
REMARK    3  A    between atoms: C_4  and  N_5
REMARK    4  A    between atoms: C_8  and  C_9
REMARK    5  A    between atoms: C_12  and  O_13
REMARK    6  A    between atoms: C_19  and  C_20
REMARK                            x       y       z     vdW  Elec       q    Type
REMARK                         _______ _______ _______ _____ _____    ______ ____
ROOT
ATOM      1  N   UNL     1       5.128   5.224  14.950  0.00  0.00    +0.000 NA
ATOM      2  C   UNL     1       5.812   6.339  15.674  0.00  0.00    +0.000 C 
ATOM      3  C   UNL     1       6.408   5.847  17.153  0.00  0.00    +0.000 C 
ATOM      4  C   UNL     1       5.268   5.072  18.290  0.00  0.00    +0.000 C 
ATOM      5  C   UNL     1       5.991   5.379  19.599  0.00  0.00    +0.000 C 
ATOM      6  C   UNL     1       4.281   3.876  18.695  0.00  0.00    +0.000 A 
ATOM      7  C   UNL     1       3.261   4.209  19.684  0.00  0.00    +0.000 A 
ATOM      8  C   UNL     1       1.969   3.667  19.615  0.00  0.00    +0.000 A 
ATOM      9  C   UNL     1       1.665   2.606  18.778  0.00  0.00    +0.000 A 
ATOM     10  C   UNL     1       2.634   2.165  17.891  0.00  0.00    +0.000 A 
ATOM     11  C   UNL     1       3.856   2.869  17.762  0.00  0.00    +0.000 A 
ATOM     12  C   UNL     1       4.447   2.929  16.374  0.00  0.00    +0.000 C 
ATOM     13  C   UNL     1       4.732   4.443  16.103  0.00  0.00    +0.000 C 
ATOM     14  C   UNL     1       4.145   5.513  17.376  0.00  0.00    +0.000 C 
ATOM     15  C   UNL     1       3.948   7.019  17.688  0.00  0.00    +0.000 C 
ENDROOT
BRANCH   8  16
ATOM     16  O   UNL     1       0.915   4.323  20.203  0.00  0.00    +0.000 OA
ATOM     17  H   UNL     1       0.546   4.943  19.551  0.00  0.00    +0.000 HD
ENDBRANCH   8  16
BRANCH   1  18
ATOM     18  C   UNL     1       6.163   4.709  14.025  0.00  0.00    +0.000 C 
BRANCH  18  19
ATOM     19  C   UNL     1       6.245   3.301  13.417  0.00  0.00    +0.000 C 
BRANCH  19  21
ATOM     20  C   UNL     1       4.422   3.252  11.623  0.00  0.00    +0.000 C 
ATOM     21  C   UNL     1       5.693   3.444  12.000  0.00  0.00    +0.000 C 
ENDBRANCH  19  21
ENDBRANCH  18  19
ENDBRANCH   1  18
TORSDOF 4
ENDMDL
MODEL 8
REMARK VINA RESULT:      -6.5      2.682      5.618
REMARK  Name = 
REMARK  6 active torsions:
REMARK  status: ('A' for Active; 'I' for Inactive)
REMARK    1  A    between atoms: C_2  and  C_3
REMARK    2  A    between atoms: C_3  and  C_4
REMARK    3  A    between atoms: C_4  and  N_5
REMARK    4  A    between atoms: C_8  and  C_9
REMARK    5  A    between atoms: C_12  and  O_13
REMARK    6  A    between atoms: C_19  and  C_20
REMARK                            x       y       z     vdW  Elec       q    Type
REMARK                         _______ _______ _______ _____ _____    ______ ____
ROOT
ATOM      1  N   UNL     1       4.503   3.040  19.526  0.00  0.00    +0.000 NA
ATOM      2  C   UNL     1       4.524   4.361  20.227  0.00  0.00    +0.000 C 
ATOM      3  C   UNL     1       3.867   5.575  19.288  0.00  0.00    +0.000 C 
ATOM      4  C   UNL     1       4.540   5.811  17.650  0.00  0.00    +0.000 C 
ATOM      5  C   UNL     1       4.162   7.277  17.446  0.00  0.00    +0.000 C 
ATOM      6  C   UNL     1       4.817   5.300  16.156  0.00  0.00    +0.000 A 
ATOM      7  C   UNL     1       5.933   5.942  15.469  0.00  0.00    +0.000 A 
ATOM      8  C   UNL     1       6.769   5.225  14.600  0.00  0.00    +0.000 A 
ATOM      9  C   UNL     1       6.439   3.957  14.149  0.00  0.00    +0.000 A 
ATOM     10  C   UNL     1       5.320   3.336  14.681  0.00  0.00    +0.000 A 
ATOM     11  C   UNL     1       4.613   3.938  15.750  0.00  0.00    +0.000 A 
ATOM     12  C   UNL     1       4.036   2.995  16.780  0.00  0.00    +0.000 C 
ATOM     13  C   UNL     1       4.533   3.531  18.164  0.00  0.00    +0.000 C 
ATOM     14  C   UNL     1       5.665   4.877  18.037  0.00  0.00    +0.000 C 
ATOM     15  C   UNL     1       6.614   5.739  18.910  0.00  0.00    +0.000 C 
ENDROOT
BRANCH   8  16
ATOM     16  O   UNL     1       8.048   5.663  14.357  0.00  0.00    +0.000 OA
ATOM     17  H   UNL     1       8.342   6.172  15.133  0.00  0.00    +0.000 HD
ENDBRANCH   8  16
BRANCH   1  18
ATOM     18  C   UNL     1       3.288   2.377  20.049  0.00  0.00    +0.000 C 
BRANCH  18  19
ATOM     19  C   UNL     1       2.317   2.921  21.107  0.00  0.00    +0.000 C 
BRANCH  19  21
ATOM     20  C   UNL     1       0.726   2.787  19.109  0.00  0.00    +0.000 C 
ATOM     21  C   UNL     1       1.010   3.174  20.360  0.00  0.00    +0.000 C 
ENDBRANCH  19  21
ENDBRANCH  18  19
ENDBRANCH   1  18
TORSDOF 4
ENDMDL
MODEL 9
REMARK VINA RESULT:      -6.3      2.570      4.665
REMARK  Name = 
REMARK  6 active torsions:
REMARK  status: ('A' for Active; 'I' for Inactive)
REMARK    1  A    between atoms: C_2  and  C_3
REMARK    2  A    between atoms: C_3  and  C_4
REMARK    3  A    between atoms: C_4  and  N_5
REMARK    4  A    between atoms: C_8  and  C_9
REMARK    5  A    between atoms: C_12  and  O_13
REMARK    6  A    between atoms: C_19  and  C_20
REMARK                            x       y       z     vdW  Elec       q    Type
REMARK                         _______ _______ _______ _____ _____    ______ ____
ROOT
ATOM      1  N   UNL     1       6.426   5.633  18.108  0.00  0.00    +0.000 NA
ATOM      2  C   UNL     1       6.531   4.327  17.387  0.00  0.00    +0.000 C 
ATOM      3  C   UNL     1       5.131   3.962  16.554  0.00  0.00    +0.000 C 
ATOM      4  C   UNL     1       3.598   3.961  17.471  0.00  0.00    +0.000 C 
ATOM      5  C   UNL     1       2.789   3.020  16.581  0.00  0.00    +0.000 C 
ATOM      6  C   UNL     1       2.467   4.714  18.321  0.00  0.00    +0.000 A 
ATOM      7  C   UNL     1       1.671   3.865  19.202  0.00  0.00    +0.000 A 
ATOM      8  C   UNL     1       1.238   4.313  20.458  0.00  0.00    +0.000 A 
ATOM      9  C   UNL     1       1.314   5.647  20.823  0.00  0.00    +0.000 A 
ATOM     10  C   UNL     1       1.960   6.531  19.973  0.00  0.00    +0.000 A 
ATOM     11  C   UNL     1       2.632   6.050  18.823  0.00  0.00    +0.000 A 
ATOM     12  C   UNL     1       3.905   6.770  18.447  0.00  0.00    +0.000 C 
ATOM     13  C   UNL     1       4.989   5.653  18.287  0.00  0.00    +0.000 C 
ATOM     14  C   UNL     1       4.420   4.046  18.739  0.00  0.00    +0.000 C 
ATOM     15  C   UNL     1       4.943   2.604  18.969  0.00  0.00    +0.000 C 
ENDROOT
BRANCH   8  16
ATOM     16  O   UNL     1       0.943   3.409  21.448  0.00  0.00    +0.000 OA
ATOM     17  H   UNL     1       0.029   3.104  21.311  0.00  0.00    +0.000 HD
ENDBRANCH   8  16
BRANCH   1  18
ATOM     18  C   UNL     1       7.072   6.601  17.194  0.00  0.00    +0.000 C 
BRANCH  18  19
ATOM     19  C   UNL     1       7.129   8.127  17.348  0.00  0.00    +0.000 C 
BRANCH  19  21
ATOM     20  C   UNL     1       8.812   9.596  18.596  0.00  0.00    +0.000 C 
ATOM     21  C   UNL     1       8.320   8.394  18.265  0.00  0.00    +0.000 C 
ENDBRANCH  19  21
ENDBRANCH  18  19
ENDBRANCH   1  18
TORSDOF 4
ENDMDL
