MODEL 1
REMARK VINA RESULT:      -6.9      0.000      0.000
REMARK  Name = 
REMARK  7 active torsions:
REMARK  status: ('A' for Active; 'I' for Inactive)
REMARK    1  A    between atoms: C_1  and  C_2
REMARK    2  A    between atoms: C_2  and  C_3
REMARK    3  A    between atoms: C_2  and  N_4
REMARK    4  A    between atoms: C_6  and  C_7
REMARK    5  A    between atoms: C_7  and  N_8
REMARK    6  A    between atoms: N_8  and  C_9
REMARK    7  A    between atoms: N_14  and  C_15
REMARK                            x       y       z     vdW  Elec       q    Type
REMARK                         _______ _______ _______ _____ _____    ______ ____
ROOT
ATOM      1  N   UNL     1       6.173   3.946  18.624  0.00  0.00    +0.000 N 
ATOM      2  H   UNL     1       6.769   3.506  19.331  0.00  0.00    +0.000 HD
ENDROOT
BRANCH   1   3
ATOM      3  C   UNL     1       4.930   4.271  19.162  0.00  0.00    +0.000 A 
ATOM      4  C   UNL     1       4.307   5.452  19.024  0.00  0.00    +0.000 A 
ATOM      5  C   UNL     1       3.021   5.725  19.612  0.00  0.00    +0.000 A 
ATOM      6 BR   UNL     1       2.274   7.411  19.338  0.00  0.00    +0.000 Br
ATOM      7  C   UNL     1       2.411   4.780  20.337  0.00  0.00    +0.000 A 
ATOM      8  N   UNL     1       2.984   3.534  20.528  0.00  0.00    +0.000 N 
ATOM      9  C   UNL     1       2.301   2.544  21.342  0.00  0.00    +0.000 C 
ATOM     10  C   UNL     1       4.223   3.189  19.980  0.00  0.00    +0.000 A 
ATOM     11  O   UNL     1       4.768   2.096  20.141  0.00  0.00    +0.000 OA
ENDBRANCH   1   3
BRANCH   1  12
ATOM     12  C   UNL     1       6.901   4.803  17.698  0.00  0.00    +0.000 C 
BRANCH  12  15
ATOM     13  N   UNL     1       6.132   4.179  14.178  0.00  0.00    +0.000 N 
ATOM     14  C   UNL     1       6.776   3.799  15.321  0.00  0.00    +0.000 A 
ATOM     15  C   UNL     1       6.456   4.738  16.280  0.00  0.00    +0.000 A 
ATOM     16  C   UNL     1       5.580   5.622  15.615  0.00  0.00    +0.000 A 
ATOM     17  N   UNL     1       5.375   5.282  14.342  0.00  0.00    +0.000 NA
BRANCH  13  19
ATOM     18  C   UNL     1       4.832   3.448  12.210  0.00  0.00    +0.000 C 
ATOM     19  C   UNL     1       6.206   3.524  12.877  0.00  0.00    +0.000 C 
ATOM     20  C   UNL     1       7.224   4.208  11.966  0.00  0.00    +0.000 C 
ENDBRANCH  13  19
ENDBRANCH  12  15
ENDBRANCH   1  12
TORSDOF 4
ENDMDL
MODEL 2
REMARK VINA RESULT:      -6.8      1.160      1.166
REMARK  Name = 
REMARK  7 active torsions:
REMARK  status: ('A' for Active; 'I' for Inactive)
REMARK    1  A    between atoms: C_1  and  C_2
REMARK    2  A    between atoms: C_2  and  C_3
REMARK    3  A    between atoms: C_2  and  N_4
REMARK    4  A    between atoms: C_6  and  C_7
REMARK    5  A    between atoms: C_7  and  N_8
REMARK    6  A    between atoms: N_8  and  C_9
REMARK    7  A    between atoms: N_14  and  C_15
REMARK                            x       y       z     vdW  Elec       q    Type
REMARK                         _______ _______ _______ _____ _____    ______ ____
ROOT
ATOM      1  N   UNL     1       5.685   3.878  18.880  0.00  0.00    +0.000 N 
ATOM      2  H   UNL     1       6.094   3.379  19.675  0.00  0.00    +0.000 HD
ENDROOT
BRANCH   1   3
ATOM      3  C   UNL     1       4.342   4.160  19.116  0.00  0.00    +0.000 A 
ATOM      4  C   UNL     1       3.857   5.334  19.550  0.00  0.00    +0.000 A 
ATOM      5  C   UNL     1       2.453   5.558  19.779  0.00  0.00    +0.000 A 
ATOM      6 BR   UNL     1       1.923   7.240  20.382  0.00  0.00    +0.000 Br
ATOM      7  C   UNL     1       1.582   4.565  19.565  0.00  0.00    +0.000 A 
ATOM      8  N   UNL     1       1.997   3.323  19.115  0.00  0.00    +0.000 N 
ATOM      9  C   UNL     1       1.023   2.265  18.920  0.00  0.00    +0.000 C 
ATOM     10  C   UNL     1       3.341   3.032  18.859  0.00  0.00    +0.000 A 
ATOM     11  O   UNL     1       3.746   1.935  18.473  0.00  0.00    +0.000 OA
ENDBRANCH   1   3
BRANCH   1  12
ATOM     12  C   UNL     1       6.605   4.808  18.239  0.00  0.00    +0.000 C 
BRANCH  12  15
ATOM     13  N   UNL     1       6.554   4.615  14.588  0.00  0.00    +0.000 N 
ATOM     14  C   UNL     1       6.906   4.059  15.785  0.00  0.00    +0.000 A 
ATOM     15  C   UNL     1       6.469   4.929  16.763  0.00  0.00    +0.000 A 
ATOM     16  C   UNL     1       5.832   5.962  16.042  0.00  0.00    +0.000 A 
ATOM     17  N   UNL     1       5.876   5.771  14.724  0.00  0.00    +0.000 NA
BRANCH  13  19
ATOM     18  C   UNL     1       5.585   3.568  12.573  0.00  0.00    +0.000 C 
ATOM     19  C   UNL     1       6.848   4.085  13.261  0.00  0.00    +0.000 C 
ATOM     20  C   UNL     1       7.565   5.119  12.394  0.00  0.00    +0.000 C 
ENDBRANCH  13  19
ENDBRANCH  12  15
ENDBRANCH   1  12
TORSDOF 4
ENDMDL
MODEL 3
REMARK VINA RESULT:      -6.7      1.395      1.791
REMARK  Name = 
REMARK  7 active torsions:
REMARK  status: ('A' for Active; 'I' for Inactive)
REMARK    1  A    between atoms: C_1  and  C_2
REMARK    2  A    between atoms: C_2  and  C_3
REMARK    3  A    between atoms: C_2  and  N_4
REMARK    4  A    between atoms: C_6  and  C_7
REMARK    5  A    between atoms: C_7  and  N_8
REMARK    6  A    between atoms: N_8  and  C_9
REMARK    7  A    between atoms: N_14  and  C_15
REMARK                            x       y       z     vdW  Elec       q    Type
REMARK                         _______ _______ _______ _____ _____    ______ ____
ROOT
ATOM      1  N   UNL     1       5.291   3.849  16.997  0.00  0.00    +0.000 N 
ATOM      2  H   UNL     1       5.538   2.948  17.415  0.00  0.00    +0.000 HD
ENDROOT
BRANCH   1   3
ATOM      3  C   UNL     1       4.354   4.515  17.783  0.00  0.00    +0.000 A 
ATOM      4  C   UNL     1       3.895   5.757  17.564  0.00  0.00    +0.000 A 
ATOM      5  C   UNL     1       2.927   6.391  18.421  0.00  0.00    +0.000 A 
ATOM      6 BR   UNL     1       2.380   8.121  17.994  0.00  0.00    +0.000 Br
ATOM      7  C   UNL     1       2.461   5.734  19.490  0.00  0.00    +0.000 A 
ATOM      8  N   UNL     1       2.880   4.449  19.789  0.00  0.00    +0.000 N 
ATOM      9  C   UNL     1       2.369   3.781  20.972  0.00  0.00    +0.000 C 
ATOM     10  C   UNL     1       3.808   3.763  18.999  0.00  0.00    +0.000 A 
ATOM     11  O   UNL     1       4.214   2.626  19.243  0.00  0.00    +0.000 OA
ENDBRANCH   1   3
BRANCH   1  12
ATOM     12  C   UNL     1       6.406   4.511  16.335  0.00  0.00    +0.000 C 
BRANCH  12  15
ATOM     13  N   UNL     1       6.117   3.742  12.772  0.00  0.00    +0.000 N 
ATOM     14  C   UNL     1       5.629   3.611  14.041  0.00  0.00    +0.000 A 
ATOM     15  C   UNL     1       6.476   4.331  14.860  0.00  0.00    +0.000 A 
ATOM     16  C   UNL     1       7.421   4.887  13.972  0.00  0.00    +0.000 A 
ATOM     17  N   UNL     1       7.202   4.537  12.704  0.00  0.00    +0.000 NA
BRANCH  13  19
ATOM     18  C   UNL     1       5.964   1.637  11.490  0.00  0.00    +0.000 C 
ATOM     19  C   UNL     1       5.586   3.116  11.566  0.00  0.00    +0.000 C 
ATOM     20  C   UNL     1       4.072   3.303  11.462  0.00  0.00    +0.000 C 
ENDBRANCH  13  19
ENDBRANCH  12  15
ENDBRANCH   1  12
TORSDOF 4
ENDMDL
MODEL 4
REMARK VINA RESULT:      -6.5      1.396      1.637
REMARK  Name = 
REMARK  7 active torsions:
REMARK  status: ('A' for Active; 'I' for Inactive)
REMARK    1  A    between atoms: C_1  and  C_2
REMARK    2  A    between atoms: C_2  and  C_3
REMARK    3  A    between atoms: C_2  and  N_4
REMARK    4  A    between atoms: C_6  and  C_7
REMARK    5  A    between atoms: C_7  and  N_8
REMARK    6  A    between atoms: N_8  and  C_9
REMARK    7  A    between atoms: N_14  and  C_15
REMARK                            x       y       z     vdW  Elec       q    Type
REMARK                         _______ _______ _______ _____ _____    ______ ____
ROOT
ATOM      1  N   UNL     1       5.428   4.596  17.387  0.00  0.00    +0.000 N 
ATOM      2  H   UNL     1       5.882   3.884  17.966  0.00  0.00    +0.000 HD
ENDROOT
BRANCH   1   3
ATOM      3  C   UNL     1       4.392   5.211  18.087  0.00  0.00    +0.000 A 
ATOM      4  C   UNL     1       3.846   6.399  17.784  0.00  0.00    +0.000 A 
ATOM      5  C   UNL     1       2.778   6.982  18.553  0.00  0.00    +0.000 A 
ATOM      6 BR   UNL     1       2.116   8.640  18.015  0.00  0.00    +0.000 Br
ATOM      7  C   UNL     1       2.303   6.333  19.623  0.00  0.00    +0.000 A 
ATOM      8  N   UNL     1       2.809   5.102  20.004  0.00  0.00    +0.000 N 
ATOM      9  C   UNL     1       2.283   4.443  21.186  0.00  0.00    +0.000 C 
ATOM     10  C   UNL     1       3.837   4.466  19.302  0.00  0.00    +0.000 A 
ATOM     11  O   UNL     1       4.320   3.379  19.622  0.00  0.00    +0.000 OA
ENDBRANCH   1   3
BRANCH   1  12
ATOM     12  C   UNL     1       6.348   5.310  16.513  0.00  0.00    +0.000 C 
BRANCH  12  15
ATOM     13  N   UNL     1       6.164   3.689  13.241  0.00  0.00    +0.000 N 
ATOM     14  C   UNL     1       5.671   3.830  14.507  0.00  0.00    +0.000 A 
ATOM     15  C   UNL     1       6.450   4.787  15.125  0.00  0.00    +0.000 A 
ATOM     16  C   UNL     1       7.362   5.185  14.123  0.00  0.00    +0.000 A 
ATOM     17  N   UNL     1       7.186   4.526  12.978  0.00  0.00    +0.000 NA
BRANCH  13  19
ATOM     18  C   UNL     1       4.512   3.323  11.442  0.00  0.00    +0.000 C 
ATOM     19  C   UNL     1       5.697   2.754  12.224  0.00  0.00    +0.000 C 
ATOM     20  C   UNL     1       6.829   2.342  11.284  0.00  0.00    +0.000 C 
ENDBRANCH  13  19
ENDBRANCH  12  15
ENDBRANCH   1  12
TORSDOF 4
ENDMDL
MODEL 5
REMARK VINA RESULT:      -6.5      1.443      1.505
REMARK  Name = 
REMARK  7 active torsions:
REMARK  status: ('A' for Active; 'I' for Inactive)
REMARK    1  A    between atoms: C_1  and  C_2
REMARK    2  A    between atoms: C_2  and  C_3
REMARK    3  A    between atoms: C_2  and  N_4
REMARK    4  A    between atoms: C_6  and  C_7
REMARK    5  A    between atoms: C_7  and  N_8
REMARK    6  A    between atoms: N_8  and  C_9
REMARK    7  A    between atoms: N_14  and  C_15
REMARK                            x       y       z     vdW  Elec       q    Type
REMARK                         _______ _______ _______ _____ _____    ______ ____
ROOT
ATOM      1  N   UNL     1       5.750   3.955  17.749  0.00  0.00    +0.000 N 
ATOM      2  H   UNL     1       6.301   3.488  18.474  0.00  0.00    +0.000 HD
ENDROOT
BRANCH   1   3
ATOM      3  C   UNL     1       4.464   4.229  18.209  0.00  0.00    +0.000 A 
ATOM      4  C   UNL     1       4.032   5.420  18.652  0.00  0.00    +0.000 A 
ATOM      5  C   UNL     1       2.687   5.635  19.120  0.00  0.00    +0.000 A 
ATOM      6 BR   UNL     1       2.227   7.343  19.706  0.00  0.00    +0.000 Br
ATOM      7  C   UNL     1       1.820   4.615  19.130  0.00  0.00    +0.000 A 
ATOM      8  N   UNL     1       2.183   3.354  18.688  0.00  0.00    +0.000 N 
ATOM      9  C   UNL     1       1.220   2.269  18.739  0.00  0.00    +0.000 C 
ATOM     10  C   UNL     1       3.465   3.070  18.209  0.00  0.00    +0.000 A 
ATOM     11  O   UNL     1       3.826   1.957  17.823  0.00  0.00    +0.000 OA
ENDBRANCH   1   3
BRANCH   1  12
ATOM     12  C   UNL     1       6.525   4.874  16.928  0.00  0.00    +0.000 C 
BRANCH  12  15
ATOM     13  N   UNL     1       6.225   3.705  13.476  0.00  0.00    +0.000 N 
ATOM     14  C   UNL     1       5.859   3.590  14.787  0.00  0.00    +0.000 A 
ATOM     15  C   UNL     1       6.551   4.568  15.472  0.00  0.00    +0.000 A 
ATOM     16  C   UNL     1       7.278   5.241  14.467  0.00  0.00    +0.000 A 
ATOM     17  N   UNL     1       7.077   4.725  13.254  0.00  0.00    +0.000 NA
BRANCH  13  19
ATOM     18  C   UNL     1       4.574   3.439  11.659  0.00  0.00    +0.000 C 
ATOM     19  C   UNL     1       5.792   2.854  12.374  0.00  0.00    +0.000 C 
ATOM     20  C   UNL     1       6.934   2.591  11.391  0.00  0.00    +0.000 C 
ENDBRANCH  13  19
ENDBRANCH  12  15
ENDBRANCH   1  12
TORSDOF 4
ENDMDL
MODEL 6
REMARK VINA RESULT:      -6.5      1.191      1.423
REMARK  Name = 
REMARK  7 active torsions:
REMARK  status: ('A' for Active; 'I' for Inactive)
REMARK    1  A    between atoms: C_1  and  C_2
REMARK    2  A    between atoms: C_2  and  C_3
REMARK    3  A    between atoms: C_2  and  N_4
REMARK    4  A    between atoms: C_6  and  C_7
REMARK    5  A    between atoms: C_7  and  N_8
REMARK    6  A    between atoms: N_8  and  C_9
REMARK    7  A    between atoms: N_14  and  C_15
REMARK                            x       y       z     vdW  Elec       q    Type
REMARK                         _______ _______ _______ _____ _____    ______ ____
ROOT
ATOM      1  N   UNL     1       4.914   4.097  18.215  0.00  0.00    +0.000 N 
ATOM      2  H   UNL     1       5.745   4.671  18.386  0.00  0.00    +0.000 HD
ENDROOT
BRANCH   1   3
ATOM      3  C   UNL     1       3.878   4.466  19.070  0.00  0.00    +0.000 A 
ATOM      4  C   UNL     1       3.387   5.708  19.206  0.00  0.00    +0.000 A 
ATOM      5  C   UNL     1       2.315   6.024  20.114  0.00  0.00    +0.000 A 
ATOM      6 BR   UNL     1       1.734   7.793  20.200  0.00  0.00    +0.000 Br
ATOM      7  C   UNL     1       1.780   5.056  20.867  0.00  0.00    +0.000 A 
ATOM      8  N   UNL     1       2.226   3.748  20.787  0.00  0.00    +0.000 N 
ATOM      9  C   UNL     1       1.635   2.732  21.640  0.00  0.00    +0.000 C 
ATOM     10  C   UNL     1       3.254   3.361  19.922  0.00  0.00    +0.000 A 
ATOM     11  O   UNL     1       3.685   2.210  19.836  0.00  0.00    +0.000 OA
ENDBRANCH   1   3
BRANCH   1  12
ATOM     12  C   UNL     1       4.721   3.752  16.814  0.00  0.00    +0.000 C 
BRANCH  12  15
ATOM     13  N   UNL     1       7.064   4.610  14.141  0.00  0.00    +0.000 N 
ATOM     14  C   UNL     1       5.975   3.900  14.560  0.00  0.00    +0.000 A 
ATOM     15  C   UNL     1       5.770   4.244  15.881  0.00  0.00    +0.000 A 
ATOM     16  C   UNL     1       6.774   5.199  16.147  0.00  0.00    +0.000 A 
ATOM     17  N   UNL     1       7.556   5.429  15.092  0.00  0.00    +0.000 NA
BRANCH  13  19
ATOM     18  C   UNL     1       6.814   3.804  11.821  0.00  0.00    +0.000 C 
ATOM     19  C   UNL     1       7.695   4.543  12.828  0.00  0.00    +0.000 C 
ATOM     20  C   UNL     1       8.067   5.935  12.317  0.00  0.00    +0.000 C 
ENDBRANCH  13  19
ENDBRANCH  12  15
ENDBRANCH   1  12
TORSDOF 4
ENDMDL
MODEL 7
REMARK VINA RESULT:      -6.5      2.973      6.249
REMARK  Name = 
REMARK  7 active torsions:
REMARK  status: ('A' for Active; 'I' for Inactive)
REMARK    1  A    between atoms: C_1  and  C_2
REMARK    2  A    between atoms: C_2  and  C_3
REMARK    3  A    between atoms: C_2  and  N_4
REMARK    4  A    between atoms: C_6  and  C_7
REMARK    5  A    between atoms: C_7  and  N_8
REMARK    6  A    between atoms: N_8  and  C_9
REMARK    7  A    between atoms: N_14  and  C_15
REMARK                            x       y       z     vdW  Elec       q    Type
REMARK                         _______ _______ _______ _____ _____    ______ ____
ROOT
ATOM      1  N   UNL     1       4.351   3.123  18.503  0.00  0.00    +0.000 N 
ATOM      2  H   UNL     1       4.583   2.128  18.438  0.00  0.00    +0.000 HD
ENDROOT
BRANCH   1   3
ATOM      3  C   UNL     1       5.235   3.885  17.744  0.00  0.00    +0.000 A 
ATOM      4  C   UNL     1       5.387   3.805  16.413  0.00  0.00    +0.000 A 
ATOM      5  C   UNL     1       6.326   4.621  15.687  0.00  0.00    +0.000 A 
ATOM      6 BR   UNL     1       6.430   4.403  13.839  0.00  0.00    +0.000 Br
ATOM      7  C   UNL     1       7.095   5.493  16.351  0.00  0.00    +0.000 A 
ATOM      8  N   UNL     1       7.001   5.640  17.724  0.00  0.00    +0.000 N 
ATOM      9  C   UNL     1       7.870   6.580  18.409  0.00  0.00    +0.000 C 
ATOM     10  C   UNL     1       6.106   4.893  18.496  0.00  0.00    +0.000 A 
ATOM     11  O   UNL     1       6.007   4.988  19.721  0.00  0.00    +0.000 OA
ENDBRANCH   1   3
BRANCH   1  12
ATOM     12  C   UNL     1       2.920   3.385  18.580  0.00  0.00    +0.000 C 
BRANCH  12  15
ATOM     13  N   UNL     1       2.130   6.832  19.508  0.00  0.00    +0.000 N 
ATOM     14  C   UNL     1       2.559   5.943  18.565  0.00  0.00    +0.000 A 
ATOM     15  C   UNL     1       2.539   4.699  19.163  0.00  0.00    +0.000 A 
ATOM     16  C   UNL     1       2.043   4.951  20.460  0.00  0.00    +0.000 A 
ATOM     17  N   UNL     1       1.788   6.242  20.671  0.00  0.00    +0.000 NA
BRANCH  13  19
ATOM     18  C   UNL     1       1.675   8.671  17.924  0.00  0.00    +0.000 C 
ATOM     19  C   UNL     1       2.029   8.279  19.359  0.00  0.00    +0.000 C 
ATOM     20  C   UNL     1       1.033   8.874  20.354  0.00  0.00    +0.000 C 
ENDBRANCH  13  19
ENDBRANCH  12  15
ENDBRANCH   1  12
TORSDOF 4
ENDMDL
MODEL 8
REMARK VINA RESULT:      -6.4      1.373      1.520
REMARK  Name = 
REMARK  7 active torsions:
REMARK  status: ('A' for Active; 'I' for Inactive)
REMARK    1  A    between atoms: C_1  and  C_2
REMARK    2  A    between atoms: C_2  and  C_3
REMARK    3  A    between atoms: C_2  and  N_4
REMARK    4  A    between atoms: C_6  and  C_7
REMARK    5  A    between atoms: C_7  and  N_8
REMARK    6  A    between atoms: N_8  and  C_9
REMARK    7  A    between atoms: N_14  and  C_15
REMARK                            x       y       z     vdW  Elec       q    Type
REMARK                         _______ _______ _______ _____ _____    ______ ____
ROOT
ATOM      1  N   UNL     1       3.904   4.596  17.461  0.00  0.00    +0.000 N 
ATOM      2  H   UNL     1       4.333   3.668  17.446  0.00  0.00    +0.000 HD
ENDROOT
BRANCH   1   3
ATOM      3  C   UNL     1       3.168   4.779  18.629  0.00  0.00    +0.000 A 
ATOM      4  C   UNL     1       2.717   5.956  19.089  0.00  0.00    +0.000 A 
ATOM      5  C   UNL     1       1.964   6.077  20.311  0.00  0.00    +0.000 A 
ATOM      6 BR   UNL     1       1.401   7.777  20.828  0.00  0.00    +0.000 Br
ATOM      7  C   UNL     1       1.701   4.983  21.036  0.00  0.00    +0.000 A 
ATOM      8  N   UNL     1       2.128   3.729  20.633  0.00  0.00    +0.000 N 
ATOM      9  C   UNL     1       1.843   2.571  21.460  0.00  0.00    +0.000 C 
ATOM     10  C   UNL     1       2.853   3.530  19.454  0.00  0.00    +0.000 A 
ATOM     11  O   UNL     1       3.261   2.431  19.073  0.00  0.00    +0.000 OA
ENDBRANCH   1   3
BRANCH   1  12
ATOM     12  C   UNL     1       4.731   5.632  16.858  0.00  0.00    +0.000 C 
BRANCH  12  15
ATOM     13  N   UNL     1       6.376   4.312  13.871  0.00  0.00    +0.000 N 
ATOM     14  C   UNL     1       5.233   4.485  14.598  0.00  0.00    +0.000 A 
ATOM     15  C   UNL     1       5.592   5.189  15.729  0.00  0.00    +0.000 A 
ATOM     16  C   UNL     1       6.974   5.422  15.562  0.00  0.00    +0.000 A 
ATOM     17  N   UNL     1       7.451   4.898  14.433  0.00  0.00    +0.000 NA
BRANCH  13  19
ATOM     18  C   UNL     1       5.141   3.222  12.032  0.00  0.00    +0.000 C 
ATOM     19  C   UNL     1       6.507   3.581  12.616  0.00  0.00    +0.000 C 
ATOM     20  C   UNL     1       7.351   4.356  11.605  0.00  0.00    +0.000 C 
ENDBRANCH  13  19
ENDBRANCH  12  15
ENDBRANCH   1  12
TORSDOF 4
ENDMDL
MODEL 9
REMARK VINA RESULT:      -6.4      2.065      2.541
REMARK  Name = 
REMARK  7 active torsions:
REMARK  status: ('A' for Active; 'I' for Inactive)
REMARK    1  A    between atoms: C_1  and  C_2
REMARK    2  A    between atoms: C_2  and  C_3
REMARK    3  A    between atoms: C_2  and  N_4
REMARK    4  A    between atoms: C_6  and  C_7
REMARK    5  A    between atoms: C_7  and  N_8
REMARK    6  A    between atoms: N_8  and  C_9
REMARK    7  A    between atoms: N_14  and  C_15
REMARK                            x       y       z     vdW  Elec       q    Type
REMARK                         _______ _______ _______ _____ _____    ______ ____
ROOT
ATOM      1  N   UNL     1       4.575   3.682  17.758  0.00  0.00    +0.000 N 
ATOM      2  H   UNL     1       4.506   2.669  17.629  0.00  0.00    +0.000 HD
ENDROOT
BRANCH   1   3
ATOM      3  C   UNL     1       3.701   4.112  18.754  0.00  0.00    +0.000 A 
ATOM      4  C   UNL     1       3.128   3.326  19.679  0.00  0.00    +0.000 A 
ATOM      5  C   UNL     1       2.228   3.834  20.682  0.00  0.00    +0.000 A 
ATOM      6 BR   UNL     1       1.507   2.625  21.904  0.00  0.00    +0.000 Br
ATOM      7  C   UNL     1       1.930   5.138  20.701  0.00  0.00    +0.000 A 
ATOM      8  N   UNL     1       2.477   6.019  19.785  0.00  0.00    +0.000 N 
ATOM      9  C   UNL     1       2.109   7.423  19.825  0.00  0.00    +0.000 C 
ATOM     10  C   UNL     1       3.368   5.604  18.790  0.00  0.00    +0.000 A 
ATOM     11  O   UNL     1       3.862   6.358  17.950  0.00  0.00    +0.000 OA
ENDBRANCH   1   3
BRANCH   1  12
ATOM     12  C   UNL     1       5.925   4.202  17.589  0.00  0.00    +0.000 C 
BRANCH  12  15
ATOM     13  N   UNL     1       6.696   4.200  14.015  0.00  0.00    +0.000 N 
ATOM     14  C   UNL     1       6.018   3.652  15.067  0.00  0.00    +0.000 A 
ATOM     15  C   UNL     1       6.371   4.384  16.182  0.00  0.00    +0.000 A 
ATOM     16  C   UNL     1       7.241   5.376  15.680  0.00  0.00    +0.000 A 
ATOM     17  N   UNL     1       7.434   5.271  14.365  0.00  0.00    +0.000 NA
BRANCH  13  19
ATOM     18  C   UNL     1       5.267   3.395  12.169  0.00  0.00    +0.000 C 
ATOM     19  C   UNL     1       6.684   3.734  12.633  0.00  0.00    +0.000 C 
ATOM     20  C   UNL     1       7.342   4.747  11.697  0.00  0.00    +0.000 C 
ENDBRANCH  13  19
ENDBRANCH  12  15
ENDBRANCH   1  12
TORSDOF 4
ENDMDL
