MODEL 1
REMARK VINA RESULT:      -9.6      0.000      0.000
REMARK  Name = 
REMARK  6 active torsions:
REMARK  status: ('A' for Active; 'I' for Inactive)
REMARK    1  A    between atoms: C_1  and  N_2
REMARK    2  A    between atoms: C_4  and  C_5
REMARK    3  A    between atoms: C_8  and  N_9
REMARK    4  A    between atoms: C_10  and  C_12
REMARK    5  A    between atoms: C_12  and  C_13
REMARK    6  A    between atoms: C_17  and  C_18
REMARK                            x       y       z     vdW  Elec       q    Type
REMARK                         _______ _______ _______ _____ _____    ______ ____
ROOT
ATOM      1  C   UNL     1       1.149   9.263  19.576  0.00  0.00    +0.000 A 
ATOM      2  C   UNL     1       1.741   9.299  18.314  0.00  0.00    +0.000 A 
ATOM      3  C   UNL     1       2.412   8.184  17.813  0.00  0.00    +0.000 A 
ATOM      4  C   UNL     1       2.540   7.020  18.573  0.00  0.00    +0.000 A 
ATOM      5  C   UNL     1       2.030   7.023  19.883  0.00  0.00    +0.000 A 
ATOM      6 CL   UNL     1       2.149   5.620  20.892  0.00  0.00    +0.000 Cl
ATOM      7  C   UNL     1       1.343   8.136  20.383  0.00  0.00    +0.000 A 
ENDROOT
BRANCH   1  11
ATOM      8  C   UNL     1      -0.679  12.658  22.465  0.00  0.00    +0.000 C 
ATOM      9  N   UNL     1      -0.541  11.834  21.290  0.00  0.00    +0.000 N 
ATOM     10  N   UNL     1       0.474  10.950  21.199  0.00  0.00    +0.000 NA
ATOM     11  C   UNL     1       0.272  10.345  20.014  0.00  0.00    +0.000 A 
ATOM     12  C   UNL     1      -0.901  10.846  19.362  0.00  0.00    +0.000 A 
ATOM     13  C   UNL     1      -1.644  10.616  18.193  0.00  0.00    +0.000 A 
ATOM     14  N   UNL     1      -1.345   9.675  17.219  0.00  0.00    +0.000 N 
ATOM     15  N   UNL     1      -2.758  11.347  17.981  0.00  0.00    +0.000 NA
ATOM     16  C   UNL     1      -3.119  12.256  18.906  0.00  0.00    +0.000 A 
ATOM     17  N   UNL     1      -2.501  12.553  20.059  0.00  0.00    +0.000 NA
ATOM     18  C   UNL     1      -1.394  11.809  20.225  0.00  0.00    +0.000 A 
ATOM     19  H   UNL     1      -0.915   8.822  17.554  0.00  0.00    +0.000 HD
ATOM     20  H   UNL     1      -2.128   9.542  16.590  0.00  0.00    +0.000 HD
ENDBRANCH   1  11
BRANCH   4  21
ATOM     21  N   UNL     1       3.171   5.863  18.050  0.00  0.00    +0.000 N 
ATOM     22  C   UNL     1       2.515   4.705  17.657  0.00  0.00    +0.000 C 
ATOM     23  O   UNL     1       1.314   4.483  17.762  0.00  0.00    +0.000 OA
ATOM     24  H   UNL     1       4.184   5.843  18.120  0.00  0.00    +0.000 HD
BRANCH  22  25
ATOM     25  C   UNL     1       3.427   3.638  17.091  0.00  0.00    +0.000 C 
BRANCH  25  26
ATOM     26  C   UNL     1       4.831   4.134  16.854  0.00  0.00    +0.000 A 
ATOM     27  C   UNL     1       5.390   4.065  15.573  0.00  0.00    +0.000 A 
ATOM     28  C   UNL     1       6.705   4.466  15.353  0.00  0.00    +0.000 A 
ATOM     29  C   UNL     1       7.478   4.944  16.411  0.00  0.00    +0.000 A 
ATOM     30  C   UNL     1       6.939   5.040  17.702  0.00  0.00    +0.000 A 
ATOM     31  C   UNL     1       5.609   4.639  17.911  0.00  0.00    +0.000 A 
BRANCH  30  32
ATOM     32  C   UNL     1       7.774   5.551  18.853  0.00  0.00    +0.000 C 
ATOM     33  F   UNL     1       7.094   5.606  20.034  0.00  0.00    +0.000 F 
ATOM     34  F   UNL     1       8.870   4.779  19.093  0.00  0.00    +0.000 F 
ATOM     35  F   UNL     1       8.242   6.813  18.639  0.00  0.00    +0.000 F 
ENDBRANCH  30  32
ENDBRANCH  25  26
ENDBRANCH  22  25
ENDBRANCH   4  21
TORSDOF 5
ENDMDL
MODEL 2
REMARK VINA RESULT:      -9.6      3.431      4.459
REMARK  Name = 
REMARK  6 active torsions:
REMARK  status: ('A' for Active; 'I' for Inactive)
REMARK    1  A    between atoms: C_1  and  N_2
REMARK    2  A    between atoms: C_4  and  C_5
REMARK    3  A    between atoms: C_8  and  N_9
REMARK    4  A    between atoms: C_10  and  C_12
REMARK    5  A    between atoms: C_12  and  C_13
REMARK    6  A    between atoms: C_17  and  C_18
REMARK                            x       y       z     vdW  Elec       q    Type
REMARK                         _______ _______ _______ _____ _____    ______ ____
ROOT
ATOM      1  C   UNL     1       1.709   8.578  18.997  0.00  0.00    +0.000 A 
ATOM      2  C   UNL     1       2.434   8.799  17.826  0.00  0.00    +0.000 A 
ATOM      3  C   UNL     1       3.290   7.820  17.325  0.00  0.00    +0.000 A 
ATOM      4  C   UNL     1       3.473   6.611  17.999  0.00  0.00    +0.000 A 
ATOM      5  C   UNL     1       2.819   6.431  19.231  0.00  0.00    +0.000 A 
ATOM      6 CL   UNL     1       2.993   4.962  20.130  0.00  0.00    +0.000 Cl
ATOM      7  C   UNL     1       1.947   7.407  19.728  0.00  0.00    +0.000 A 
ENDROOT
BRANCH   1  11
ATOM      8  C   UNL     1      -1.813  11.836  18.563  0.00  0.00    +0.000 C 
ATOM      9  N   UNL     1      -0.883  10.951  19.219  0.00  0.00    +0.000 N 
ATOM     10  N   UNL     1      -0.080  10.151  18.488  0.00  0.00    +0.000 NA
ATOM     11  C   UNL     1       0.662   9.507  19.408  0.00  0.00    +0.000 A 
ATOM     12  C   UNL     1       0.330   9.927  20.737  0.00  0.00    +0.000 A 
ATOM     13  C   UNL     1       0.741   9.689  22.058  0.00  0.00    +0.000 A 
ATOM     14  N   UNL     1       1.753   8.822  22.443  0.00  0.00    +0.000 N 
ATOM     15  N   UNL     1       0.130  10.359  23.056  0.00  0.00    +0.000 NA
ATOM     16  C   UNL     1      -0.840  11.239  22.744  0.00  0.00    +0.000 A 
ATOM     17  N   UNL     1      -1.307  11.557  21.527  0.00  0.00    +0.000 NA
ATOM     18  C   UNL     1      -0.676  10.861  20.565  0.00  0.00    +0.000 A 
ATOM     19  H   UNL     1       2.528   8.741  21.797  0.00  0.00    +0.000 HD
ATOM     20  H   UNL     1       2.016   8.977  23.410  0.00  0.00    +0.000 HD
ENDBRANCH   1  11
BRANCH   4  21
ATOM     21  N   UNL     1       4.297   5.587  17.468  0.00  0.00    +0.000 N 
ATOM     22  C   UNL     1       5.412   5.795  16.666  0.00  0.00    +0.000 C 
ATOM     23  O   UNL     1       5.809   6.876  16.247  0.00  0.00    +0.000 OA
ATOM     24  H   UNL     1       3.943   4.640  17.563  0.00  0.00    +0.000 HD
BRANCH  22  25
ATOM     25  C   UNL     1       6.138   4.526  16.275  0.00  0.00    +0.000 C 
BRANCH  25  26
ATOM     26  C   UNL     1       6.394   4.433  14.792  0.00  0.00    +0.000 A 
ATOM     27  C   UNL     1       7.560   4.984  14.248  0.00  0.00    +0.000 A 
ATOM     28  C   UNL     1       7.780   4.956  12.873  0.00  0.00    +0.000 A 
ATOM     29  C   UNL     1       6.838   4.375  12.025  0.00  0.00    +0.000 A 
ATOM     30  C   UNL     1       5.668   3.801  12.543  0.00  0.00    +0.000 A 
ATOM     31  C   UNL     1       5.459   3.829  13.933  0.00  0.00    +0.000 A 
BRANCH  30  32
ATOM     32  C   UNL     1       4.641   3.176  11.628  0.00  0.00    +0.000 C 
ATOM     33  F   UNL     1       4.342   3.947  10.544  0.00  0.00    +0.000 F 
ATOM     34  F   UNL     1       5.043   1.975  11.127  0.00  0.00    +0.000 F 
ATOM     35  F   UNL     1       3.454   2.944  12.254  0.00  0.00    +0.000 F 
ENDBRANCH  30  32
ENDBRANCH  25  26
ENDBRANCH  22  25
ENDBRANCH   4  21
TORSDOF 5
ENDMDL
MODEL 3
REMARK VINA RESULT:      -9.6      2.665      3.090
REMARK  Name = 
REMARK  6 active torsions:
REMARK  status: ('A' for Active; 'I' for Inactive)
REMARK    1  A    between atoms: C_1  and  N_2
REMARK    2  A    between atoms: C_4  and  C_5
REMARK    3  A    between atoms: C_8  and  N_9
REMARK    4  A    between atoms: C_10  and  C_12
REMARK    5  A    between atoms: C_12  and  C_13
REMARK    6  A    between atoms: C_17  and  C_18
REMARK                            x       y       z     vdW  Elec       q    Type
REMARK                         _______ _______ _______ _____ _____    ______ ____
ROOT
ATOM      1  C   UNL     1       1.238   9.039  19.579  0.00  0.00    +0.000 A 
ATOM      2  C   UNL     1       1.895   9.139  18.353  0.00  0.00    +0.000 A 
ATOM      3  C   UNL     1       2.558   8.038  17.811  0.00  0.00    +0.000 A 
ATOM      4  C   UNL     1       2.613   6.823  18.496  0.00  0.00    +0.000 A 
ATOM      5  C   UNL     1       2.037   6.755  19.776  0.00  0.00    +0.000 A 
ATOM      6 CL   UNL     1       2.063   5.286  20.692  0.00  0.00    +0.000 Cl
ATOM      7  C   UNL     1       1.358   7.854  20.316  0.00  0.00    +0.000 A 
ENDROOT
BRANCH   1  11
ATOM      8  C   UNL     1      -0.621  12.305  22.592  0.00  0.00    +0.000 C 
ATOM      9  N   UNL     1      -0.455  11.550  21.376  0.00  0.00    +0.000 N 
ATOM     10  N   UNL     1       0.540  10.644  21.273  0.00  0.00    +0.000 NA
ATOM     11  C   UNL     1       0.373  10.117  20.046  0.00  0.00    +0.000 A 
ATOM     12  C   UNL     1      -0.759  10.689  19.379  0.00  0.00    +0.000 A 
ATOM     13  C   UNL     1      -1.457  10.551  18.169  0.00  0.00    +0.000 A 
ATOM     14  N   UNL     1      -1.142   9.661  17.153  0.00  0.00    +0.000 N 
ATOM     15  N   UNL     1      -2.542  11.324  17.957  0.00  0.00    +0.000 NA
ATOM     16  C   UNL     1      -2.918  12.187  18.919  0.00  0.00    +0.000 A 
ATOM     17  N   UNL     1      -2.342  12.397  20.113  0.00  0.00    +0.000 NA
ATOM     18  C   UNL     1      -1.262  11.612  20.278  0.00  0.00    +0.000 A 
ATOM     19  H   UNL     1      -0.749   8.778  17.452  0.00  0.00    +0.000 HD
ATOM     20  H   UNL     1      -1.901   9.588  16.485  0.00  0.00    +0.000 HD
ENDBRANCH   1  11
BRANCH   4  21
ATOM     21  N   UNL     1       3.236   5.683  17.927  0.00  0.00    +0.000 N 
ATOM     22  C   UNL     1       4.445   5.143  18.343  0.00  0.00    +0.000 C 
ATOM     23  O   UNL     1       5.181   5.600  19.211  0.00  0.00    +0.000 OA
ATOM     24  H   UNL     1       2.832   5.347  17.058  0.00  0.00    +0.000 HD
BRANCH  22  25
ATOM     25  C   UNL     1       4.858   3.896  17.591  0.00  0.00    +0.000 C 
BRANCH  25  26
ATOM     26  C   UNL     1       5.719   4.195  16.391  0.00  0.00    +0.000 A 
ATOM     27  C   UNL     1       6.853   5.003  16.530  0.00  0.00    +0.000 A 
ATOM     28  C   UNL     1       7.625   5.335  15.419  0.00  0.00    +0.000 A 
ATOM     29  C   UNL     1       7.273   4.861  14.155  0.00  0.00    +0.000 A 
ATOM     30  C   UNL     1       6.151   4.036  13.989  0.00  0.00    +0.000 A 
ATOM     31  C   UNL     1       5.384   3.702  15.118  0.00  0.00    +0.000 A 
BRANCH  30  32
ATOM     32  C   UNL     1       5.763   3.525  12.621  0.00  0.00    +0.000 C 
ATOM     33  F   UNL     1       5.904   2.176  12.486  0.00  0.00    +0.000 F 
ATOM     34  F   UNL     1       4.465   3.794  12.307  0.00  0.00    +0.000 F 
ATOM     35  F   UNL     1       6.512   4.075  11.625  0.00  0.00    +0.000 F 
ENDBRANCH  30  32
ENDBRANCH  25  26
ENDBRANCH  22  25
ENDBRANCH   4  21
TORSDOF 5
ENDMDL
MODEL 4
REMARK VINA RESULT:      -9.5      4.518      9.504
REMARK  Name = 
REMARK  6 active torsions:
REMARK  status: ('A' for Active; 'I' for Inactive)
REMARK    1  A    between atoms: C_1  and  N_2
REMARK    2  A    between atoms: C_4  and  C_5
REMARK    3  A    between atoms: C_8  and  N_9
REMARK    4  A    between atoms: C_10  and  C_12
REMARK    5  A    between atoms: C_12  and  C_13
REMARK    6  A    between atoms: C_17  and  C_18
REMARK                            x       y       z     vdW  Elec       q    Type
REMARK                         _______ _______ _______ _____ _____    ______ ____
ROOT
ATOM      1  C   UNL     1       2.619   7.039  19.153  0.00  0.00    +0.000 A 
ATOM      2  C   UNL     1       2.271   7.795  18.033  0.00  0.00    +0.000 A 
ATOM      3  C   UNL     1       1.507   8.953  18.168  0.00  0.00    +0.000 A 
ATOM      4  C   UNL     1       1.041   9.366  19.417  0.00  0.00    +0.000 A 
ATOM      5  C   UNL     1       1.307   8.548  20.529  0.00  0.00    +0.000 A 
ATOM      6 CL   UNL     1       0.763   8.988  22.113  0.00  0.00    +0.000 Cl
ATOM      7  C   UNL     1       2.087   7.392  20.399  0.00  0.00    +0.000 A 
ENDROOT
BRANCH   1  11
ATOM      8  C   UNL     1       6.528   4.655  17.656  0.00  0.00    +0.000 C 
ATOM      9  N   UNL     1       5.303   4.896  18.376  0.00  0.00    +0.000 N 
ATOM     10  N   UNL     1       4.693   6.096  18.291  0.00  0.00    +0.000 NA
ATOM     11  C   UNL     1       3.587   5.952  19.042  0.00  0.00    +0.000 A 
ATOM     12  C   UNL     1       3.493   4.633  19.592  0.00  0.00    +0.000 A 
ATOM     13  C   UNL     1       2.614   3.871  20.378  0.00  0.00    +0.000 A 
ATOM     14  N   UNL     1       1.410   4.317  20.904  0.00  0.00    +0.000 N 
ATOM     15  N   UNL     1       2.933   2.589  20.647  0.00  0.00    +0.000 NA
ATOM     16  C   UNL     1       4.074   2.087  20.139  0.00  0.00    +0.000 A 
ATOM     17  N   UNL     1       4.980   2.709  19.370  0.00  0.00    +0.000 NA
ATOM     18  C   UNL     1       4.627   3.985  19.134  0.00  0.00    +0.000 A 
ATOM     19  H   UNL     1       0.908   4.987  20.336  0.00  0.00    +0.000 HD
ATOM     20  H   UNL     1       0.854   3.542  21.245  0.00  0.00    +0.000 HD
ENDBRANCH   1  11
BRANCH   4  21
ATOM     21  N   UNL     1       0.312  10.572  19.570  0.00  0.00    +0.000 N 
ATOM     22  C   UNL     1       0.800  11.841  19.291  0.00  0.00    +0.000 C 
ATOM     23  O   UNL     1       1.941  12.115  18.936  0.00  0.00    +0.000 OA
ATOM     24  H   UNL     1      -0.572  10.495  20.065  0.00  0.00    +0.000 HD
BRANCH  22  25
ATOM     25  C   UNL     1      -0.206  12.952  19.500  0.00  0.00    +0.000 C 
BRANCH  25  26
ATOM     26  C   UNL     1      -1.608  12.551  19.117  0.00  0.00    +0.000 A 
ATOM     27  C   UNL     1      -2.672  12.810  19.989  0.00  0.00    +0.000 A 
ATOM     28  C   UNL     1      -3.962  12.392  19.673  0.00  0.00    +0.000 A 
ATOM     29  C   UNL     1      -4.206  11.713  18.480  0.00  0.00    +0.000 A 
ATOM     30  C   UNL     1      -3.163  11.454  17.579  0.00  0.00    +0.000 A 
ATOM     31  C   UNL     1      -1.865  11.886  17.905  0.00  0.00    +0.000 A 
BRANCH  30  32
ATOM     32  C   UNL     1      -3.421  10.713  16.288  0.00  0.00    +0.000 C 
ATOM     33  F   UNL     1      -2.662  11.159  15.247  0.00  0.00    +0.000 F 
ATOM     34  F   UNL     1      -3.166   9.379  16.386  0.00  0.00    +0.000 F 
ATOM     35  F   UNL     1      -4.714  10.819  15.874  0.00  0.00    +0.000 F 
ENDBRANCH  30  32
ENDBRANCH  25  26
ENDBRANCH  22  25
ENDBRANCH   4  21
TORSDOF 5
ENDMDL
MODEL 5
REMARK VINA RESULT:      -9.5      4.771      9.973
REMARK  Name = 
REMARK  6 active torsions:
REMARK  status: ('A' for Active; 'I' for Inactive)
REMARK    1  A    between atoms: C_1  and  N_2
REMARK    2  A    between atoms: C_4  and  C_5
REMARK    3  A    between atoms: C_8  and  N_9
REMARK    4  A    between atoms: C_10  and  C_12
REMARK    5  A    between atoms: C_12  and  C_13
REMARK    6  A    between atoms: C_17  and  C_18
REMARK                            x       y       z     vdW  Elec       q    Type
REMARK                         _______ _______ _______ _____ _____    ______ ____
ROOT
ATOM      1  C   UNL     1       2.577   7.259  18.975  0.00  0.00    +0.000 A 
ATOM      2  C   UNL     1       2.304   7.944  17.791  0.00  0.00    +0.000 A 
ATOM      3  C   UNL     1       1.534   9.106  17.805  0.00  0.00    +0.000 A 
ATOM      4  C   UNL     1       0.986   9.592  18.993  0.00  0.00    +0.000 A 
ATOM      5  C   UNL     1       1.178   8.844  20.168  0.00  0.00    +0.000 A 
ATOM      6 CL   UNL     1       0.530   9.377  21.683  0.00  0.00    +0.000 Cl
ATOM      7  C   UNL     1       1.963   7.685  20.160  0.00  0.00    +0.000 A 
ENDROOT
BRANCH   1  11
ATOM      8  C   UNL     1       6.606   4.831  17.939  0.00  0.00    +0.000 C 
ATOM      9  N   UNL     1       5.319   5.095  18.531  0.00  0.00    +0.000 N 
ATOM     10  N   UNL     1       4.722   6.290  18.347  0.00  0.00    +0.000 NA
ATOM     11  C   UNL     1       3.549   6.171  18.995  0.00  0.00    +0.000 A 
ATOM     12  C   UNL     1       3.401   4.871  19.578  0.00  0.00    +0.000 A 
ATOM     13  C   UNL     1       2.450   4.136  20.304  0.00  0.00    +0.000 A 
ATOM     14  N   UNL     1       1.203   4.597  20.697  0.00  0.00    +0.000 N 
ATOM     15  N   UNL     1       2.740   2.864  20.646  0.00  0.00    +0.000 NA
ATOM     16  C   UNL     1       3.924   2.346  20.267  0.00  0.00    +0.000 A 
ATOM     17  N   UNL     1       4.900   2.943  19.565  0.00  0.00    +0.000 NA
ATOM     18  C   UNL     1       4.573   4.209  19.253  0.00  0.00    +0.000 A 
ATOM     19  H   UNL     1       0.758   5.247  20.061  0.00  0.00    +0.000 HD
ATOM     20  H   UNL     1       0.615   3.833  21.011  0.00  0.00    +0.000 HD
ENDBRANCH   1  11
BRANCH   4  21
ATOM     21  N   UNL     1       0.249  10.803  19.025  0.00  0.00    +0.000 N 
ATOM     22  C   UNL     1      -1.107  10.920  18.754  0.00  0.00    +0.000 C 
ATOM     23  O   UNL     1      -1.851  10.018  18.386  0.00  0.00    +0.000 OA
ATOM     24  H   UNL     1       0.800  11.653  19.102  0.00  0.00    +0.000 HD
BRANCH  22  25
ATOM     25  C   UNL     1      -1.651  12.324  18.905  0.00  0.00    +0.000 C 
BRANCH  25  26
ATOM     26  C   UNL     1      -2.793  12.406  19.885  0.00  0.00    +0.000 A 
ATOM     27  C   UNL     1      -4.114  12.353  19.424  0.00  0.00    +0.000 A 
ATOM     28  C   UNL     1      -5.178  12.486  20.312  0.00  0.00    +0.000 A 
ATOM     29  C   UNL     1      -4.936  12.671  21.673  0.00  0.00    +0.000 A 
ATOM     30  C   UNL     1      -3.624  12.711  22.166  0.00  0.00    +0.000 A 
ATOM     31  C   UNL     1      -2.557  12.569  21.262  0.00  0.00    +0.000 A 
BRANCH  30  32
ATOM     32  C   UNL     1      -3.356  12.917  23.639  0.00  0.00    +0.000 C 
ATOM     33  F   UNL     1      -2.031  12.895  23.957  0.00  0.00    +0.000 F 
ATOM     34  F   UNL     1      -3.826  14.110  24.098  0.00  0.00    +0.000 F 
ATOM     35  F   UNL     1      -3.937  11.960  24.414  0.00  0.00    +0.000 F 
ENDBRANCH  30  32
ENDBRANCH  25  26
ENDBRANCH  22  25
ENDBRANCH   4  21
TORSDOF 5
ENDMDL
MODEL 6
REMARK VINA RESULT:      -9.5      5.344     10.283
REMARK  Name = 
REMARK  6 active torsions:
REMARK  status: ('A' for Active; 'I' for Inactive)
REMARK    1  A    between atoms: C_1  and  N_2
REMARK    2  A    between atoms: C_4  and  C_5
REMARK    3  A    between atoms: C_8  and  N_9
REMARK    4  A    between atoms: C_10  and  C_12
REMARK    5  A    between atoms: C_12  and  C_13
REMARK    6  A    between atoms: C_17  and  C_18
REMARK                            x       y       z     vdW  Elec       q    Type
REMARK                         _______ _______ _______ _____ _____    ______ ____
ROOT
ATOM      1  C   UNL     1       2.587   7.227  18.994  0.00  0.00    +0.000 A 
ATOM      2  C   UNL     1       2.329   7.985  17.853  0.00  0.00    +0.000 A 
ATOM      3  C   UNL     1       1.567   9.150  17.931  0.00  0.00    +0.000 A 
ATOM      4  C   UNL     1       1.014   9.567  19.142  0.00  0.00    +0.000 A 
ATOM      5  C   UNL     1       1.191   8.748  20.271  0.00  0.00    +0.000 A 
ATOM      6 CL   UNL     1       0.537   9.194  21.811  0.00  0.00    +0.000 Cl
ATOM      7  C   UNL     1       1.968   7.586  20.198  0.00  0.00    +0.000 A 
ENDROOT
BRANCH   1  11
ATOM      8  C   UNL     1       6.551   4.789  17.749  0.00  0.00    +0.000 C 
ATOM      9  N   UNL     1       5.292   5.052  18.399  0.00  0.00    +0.000 N 
ATOM     10  N   UNL     1       4.696   6.254  18.260  0.00  0.00    +0.000 NA
ATOM     11  C   UNL     1       3.551   6.132  18.955  0.00  0.00    +0.000 A 
ATOM     12  C   UNL     1       3.419   4.824  19.524  0.00  0.00    +0.000 A 
ATOM     13  C   UNL     1       2.494   4.083  20.278  0.00  0.00    +0.000 A 
ATOM     14  N   UNL     1       1.268   4.547  20.731  0.00  0.00    +0.000 N 
ATOM     15  N   UNL     1       2.789   2.804  20.586  0.00  0.00    +0.000 NA
ATOM     16  C   UNL     1       3.951   2.285  20.148  0.00  0.00    +0.000 A 
ATOM     17  N   UNL     1       4.901   2.886  19.416  0.00  0.00    +0.000 NA
ATOM     18  C   UNL     1       4.570   4.159  19.138  0.00  0.00    +0.000 A 
ATOM     19  H   UNL     1       0.801   5.210  20.125  0.00  0.00    +0.000 HD
ATOM     20  H   UNL     1       0.689   3.782  21.057  0.00  0.00    +0.000 HD
ENDBRANCH   1  11
BRANCH   4  21
ATOM     21  N   UNL     1       0.286  10.780  19.242  0.00  0.00    +0.000 N 
ATOM     22  C   UNL     1      -1.067  10.925  18.967  0.00  0.00    +0.000 C 
ATOM     23  O   UNL     1      -1.814  10.052  18.537  0.00  0.00    +0.000 OA
ATOM     24  H   UNL     1       0.842  11.619  19.376  0.00  0.00    +0.000 HD
BRANCH  22  25
ATOM     25  C   UNL     1      -1.601  12.321  19.199  0.00  0.00    +0.000 C 
BRANCH  25  26
ATOM     26  C   UNL     1      -2.291  12.468  20.532  0.00  0.00    +0.000 A 
ATOM     27  C   UNL     1      -1.548  12.391  21.715  0.00  0.00    +0.000 A 
ATOM     28  C   UNL     1      -2.182  12.467  22.953  0.00  0.00    +0.000 A 
ATOM     29  C   UNL     1      -3.566  12.623  23.023  0.00  0.00    +0.000 A 
ATOM     30  C   UNL     1      -4.334  12.720  21.854  0.00  0.00    +0.000 A 
ATOM     31  C   UNL     1      -3.684  12.649  20.610  0.00  0.00    +0.000 A 
BRANCH  30  32
ATOM     32  C   UNL     1      -5.834  12.884  21.925  0.00  0.00    +0.000 C 
ATOM     33  F   UNL     1      -6.266  14.109  21.512  0.00  0.00    +0.000 F 
ATOM     34  F   UNL     1      -6.500  11.979  21.156  0.00  0.00    +0.000 F 
ATOM     35  F   UNL     1      -6.317  12.730  23.190  0.00  0.00    +0.000 F 
ENDBRANCH  30  32
ENDBRANCH  25  26
ENDBRANCH  22  25
ENDBRANCH   4  21
TORSDOF 5
ENDMDL
MODEL 7
REMARK VINA RESULT:      -9.5      2.481      2.933
REMARK  Name = 
REMARK  6 active torsions:
REMARK  status: ('A' for Active; 'I' for Inactive)
REMARK    1  A    between atoms: C_1  and  N_2
REMARK    2  A    between atoms: C_4  and  C_5
REMARK    3  A    between atoms: C_8  and  N_9
REMARK    4  A    between atoms: C_10  and  C_12
REMARK    5  A    between atoms: C_12  and  C_13
REMARK    6  A    between atoms: C_17  and  C_18
REMARK                            x       y       z     vdW  Elec       q    Type
REMARK                         _______ _______ _______ _____ _____    ______ ____
ROOT
ATOM      1  C   UNL     1       1.365   8.946  19.614  0.00  0.00    +0.000 A 
ATOM      2  C   UNL     1       2.076   8.989  18.415  0.00  0.00    +0.000 A 
ATOM      3  C   UNL     1       2.787   7.875  17.972  0.00  0.00    +0.000 A 
ATOM      4  C   UNL     1       2.837   6.704  18.731  0.00  0.00    +0.000 A 
ATOM      5  C   UNL     1       2.204   6.699  19.986  0.00  0.00    +0.000 A 
ATOM      6 CL   UNL     1       2.220   5.288  20.990  0.00  0.00    +0.000 Cl
ATOM      7  C   UNL     1       1.477   7.811  20.427  0.00  0.00    +0.000 A 
ENDROOT
BRANCH   1  11
ATOM      8  C   UNL     1      -0.722  12.322  22.345  0.00  0.00    +0.000 C 
ATOM      9  N   UNL     1      -0.472  11.509  21.181  0.00  0.00    +0.000 N 
ATOM     10  N   UNL     1       0.542  10.620  21.181  0.00  0.00    +0.000 NA
ATOM     11  C   UNL     1       0.455  10.029  19.976  0.00  0.00    +0.000 A 
ATOM     12  C   UNL     1      -0.645  10.544  19.216  0.00  0.00    +0.000 A 
ATOM     13  C   UNL     1      -1.269  10.331  17.977  0.00  0.00    +0.000 A 
ATOM     14  N   UNL     1      -0.880   9.398  17.027  0.00  0.00    +0.000 N 
ATOM     15  N   UNL     1      -2.353  11.071  17.664  0.00  0.00    +0.000 NA
ATOM     16  C   UNL     1      -2.799  11.973  18.558  0.00  0.00    +0.000 A 
ATOM     17  N   UNL     1      -2.297  12.254  19.770  0.00  0.00    +0.000 NA
ATOM     18  C   UNL     1      -1.216  11.501  20.037  0.00  0.00    +0.000 A 
ATOM     19  H   UNL     1      -0.490   8.539  17.394  0.00  0.00    +0.000 HD
ATOM     20  H   UNL     1      -1.598   9.276  16.322  0.00  0.00    +0.000 HD
ENDBRANCH   1  11
BRANCH   4  21
ATOM     21  N   UNL     1       3.511   5.548  18.261  0.00  0.00    +0.000 N 
ATOM     22  C   UNL     1       2.912   4.495  17.584  0.00  0.00    +0.000 C 
ATOM     23  O   UNL     1       1.714   4.374  17.350  0.00  0.00    +0.000 OA
ATOM     24  H   UNL     1       4.465   5.430  18.587  0.00  0.00    +0.000 HD
BRANCH  22  25
ATOM     25  C   UNL     1       3.872   3.407  17.155  0.00  0.00    +0.000 C 
BRANCH  25  26
ATOM     26  C   UNL     1       4.968   3.917  16.254  0.00  0.00    +0.000 A 
ATOM     27  C   UNL     1       5.924   4.809  16.752  0.00  0.00    +0.000 A 
ATOM     28  C   UNL     1       6.907   5.332  15.915  0.00  0.00    +0.000 A 
ATOM     29  C   UNL     1       6.946   4.969  14.569  0.00  0.00    +0.000 A 
ATOM     30  C   UNL     1       6.011   4.065  14.046  0.00  0.00    +0.000 A 
ATOM     31  C   UNL     1       5.028   3.538  14.901  0.00  0.00    +0.000 A 
BRANCH  30  32
ATOM     32  C   UNL     1       6.046   3.673  12.587  0.00  0.00    +0.000 C 
ATOM     33  F   UNL     1       4.841   3.803  11.962  0.00  0.00    +0.000 F 
ATOM     34  F   UNL     1       6.922   4.421  11.861  0.00  0.00    +0.000 F 
ATOM     35  F   UNL     1       6.418   2.375  12.403  0.00  0.00    +0.000 F 
ENDBRANCH  30  32
ENDBRANCH  25  26
ENDBRANCH  22  25
ENDBRANCH   4  21
TORSDOF 5
ENDMDL
MODEL 8
REMARK VINA RESULT:      -9.4      2.172      3.008
REMARK  Name = 
REMARK  6 active torsions:
REMARK  status: ('A' for Active; 'I' for Inactive)
REMARK    1  A    between atoms: C_1  and  N_2
REMARK    2  A    between atoms: C_4  and  C_5
REMARK    3  A    between atoms: C_8  and  N_9
REMARK    4  A    between atoms: C_10  and  C_12
REMARK    5  A    between atoms: C_12  and  C_13
REMARK    6  A    between atoms: C_17  and  C_18
REMARK                            x       y       z     vdW  Elec       q    Type
REMARK                         _______ _______ _______ _____ _____    ______ ____
ROOT
ATOM      1  C   UNL     1       0.156  10.431  20.314  0.00  0.00    +0.000 A 
ATOM      2  C   UNL     1       0.275   9.707  21.500  0.00  0.00    +0.000 A 
ATOM      3  C   UNL     1       1.024   8.532  21.541  0.00  0.00    +0.000 A 
ATOM      4  C   UNL     1       1.641   8.031  20.394  0.00  0.00    +0.000 A 
ATOM      5  C   UNL     1       1.435   8.708  19.179  0.00  0.00    +0.000 A 
ATOM      6 CL   UNL     1       2.163   8.152  17.710  0.00  0.00    +0.000 Cl
ATOM      7  C   UNL     1       0.696   9.897  19.138  0.00  0.00    +0.000 A 
ENDROOT
BRANCH   1  11
ATOM      8  C   UNL     1      -3.210  13.826  20.909  0.00  0.00    +0.000 C 
ATOM      9  N   UNL     1      -1.931  13.256  20.566  0.00  0.00    +0.000 N 
ATOM     10  N   UNL     1      -1.697  11.944  20.774  0.00  0.00    +0.000 NA
ATOM     11  C   UNL     1      -0.446  11.761  20.315  0.00  0.00    +0.000 A 
ATOM     12  C   UNL     1       0.105  12.976  19.792  0.00  0.00    +0.000 A 
ATOM     13  C   UNL     1       1.277  13.424  19.163  0.00  0.00    +0.000 A 
ATOM     14  N   UNL     1       2.377  12.638  18.852  0.00  0.00    +0.000 N 
ATOM     15  N   UNL     1       1.361  14.721  18.803  0.00  0.00    +0.000 NA
ATOM     16  C   UNL     1       0.314  15.530  19.049  0.00  0.00    +0.000 A 
ATOM     17  N   UNL     1      -0.855  15.215  19.628  0.00  0.00    +0.000 NA
ATOM     18  C   UNL     1      -0.893  13.917  19.978  0.00  0.00    +0.000 A 
ATOM     19  H   UNL     1       2.171  11.679  18.605  0.00  0.00    +0.000 HD
ATOM     20  H   UNL     1       3.000  13.121  18.215  0.00  0.00    +0.000 HD
ENDBRANCH   1  11
BRANCH   4  21
ATOM     21  N   UNL     1       2.450   6.868  20.439  0.00  0.00    +0.000 N 
ATOM     22  C   UNL     1       1.975   5.564  20.461  0.00  0.00    +0.000 C 
ATOM     23  O   UNL     1       0.797   5.225  20.511  0.00  0.00    +0.000 OA
ATOM     24  H   UNL     1       3.437   7.023  20.623  0.00  0.00    +0.000 HD
BRANCH  22  25
ATOM     25  C   UNL     1       3.059   4.508  20.463  0.00  0.00    +0.000 C 
BRANCH  25  26
ATOM     26  C   UNL     1       3.870   4.502  19.192  0.00  0.00    +0.000 A 
ATOM     27  C   UNL     1       3.287   4.079  17.993  0.00  0.00    +0.000 A 
ATOM     28  C   UNL     1       4.041   4.013  16.824  0.00  0.00    +0.000 A 
ATOM     29  C   UNL     1       5.389   4.372  16.840  0.00  0.00    +0.000 A 
ATOM     30  C   UNL     1       5.996   4.816  18.023  0.00  0.00    +0.000 A 
ATOM     31  C   UNL     1       5.224   4.885  19.195  0.00  0.00    +0.000 A 
BRANCH  30  32
ATOM     32  C   UNL     1       7.457   5.200  18.046  0.00  0.00    +0.000 C 
ATOM     33  F   UNL     1       8.287   4.201  17.632  0.00  0.00    +0.000 F 
ATOM     34  F   UNL     1       7.735   6.266  17.245  0.00  0.00    +0.000 F 
ATOM     35  F   UNL     1       7.888   5.544  19.292  0.00  0.00    +0.000 F 
ENDBRANCH  30  32
ENDBRANCH  25  26
ENDBRANCH  22  25
ENDBRANCH   4  21
TORSDOF 5
ENDMDL
MODEL 9
REMARK VINA RESULT:      -9.4      2.066      2.627
REMARK  Name = 
REMARK  6 active torsions:
REMARK  status: ('A' for Active; 'I' for Inactive)
REMARK    1  A    between atoms: C_1  and  N_2
REMARK    2  A    between atoms: C_4  and  C_5
REMARK    3  A    between atoms: C_8  and  N_9
REMARK    4  A    between atoms: C_10  and  C_12
REMARK    5  A    between atoms: C_12  and  C_13
REMARK    6  A    between atoms: C_17  and  C_18
REMARK                            x       y       z     vdW  Elec       q    Type
REMARK                         _______ _______ _______ _____ _____    ______ ____
ROOT
ATOM      1  C   UNL     1       0.659   9.372  20.261  0.00  0.00    +0.000 A 
ATOM      2  C   UNL     1       0.636   8.348  21.207  0.00  0.00    +0.000 A 
ATOM      3  C   UNL     1       1.447   7.223  21.055  0.00  0.00    +0.000 A 
ATOM      4  C   UNL     1       2.271   7.077  19.938  0.00  0.00    +0.000 A 
ATOM      5  C   UNL     1       2.216   8.062  18.937  0.00  0.00    +0.000 A 
ATOM      6 CL   UNL     1       3.206   7.955  17.520  0.00  0.00    +0.000 Cl
ATOM      7  C   UNL     1       1.414   9.200  19.095  0.00  0.00    +0.000 A 
ENDROOT
BRANCH   1  11
ATOM      8  C   UNL     1      -0.463  13.480  22.514  0.00  0.00    +0.000 C 
ATOM      9  N   UNL     1      -0.527  12.441  21.517  0.00  0.00    +0.000 N 
ATOM     10  N   UNL     1       0.346  11.413  21.553  0.00  0.00    +0.000 NA
ATOM     11  C   UNL     1      -0.024  10.636  20.520  0.00  0.00    +0.000 A 
ATOM     12  C   UNL     1      -1.161  11.177  19.837  0.00  0.00    +0.000 A 
ATOM     13  C   UNL     1      -2.013  10.849  18.770  0.00  0.00    +0.000 A 
ATOM     14  N   UNL     1      -1.920   9.709  17.986  0.00  0.00    +0.000 N 
ATOM     15  N   UNL     1      -3.027  11.686  18.471  0.00  0.00    +0.000 NA
ATOM     16  C   UNL     1      -3.190  12.795  19.216  0.00  0.00    +0.000 A 
ATOM     17  N   UNL     1      -2.453  13.205  20.260  0.00  0.00    +0.000 NA
ATOM     18  C   UNL     1      -1.451  12.347  20.517  0.00  0.00    +0.000 A 
ATOM     19  H   UNL     1      -1.589   8.878  18.460  0.00  0.00    +0.000 HD
ATOM     20  H   UNL     1      -2.758   9.580  17.431  0.00  0.00    +0.000 HD
ENDBRANCH   1  11
BRANCH   4  21
ATOM     21  N   UNL     1       3.140   5.964  19.804  0.00  0.00    +0.000 N 
ATOM     22  C   UNL     1       2.836   4.790  19.128  0.00  0.00    +0.000 C 
ATOM     23  O   UNL     1       1.761   4.514  18.607  0.00  0.00    +0.000 OA
ATOM     24  H   UNL     1       3.977   5.986  20.378  0.00  0.00    +0.000 HD
BRANCH  22  25
ATOM     25  C   UNL     1       3.964   3.782  19.099  0.00  0.00    +0.000 C 
BRANCH  25  26
ATOM     26  C   UNL     1       5.141   4.245  18.279  0.00  0.00    +0.000 A 
ATOM     27  C   UNL     1       6.236   4.849  18.907  0.00  0.00    +0.000 A 
ATOM     28  C   UNL     1       7.304   5.333  18.155  0.00  0.00    +0.000 A 
ATOM     29  C   UNL     1       7.291   5.218  16.766  0.00  0.00    +0.000 A 
ATOM     30  C   UNL     1       6.215   4.603  16.110  0.00  0.00    +0.000 A 
ATOM     31  C   UNL     1       5.146   4.112  16.879  0.00  0.00    +0.000 A 
BRANCH  30  32
ATOM     32  C   UNL     1       6.193   4.481  14.604  0.00  0.00    +0.000 C 
ATOM     33  F   UNL     1       6.347   3.201  14.162  0.00  0.00    +0.000 F 
ATOM     34  F   UNL     1       5.028   4.924  14.056  0.00  0.00    +0.000 F 
ATOM     35  F   UNL     1       7.185   5.199  14.008  0.00  0.00    +0.000 F 
ENDBRANCH  30  32
ENDBRANCH  25  26
ENDBRANCH  22  25
ENDBRANCH   4  21
TORSDOF 5
ENDMDL
