MODEL 1
REMARK VINA RESULT:     -10.1      0.000      0.000
REMARK  Name = 
REMARK  7 active torsions:
REMARK  status: ('A' for Active; 'I' for Inactive)
REMARK    1  A    between atoms: C_1  and  C_2
REMARK    2  A    between atoms: C_2  and  C_4
REMARK    3  A    between atoms: C_8  and  C_9
REMARK    4  A    between atoms: C_16  and  C_17
REMARK    5  A    between atoms: N_19  and  C_20
REMARK    6  A    between atoms: C_24  and  O_25
REMARK    7  A    between atoms: O_25  and  C_26
REMARK                            x       y       z     vdW  Elec       q    Type
REMARK                         _______ _______ _______ _____ _____    ______ ____
ROOT
ATOM      1  C   UNL     1       6.736   4.506  16.259  0.00  0.00    +0.000 A 
ATOM      2  C   UNL     1       7.917   4.666  17.010  0.00  0.00    +0.000 A 
ATOM      3  C   UNL     1       7.874   4.700  18.404  0.00  0.00    +0.000 A 
ATOM      4  N   UNL     1       6.744   4.592  19.125  0.00  0.00    +0.000 NA
ATOM      5  C   UNL     1       5.638   4.427  18.395  0.00  0.00    +0.000 A 
ATOM      6  C   UNL     1       5.571   4.361  17.016  0.00  0.00    +0.000 A 
ATOM      7  C   UNL     1       4.162   4.128  16.627  0.00  0.00    +0.000 C 
ATOM      8  C   UNL     1       3.461   4.196  17.994  0.00  0.00    +0.000 C 
ATOM      9  O   UNL     1       4.427   4.324  19.045  0.00  0.00    +0.000 OA
ENDROOT
BRANCH   1  14
ATOM     10  C   UNL     1       6.114   3.611  12.587  0.00  0.00    +0.000 A 
ATOM     11  C   UNL     1       7.048   4.430  11.948  0.00  0.00    +0.000 A 
ATOM     12  C   UNL     1       7.842   5.291  12.698  0.00  0.00    +0.000 A 
ATOM     13  C   UNL     1       7.706   5.332  14.088  0.00  0.00    +0.000 A 
ATOM     14  C   UNL     1       6.795   4.502  14.774  0.00  0.00    +0.000 A 
ATOM     15  C   UNL     1       6.000   3.649  13.988  0.00  0.00    +0.000 A 
BRANCH  10  17
ATOM     16  C   UNL     1       3.930   3.167  11.275  0.00  0.00    +0.000 C 
ATOM     17  C   UNL     1       5.281   2.697  11.747  0.00  0.00    +0.000 C 
ATOM     18  O   UNL     1       5.705   1.583  11.448  0.00  0.00    +0.000 OA
ENDBRANCH  10  17
ENDBRANCH   1  14
BRANCH   8  19
ATOM     19  C   UNL     1       2.405   5.304  18.015  0.00  0.00    +0.000 C 
ATOM     20  O   UNL     1       1.265   5.081  17.602  0.00  0.00    +0.000 OA
ATOM     21  N   UNL     1       2.839   6.487  18.591  0.00  0.00    +0.000 N 
ATOM     22  H   UNL     1       3.842   6.582  18.714  0.00  0.00    +0.000 HD
BRANCH  21  23
ATOM     23  C   UNL     1       2.044   7.634  18.820  0.00  0.00    +0.000 A 
ATOM     24  C   UNL     1       1.680   8.527  17.807  0.00  0.00    +0.000 A 
ATOM     25  C   UNL     1       0.950   9.680  18.092  0.00  0.00    +0.000 A 
ATOM     26  C   UNL     1       0.596   9.970  19.405  0.00  0.00    +0.000 A 
ATOM     27  C   UNL     1       0.959   9.094  20.426  0.00  0.00    +0.000 A 
ATOM     28  C   UNL     1       1.621   7.893  20.125  0.00  0.00    +0.000 A 
BRANCH  27  29
ATOM     29  O   UNL     1       0.611   9.469  21.705  0.00  0.00    +0.000 OA
BRANCH  29  30
ATOM     30  C   UNL     1       0.100  10.734  21.915  0.00  0.00    +0.000 A 
ATOM     31  C   UNL     1       0.577  11.892  21.295  0.00  0.00    +0.000 A 
ATOM     32  C   UNL     1       0.046  13.137  21.630  0.00  0.00    +0.000 A 
ATOM     33  C   UNL     1      -1.011  13.222  22.534  0.00  0.00    +0.000 A 
ATOM     34  C   UNL     1      -1.541  12.061  23.097  0.00  0.00    +0.000 A 
ATOM     35  C   UNL     1      -0.985  10.817  22.789  0.00  0.00    +0.000 A 
ENDBRANCH  29  30
ENDBRANCH  27  29
ENDBRANCH  21  23
ENDBRANCH   8  19
TORSDOF 6
ENDMDL
MODEL 2
REMARK VINA RESULT:      -9.9      5.217      7.398
REMARK  Name = 
REMARK  7 active torsions:
REMARK  status: ('A' for Active; 'I' for Inactive)
REMARK    1  A    between atoms: C_1  and  C_2
REMARK    2  A    between atoms: C_2  and  C_4
REMARK    3  A    between atoms: C_8  and  C_9
REMARK    4  A    between atoms: C_16  and  C_17
REMARK    5  A    between atoms: N_19  and  C_20
REMARK    6  A    between atoms: C_24  and  O_25
REMARK    7  A    between atoms: O_25  and  C_26
REMARK                            x       y       z     vdW  Elec       q    Type
REMARK                         _______ _______ _______ _____ _____    ______ ____
ROOT
ATOM      1  C   UNL     1       4.721   5.213  17.322  0.00  0.00    +0.000 A 
ATOM      2  C   UNL     1       4.463   4.602  16.079  0.00  0.00    +0.000 A 
ATOM      3  C   UNL     1       5.401   4.662  15.049  0.00  0.00    +0.000 A 
ATOM      4  N   UNL     1       6.587   5.290  15.146  0.00  0.00    +0.000 NA
ATOM      5  C   UNL     1       6.818   5.849  16.336  0.00  0.00    +0.000 A 
ATOM      6  C   UNL     1       5.968   5.832  17.426  0.00  0.00    +0.000 A 
ATOM      7  C   UNL     1       6.634   6.531  18.549  0.00  0.00    +0.000 C 
ATOM      8  C   UNL     1       7.920   7.031  17.868  0.00  0.00    +0.000 C 
ATOM      9  O   UNL     1       8.001   6.531  16.527  0.00  0.00    +0.000 OA
ENDROOT
BRANCH   1  14
ATOM     10  C   UNL     1       2.167   3.927  19.871  0.00  0.00    +0.000 A 
ATOM     11  C   UNL     1       1.644   5.128  20.357  0.00  0.00    +0.000 A 
ATOM     12  C   UNL     1       2.141   6.340  19.891  0.00  0.00    +0.000 A 
ATOM     13  C   UNL     1       3.162   6.354  18.936  0.00  0.00    +0.000 A 
ATOM     14  C   UNL     1       3.698   5.165  18.400  0.00  0.00    +0.000 A 
ATOM     15  C   UNL     1       3.181   3.955  18.897  0.00  0.00    +0.000 A 
BRANCH  10  17
ATOM     16  C   UNL     1       1.432   2.475  21.880  0.00  0.00    +0.000 C 
ATOM     17  C   UNL     1       1.604   2.645  20.394  0.00  0.00    +0.000 C 
ATOM     18  O   UNL     1       1.284   1.753  19.611  0.00  0.00    +0.000 OA
ENDBRANCH  10  17
ENDBRANCH   1  14
BRANCH   8  19
ATOM     19  C   UNL     1       8.025   8.556  17.944  0.00  0.00    +0.000 C 
ATOM     20  O   UNL     1       7.213   9.263  17.344  0.00  0.00    +0.000 OA
ATOM     21  N   UNL     1       9.034   9.011  18.778  0.00  0.00    +0.000 N 
ATOM     22  H   UNL     1       9.729   8.326  19.052  0.00  0.00    +0.000 HD
BRANCH  21  23
ATOM     23  C   UNL     1       9.292  10.365  19.098  0.00  0.00    +0.000 A 
ATOM     24  C   UNL     1       9.679  11.315  18.148  0.00  0.00    +0.000 A 
ATOM     25  C   UNL     1       9.986  12.623  18.523  0.00  0.00    +0.000 A 
ATOM     26  C   UNL     1       9.935  12.990  19.862  0.00  0.00    +0.000 A 
ATOM     27  C   UNL     1       9.559  12.052  20.821  0.00  0.00    +0.000 A 
ATOM     28  C   UNL     1       9.169  10.760  20.431  0.00  0.00    +0.000 A 
BRANCH  27  29
ATOM     29  O   UNL     1       9.573  12.477  22.131  0.00  0.00    +0.000 OA
BRANCH  29  30
ATOM     30  C   UNL     1       8.403  12.430  22.862  0.00  0.00    +0.000 A 
ATOM     31  C   UNL     1       8.179  11.568  23.940  0.00  0.00    +0.000 A 
ATOM     32  C   UNL     1       6.934  11.540  24.569  0.00  0.00    +0.000 A 
ATOM     33  C   UNL     1       5.933  12.422  24.169  0.00  0.00    +0.000 A 
ATOM     34  C   UNL     1       6.179  13.337  23.146  0.00  0.00    +0.000 A 
ATOM     35  C   UNL     1       7.412  13.340  22.491  0.00  0.00    +0.000 A 
ENDBRANCH  29  30
ENDBRANCH  27  29
ENDBRANCH  21  23
ENDBRANCH   8  19
TORSDOF 6
ENDMDL
MODEL 3
REMARK VINA RESULT:      -9.8      3.608     10.625
REMARK  Name = 
REMARK  7 active torsions:
REMARK  status: ('A' for Active; 'I' for Inactive)
REMARK    1  A    between atoms: C_1  and  C_2
REMARK    2  A    between atoms: C_2  and  C_4
REMARK    3  A    between atoms: C_8  and  C_9
REMARK    4  A    between atoms: C_16  and  C_17
REMARK    5  A    between atoms: N_19  and  C_20
REMARK    6  A    between atoms: C_24  and  O_25
REMARK    7  A    between atoms: O_25  and  C_26
REMARK                            x       y       z     vdW  Elec       q    Type
REMARK                         _______ _______ _______ _____ _____    ______ ____
ROOT
ATOM      1  C   UNL     1      -1.763  11.850  20.134  0.00  0.00    +0.000 A 
ATOM      2  C   UNL     1      -2.161  12.736  21.155  0.00  0.00    +0.000 A 
ATOM      3  C   UNL     1      -1.429  12.831  22.338  0.00  0.00    +0.000 A 
ATOM      4  N   UNL     1      -0.325  12.109  22.601  0.00  0.00    +0.000 NA
ATOM      5  C   UNL     1       0.043  11.287  21.615  0.00  0.00    +0.000 A 
ATOM      6  C   UNL     1      -0.597  11.130  20.400  0.00  0.00    +0.000 A 
ATOM      7  C   UNL     1       0.169  10.155  19.591  0.00  0.00    +0.000 C 
ATOM      8  C   UNL     1       1.250   9.719  20.595  0.00  0.00    +0.000 C 
ATOM      9  O   UNL     1       1.154  10.492  21.798  0.00  0.00    +0.000 OA
ENDROOT
BRANCH   1  14
ATOM     10  C   UNL     1      -4.729  11.654  17.717  0.00  0.00    +0.000 A 
ATOM     11  C   UNL     1      -4.077  11.381  16.513  0.00  0.00    +0.000 A 
ATOM     12  C   UNL     1      -2.689  11.301  16.478  0.00  0.00    +0.000 A 
ATOM     13  C   UNL     1      -1.950  11.491  17.649  0.00  0.00    +0.000 A 
ATOM     14  C   UNL     1      -2.571  11.740  18.891  0.00  0.00    +0.000 A 
ATOM     15  C   UNL     1      -3.975  11.825  18.892  0.00  0.00    +0.000 A 
BRANCH  10  17
ATOM     16  C   UNL     1      -7.003  10.785  18.590  0.00  0.00    +0.000 C 
ATOM     17  C   UNL     1      -6.222  11.730  17.715  0.00  0.00    +0.000 C 
ATOM     18  O   UNL     1      -6.792  12.559  17.009  0.00  0.00    +0.000 OA
ENDBRANCH  10  17
ENDBRANCH   1  14
BRANCH   8  19
ATOM     19  C   UNL     1       1.190   8.211  20.847  0.00  0.00    +0.000 C 
ATOM     20  O   UNL     1       0.306   7.738  21.564  0.00  0.00    +0.000 OA
ATOM     21  N   UNL     1       2.144   7.484  20.154  0.00  0.00    +0.000 N 
ATOM     22  H   UNL     1       2.910   8.018  19.757  0.00  0.00    +0.000 HD
BRANCH  21  23
ATOM     23  C   UNL     1       2.255   6.074  20.135  0.00  0.00    +0.000 A 
ATOM     24  C   UNL     1       1.326   5.226  20.745  0.00  0.00    +0.000 A 
ATOM     25  C   UNL     1       1.513   3.844  20.756  0.00  0.00    +0.000 A 
ATOM     26  C   UNL     1       2.650   3.293  20.178  0.00  0.00    +0.000 A 
ATOM     27  C   UNL     1       3.588   4.127  19.573  0.00  0.00    +0.000 A 
ATOM     28  C   UNL     1       3.356   5.509  19.490  0.00  0.00    +0.000 A 
BRANCH  27  29
ATOM     29  O   UNL     1       4.709   3.513  19.059  0.00  0.00    +0.000 OA
BRANCH  29  30
ATOM     30  C   UNL     1       5.290   4.028  17.918  0.00  0.00    +0.000 A 
ATOM     31  C   UNL     1       4.726   3.951  16.641  0.00  0.00    +0.000 A 
ATOM     32  C   UNL     1       5.425   4.434  15.535  0.00  0.00    +0.000 A 
ATOM     33  C   UNL     1       6.658   5.058  15.710  0.00  0.00    +0.000 A 
ATOM     34  C   UNL     1       7.188   5.207  16.992  0.00  0.00    +0.000 A 
ATOM     35  C   UNL     1       6.505   4.691  18.095  0.00  0.00    +0.000 A 
ENDBRANCH  29  30
ENDBRANCH  27  29
ENDBRANCH  21  23
ENDBRANCH   8  19
TORSDOF 6
ENDMDL
MODEL 4
REMARK VINA RESULT:      -9.8      1.790      2.571
REMARK  Name = 
REMARK  7 active torsions:
REMARK  status: ('A' for Active; 'I' for Inactive)
REMARK    1  A    between atoms: C_1  and  C_2
REMARK    2  A    between atoms: C_2  and  C_4
REMARK    3  A    between atoms: C_8  and  C_9
REMARK    4  A    between atoms: C_16  and  C_17
REMARK    5  A    between atoms: N_19  and  C_20
REMARK    6  A    between atoms: C_24  and  O_25
REMARK    7  A    between atoms: O_25  and  C_26
REMARK                            x       y       z     vdW  Elec       q    Type
REMARK                         _______ _______ _______ _____ _____    ______ ____
ROOT
ATOM      1  C   UNL     1       6.742   4.503  16.351  0.00  0.00    +0.000 A 
ATOM      2  C   UNL     1       7.952   4.588  17.067  0.00  0.00    +0.000 A 
ATOM      3  C   UNL     1       7.954   4.581  18.462  0.00  0.00    +0.000 A 
ATOM      4  N   UNL     1       6.844   4.502  19.216  0.00  0.00    +0.000 NA
ATOM      5  C   UNL     1       5.709   4.408  18.518  0.00  0.00    +0.000 A 
ATOM      6  C   UNL     1       5.597   4.386  17.140  0.00  0.00    +0.000 A 
ATOM      7  C   UNL     1       4.167   4.227  16.790  0.00  0.00    +0.000 C 
ATOM      8  C   UNL     1       3.512   4.286  18.181  0.00  0.00    +0.000 C 
ATOM      9  O   UNL     1       4.515   4.339  19.203  0.00  0.00    +0.000 OA
ENDROOT
BRANCH   1  14
ATOM     10  C   UNL     1       6.023   3.697  12.675  0.00  0.00    +0.000 A 
ATOM     11  C   UNL     1       6.921   4.552  12.032  0.00  0.00    +0.000 A 
ATOM     12  C   UNL     1       7.722   5.407  12.780  0.00  0.00    +0.000 A 
ATOM     13  C   UNL     1       7.628   5.407  14.175  0.00  0.00    +0.000 A 
ATOM     14  C   UNL     1       6.756   4.541  14.865  0.00  0.00    +0.000 A 
ATOM     15  C   UNL     1       5.952   3.694  14.080  0.00  0.00    +0.000 A 
BRANCH  10  17
ATOM     16  C   UNL     1       5.771   1.495  11.342  0.00  0.00    +0.000 C 
ATOM     17  C   UNL     1       5.182   2.790  11.837  0.00  0.00    +0.000 C 
ATOM     18  O   UNL     1       4.024   3.104  11.566  0.00  0.00    +0.000 OA
ENDBRANCH  10  17
ENDBRANCH   1  14
BRANCH   8  19
ATOM     19  C   UNL     1       2.509   5.438  18.269  0.00  0.00    +0.000 C 
ATOM     20  O   UNL     1       1.484   5.420  17.584  0.00  0.00    +0.000 OA
ATOM     21  N   UNL     1       2.836   6.402  19.209  0.00  0.00    +0.000 N 
ATOM     22  H   UNL     1       3.789   6.379  19.557  0.00  0.00    +0.000 HD
BRANCH  21  23
ATOM     23  C   UNL     1       2.042   7.520  19.556  0.00  0.00    +0.000 A 
ATOM     24  C   UNL     1       1.561   7.744  20.850  0.00  0.00    +0.000 A 
ATOM     25  C   UNL     1       0.727   8.826  21.129  0.00  0.00    +0.000 A 
ATOM     26  C   UNL     1       0.340   9.685  20.107  0.00  0.00    +0.000 A 
ATOM     27  C   UNL     1       0.805   9.469  18.812  0.00  0.00    +0.000 A 
ATOM     28  C   UNL     1       1.711   8.430  18.550  0.00  0.00    +0.000 A 
BRANCH  27  29
ATOM     29  O   UNL     1       0.345  10.337  17.845  0.00  0.00    +0.000 OA
BRANCH  29  30
ATOM     30  C   UNL     1      -1.006  10.613  17.783  0.00  0.00    +0.000 A 
ATOM     31  C   UNL     1      -1.610  11.736  18.357  0.00  0.00    +0.000 A 
ATOM     32  C   UNL     1      -2.995  11.890  18.307  0.00  0.00    +0.000 A 
ATOM     33  C   UNL     1      -3.774  10.960  17.622  0.00  0.00    +0.000 A 
ATOM     34  C   UNL     1      -3.167   9.880  16.980  0.00  0.00    +0.000 A 
ATOM     35  C   UNL     1      -1.784   9.706  17.062  0.00  0.00    +0.000 A 
ENDBRANCH  29  30
ENDBRANCH  27  29
ENDBRANCH  21  23
ENDBRANCH   8  19
TORSDOF 6
ENDMDL
MODEL 5
REMARK VINA RESULT:      -9.7      3.621     10.630
REMARK  Name = 
REMARK  7 active torsions:
REMARK  status: ('A' for Active; 'I' for Inactive)
REMARK    1  A    between atoms: C_1  and  C_2
REMARK    2  A    between atoms: C_2  and  C_4
REMARK    3  A    between atoms: C_8  and  C_9
REMARK    4  A    between atoms: C_16  and  C_17
REMARK    5  A    between atoms: N_19  and  C_20
REMARK    6  A    between atoms: C_24  and  O_25
REMARK    7  A    between atoms: O_25  and  C_26
REMARK                            x       y       z     vdW  Elec       q    Type
REMARK                         _______ _______ _______ _____ _____    ______ ____
ROOT
ATOM      1  C   UNL     1      -1.793  11.860  19.889  0.00  0.00    +0.000 A 
ATOM      2  C   UNL     1      -2.155  12.781  20.891  0.00  0.00    +0.000 A 
ATOM      3  C   UNL     1      -1.361  12.944  22.026  0.00  0.00    +0.000 A 
ATOM      4  N   UNL     1      -0.227  12.258  22.257  0.00  0.00    +0.000 NA
ATOM      5  C   UNL     1       0.105  11.401  21.289  0.00  0.00    +0.000 A 
ATOM      6  C   UNL     1      -0.597  11.177  20.119  0.00  0.00    +0.000 A 
ATOM      7  C   UNL     1       0.145  10.183  19.311  0.00  0.00    +0.000 C 
ATOM      8  C   UNL     1       1.290   9.815  20.270  0.00  0.00    +0.000 C 
ATOM      9  O   UNL     1       1.243  10.639  21.442  0.00  0.00    +0.000 OA
ENDROOT
BRANCH   1  14
ATOM     10  C   UNL     1      -4.882  11.591  17.638  0.00  0.00    +0.000 A 
ATOM     11  C   UNL     1      -4.303  11.179  16.435  0.00  0.00    +0.000 A 
ATOM     12  C   UNL     1      -2.924  11.028  16.345  0.00  0.00    +0.000 A 
ATOM     13  C   UNL     1      -2.120  11.286  17.459  0.00  0.00    +0.000 A 
ATOM     14  C   UNL     1      -2.666  11.677  18.699  0.00  0.00    +0.000 A 
ATOM     15  C   UNL     1      -4.063  11.831  18.756  0.00  0.00    +0.000 A 
BRANCH  10  17
ATOM     16  C   UNL     1      -7.004  12.965  17.094  0.00  0.00    +0.000 C 
ATOM     17  C   UNL     1      -6.368  11.740  17.696  0.00  0.00    +0.000 C 
ATOM     18  O   UNL     1      -7.050  10.865  18.225  0.00  0.00    +0.000 OA
ENDBRANCH  10  17
ENDBRANCH   1  14
BRANCH   8  19
ATOM     19  C   UNL     1       1.280   8.319  20.590  0.00  0.00    +0.000 C 
ATOM     20  O   UNL     1       0.530   7.878  21.463  0.00  0.00    +0.000 OA
ATOM     21  N   UNL     1       2.108   7.562  19.777  0.00  0.00    +0.000 N 
ATOM     22  H   UNL     1       2.794   8.077  19.236  0.00  0.00    +0.000 HD
BRANCH  21  23
ATOM     23  C   UNL     1       2.220   6.152  19.798  0.00  0.00    +0.000 A 
ATOM     24  C   UNL     1       1.750   5.363  20.852  0.00  0.00    +0.000 A 
ATOM     25  C   UNL     1       1.942   3.981  20.857  0.00  0.00    +0.000 A 
ATOM     26  C   UNL     1       2.634   3.373  19.816  0.00  0.00    +0.000 A 
ATOM     27  C   UNL     1       3.115   4.148  18.763  0.00  0.00    +0.000 A 
ATOM     28  C   UNL     1       2.846   5.526  18.719  0.00  0.00    +0.000 A 
BRANCH  27  29
ATOM     29  O   UNL     1       3.826   3.482  17.790  0.00  0.00    +0.000 OA
BRANCH  29  30
ATOM     30  C   UNL     1       4.959   4.073  17.267  0.00  0.00    +0.000 A 
ATOM     31  C   UNL     1       6.081   4.434  18.019  0.00  0.00    +0.000 A 
ATOM     32  C   UNL     1       7.148   5.097  17.413  0.00  0.00    +0.000 A 
ATOM     33  C   UNL     1       7.128   5.338  16.041  0.00  0.00    +0.000 A 
ATOM     34  C   UNL     1       6.045   4.909  15.274  0.00  0.00    +0.000 A 
ATOM     35  C   UNL     1       4.960   4.278  15.886  0.00  0.00    +0.000 A 
ENDBRANCH  29  30
ENDBRANCH  27  29
ENDBRANCH  21  23
ENDBRANCH   8  19
TORSDOF 6
ENDMDL
MODEL 6
REMARK VINA RESULT:      -9.7      4.920      7.670
REMARK  Name = 
REMARK  7 active torsions:
REMARK  status: ('A' for Active; 'I' for Inactive)
REMARK    1  A    between atoms: C_1  and  C_2
REMARK    2  A    between atoms: C_2  and  C_4
REMARK    3  A    between atoms: C_8  and  C_9
REMARK    4  A    between atoms: C_16  and  C_17
REMARK    5  A    between atoms: N_19  and  C_20
REMARK    6  A    between atoms: C_24  and  O_25
REMARK    7  A    between atoms: O_25  and  C_26
REMARK                            x       y       z     vdW  Elec       q    Type
REMARK                         _______ _______ _______ _____ _____    ______ ____
ROOT
ATOM      1  C   UNL     1       4.470   4.906  17.833  0.00  0.00    +0.000 A 
ATOM      2  C   UNL     1       4.208   4.093  16.713  0.00  0.00    +0.000 A 
ATOM      3  C   UNL     1       5.197   3.861  15.757  0.00  0.00    +0.000 A 
ATOM      4  N   UNL     1       6.437   4.380  15.815  0.00  0.00    +0.000 NA
ATOM      5  C   UNL     1       6.668   5.136  16.891  0.00  0.00    +0.000 A 
ATOM      6  C   UNL     1       5.769   5.412  17.904  0.00  0.00    +0.000 A 
ATOM      7  C   UNL     1       6.450   6.250  18.918  0.00  0.00    +0.000 C 
ATOM      8  C   UNL     1       7.813   6.483  18.244  0.00  0.00    +0.000 C 
ATOM      9  O   UNL     1       7.906   5.726  17.030  0.00  0.00    +0.000 OA
ENDROOT
BRANCH   1  14
ATOM     10  C   UNL     1       1.943   6.697  20.089  0.00  0.00    +0.000 A 
ATOM     11  C   UNL     1       1.446   5.628  20.837  0.00  0.00    +0.000 A 
ATOM     12  C   UNL     1       1.897   4.337  20.587  0.00  0.00    +0.000 A 
ATOM     13  C   UNL     1       2.848   4.112  19.588  0.00  0.00    +0.000 A 
ATOM     14  C   UNL     1       3.396   5.166  18.828  0.00  0.00    +0.000 A 
ATOM     15  C   UNL     1       2.913   6.460  19.099  0.00  0.00    +0.000 A 
BRANCH  10  17
ATOM     16  C   UNL     1       0.810   8.341  21.732  0.00  0.00    +0.000 C 
ATOM     17  C   UNL     1       1.436   8.071  20.389  0.00  0.00    +0.000 C 
ATOM     18  O   UNL     1       1.541   8.960  19.548  0.00  0.00    +0.000 OA
ENDBRANCH  10  17
ENDBRANCH   1  14
BRANCH   8  19
ATOM     19  C   UNL     1       8.077   7.976  18.038  0.00  0.00    +0.000 C 
ATOM     20  O   UNL     1       7.531   8.579  17.112  0.00  0.00    +0.000 OA
ATOM     21  N   UNL     1       8.890   8.544  19.005  0.00  0.00    +0.000 N 
ATOM     22  H   UNL     1       9.408   7.897  19.590  0.00  0.00    +0.000 HD
BRANCH  21  23
ATOM     23  C   UNL     1       9.218   9.917  19.105  0.00  0.00    +0.000 A 
ATOM     24  C   UNL     1       9.647  10.682  18.016  0.00  0.00    +0.000 A 
ATOM     25  C   UNL     1      10.022  12.015  18.178  0.00  0.00    +0.000 A 
ATOM     26  C   UNL     1       9.998  12.594  19.441  0.00  0.00    +0.000 A 
ATOM     27  C   UNL     1       9.581  11.841  20.536  0.00  0.00    +0.000 A 
ATOM     28  C   UNL     1       9.125  10.526  20.358  0.00  0.00    +0.000 A 
BRANCH  27  29
ATOM     29  O   UNL     1       9.625  12.470  21.761  0.00  0.00    +0.000 OA
BRANCH  29  30
ATOM     30  C   UNL     1       8.469  12.559  22.510  0.00  0.00    +0.000 A 
ATOM     31  C   UNL     1       8.129  11.683  23.546  0.00  0.00    +0.000 A 
ATOM     32  C   UNL     1       6.900  11.807  24.194  0.00  0.00    +0.000 A 
ATOM     33  C   UNL     1       6.038  12.849  23.858  0.00  0.00    +0.000 A 
ATOM     34  C   UNL     1       6.408  13.770  22.878  0.00  0.00    +0.000 A 
ATOM     35  C   UNL     1       7.622  13.625  22.203  0.00  0.00    +0.000 A 
ENDBRANCH  29  30
ENDBRANCH  27  29
ENDBRANCH  21  23
ENDBRANCH   8  19
TORSDOF 6
ENDMDL
MODEL 7
REMARK VINA RESULT:      -9.6      3.077     10.563
REMARK  Name = 
REMARK  7 active torsions:
REMARK  status: ('A' for Active; 'I' for Inactive)
REMARK    1  A    between atoms: C_1  and  C_2
REMARK    2  A    between atoms: C_2  and  C_4
REMARK    3  A    between atoms: C_8  and  C_9
REMARK    4  A    between atoms: C_16  and  C_17
REMARK    5  A    between atoms: N_19  and  C_20
REMARK    6  A    between atoms: C_24  and  O_25
REMARK    7  A    between atoms: O_25  and  C_26
REMARK                            x       y       z     vdW  Elec       q    Type
REMARK                         _______ _______ _______ _____ _____    ______ ____
ROOT
ATOM      1  C   UNL     1       0.594  12.242  20.148  0.00  0.00    +0.000 A 
ATOM      2  C   UNL     1       1.218  13.503  20.073  0.00  0.00    +0.000 A 
ATOM      3  C   UNL     1       2.209  13.749  19.123  0.00  0.00    +0.000 A 
ATOM      4  N   UNL     1       2.643  12.838  18.234  0.00  0.00    +0.000 NA
ATOM      5  C   UNL     1       2.029  11.655  18.313  0.00  0.00    +0.000 A 
ATOM      6  C   UNL     1       1.025  11.313  19.200  0.00  0.00    +0.000 A 
ATOM      7  C   UNL     1       0.601   9.924  18.913  0.00  0.00    +0.000 C 
ATOM      8  C   UNL     1       1.606   9.526  17.818  0.00  0.00    +0.000 C 
ATOM      9  O   UNL     1       2.417  10.650  17.454  0.00  0.00    +0.000 OA
ENDROOT
BRANCH   1  14
ATOM     10  C   UNL     1      -2.555  12.540  22.310  0.00  0.00    +0.000 A 
ATOM     11  C   UNL     1      -2.316  11.555  23.271  0.00  0.00    +0.000 A 
ATOM     12  C   UNL     1      -1.166  10.778  23.195  0.00  0.00    +0.000 A 
ATOM     13  C   UNL     1      -0.251  10.985  22.160  0.00  0.00    +0.000 A 
ATOM     14  C   UNL     1      -0.440  11.988  21.186  0.00  0.00    +0.000 A 
ATOM     15  C   UNL     1      -1.617  12.752  21.283  0.00  0.00    +0.000 A 
BRANCH  10  17
ATOM     16  C   UNL     1      -4.571  13.699  21.177  0.00  0.00    +0.000 C 
ATOM     17  C   UNL     1      -3.801  13.357  22.426  0.00  0.00    +0.000 C 
ATOM     18  O   UNL     1      -4.186  13.734  23.531  0.00  0.00    +0.000 OA
ENDBRANCH  10  17
ENDBRANCH   1  14
BRANCH   8  19
ATOM     19  C   UNL     1       2.430   8.308  18.244  0.00  0.00    +0.000 C 
ATOM     20  O   UNL     1       2.187   7.738  19.309  0.00  0.00    +0.000 OA
ATOM     21  N   UNL     1       3.368   7.906  17.307  0.00  0.00    +0.000 N 
ATOM     22  H   UNL     1       3.579   8.573  16.572  0.00  0.00    +0.000 HD
BRANCH  21  23
ATOM     23  C   UNL     1       4.195   6.763  17.405  0.00  0.00    +0.000 A 
ATOM     24  C   UNL     1       5.555   6.772  17.078  0.00  0.00    +0.000 A 
ATOM     25  C   UNL     1       6.314   5.603  17.129  0.00  0.00    +0.000 A 
ATOM     26  C   UNL     1       5.713   4.401  17.483  0.00  0.00    +0.000 A 
ATOM     27  C   UNL     1       4.358   4.376  17.803  0.00  0.00    +0.000 A 
ATOM     28  C   UNL     1       3.616   5.567  17.833  0.00  0.00    +0.000 A 
BRANCH  27  29
ATOM     29  O   UNL     1       3.824   3.141  18.103  0.00  0.00    +0.000 OA
BRANCH  29  30
ATOM     30  C   UNL     1       3.023   3.012  19.220  0.00  0.00    +0.000 A 
ATOM     31  C   UNL     1       3.501   2.768  20.511  0.00  0.00    +0.000 A 
ATOM     32  C   UNL     1       2.608   2.576  21.565  0.00  0.00    +0.000 A 
ATOM     33  C   UNL     1       1.237   2.697  21.346  0.00  0.00    +0.000 A 
ATOM     34  C   UNL     1       0.760   3.018  20.075  0.00  0.00    +0.000 A 
ATOM     35  C   UNL     1       1.652   3.173  19.012  0.00  0.00    +0.000 A 
ENDBRANCH  29  30
ENDBRANCH  27  29
ENDBRANCH  21  23
ENDBRANCH   8  19
TORSDOF 6
ENDMDL
MODEL 8
REMARK VINA RESULT:      -9.5      5.245      7.439
REMARK  Name = 
REMARK  7 active torsions:
REMARK  status: ('A' for Active; 'I' for Inactive)
REMARK    1  A    between atoms: C_1  and  C_2
REMARK    2  A    between atoms: C_2  and  C_4
REMARK    3  A    between atoms: C_8  and  C_9
REMARK    4  A    between atoms: C_16  and  C_17
REMARK    5  A    between atoms: N_19  and  C_20
REMARK    6  A    between atoms: C_24  and  O_25
REMARK    7  A    between atoms: O_25  and  C_26
REMARK                            x       y       z     vdW  Elec       q    Type
REMARK                         _______ _______ _______ _____ _____    ______ ____
ROOT
ATOM      1  C   UNL     1       4.704   5.365  17.457  0.00  0.00    +0.000 A 
ATOM      2  C   UNL     1       4.407   4.777  16.212  0.00  0.00    +0.000 A 
ATOM      3  C   UNL     1       5.327   4.827  15.165  0.00  0.00    +0.000 A 
ATOM      4  N   UNL     1       6.530   5.423  15.248  0.00  0.00    +0.000 NA
ATOM      5  C   UNL     1       6.798   5.960  16.441  0.00  0.00    +0.000 A 
ATOM      6  C   UNL     1       5.968   5.950  17.546  0.00  0.00    +0.000 A 
ATOM      7  C   UNL     1       6.672   6.616  18.666  0.00  0.00    +0.000 C 
ATOM      8  C   UNL     1       7.957   7.092  17.967  0.00  0.00    +0.000 C 
ATOM      9  O   UNL     1       8.001   6.608  16.619  0.00  0.00    +0.000 OA
ENDROOT
BRANCH   1  14
ATOM     10  C   UNL     1       2.203   4.105  20.073  0.00  0.00    +0.000 A 
ATOM     11  C   UNL     1       1.679   5.311  20.545  0.00  0.00    +0.000 A 
ATOM     12  C   UNL     1       2.158   6.517  20.049  0.00  0.00    +0.000 A 
ATOM     13  C   UNL     1       3.162   6.522  19.077  0.00  0.00    +0.000 A 
ATOM     14  C   UNL     1       3.700   5.328  18.553  0.00  0.00    +0.000 A 
ATOM     15  C   UNL     1       3.201   4.123  19.081  0.00  0.00    +0.000 A 
BRANCH  10  17
ATOM     16  C   UNL     1       1.045   1.826  19.688  0.00  0.00    +0.000 C 
ATOM     17  C   UNL     1       1.660   2.829  20.628  0.00  0.00    +0.000 C 
ATOM     18  O   UNL     1       1.726   2.609  21.836  0.00  0.00    +0.000 OA
ENDBRANCH  10  17
ENDBRANCH   1  14
BRANCH   8  19
ATOM     19  C   UNL     1       8.104   8.613  18.061  0.00  0.00    +0.000 C 
ATOM     20  O   UNL     1       7.370   9.348  17.397  0.00  0.00    +0.000 OA
ATOM     21  N   UNL     1       9.049   9.033  18.983  0.00  0.00    +0.000 N 
ATOM     22  H   UNL     1       9.695   8.325  19.314  0.00  0.00    +0.000 HD
BRANCH  21  23
ATOM     23  C   UNL     1       9.320  10.376  19.333  0.00  0.00    +0.000 A 
ATOM     24  C   UNL     1       9.769  11.330  18.414  0.00  0.00    +0.000 A 
ATOM     25  C   UNL     1      10.085  12.626  18.820  0.00  0.00    +0.000 A 
ATOM     26  C   UNL     1       9.982  12.978  20.161  0.00  0.00    +0.000 A 
ATOM     27  C   UNL     1       9.544  12.036  21.089  0.00  0.00    +0.000 A 
ATOM     28  C   UNL     1       9.146  10.758  20.665  0.00  0.00    +0.000 A 
BRANCH  27  29
ATOM     29  O   UNL     1       9.508  12.444  22.404  0.00  0.00    +0.000 OA
BRANCH  29  30
ATOM     30  C   UNL     1       8.303  12.424  23.078  0.00  0.00    +0.000 A 
ATOM     31  C   UNL     1       7.097  12.899  22.555  0.00  0.00    +0.000 A 
ATOM     32  C   UNL     1       5.946  12.906  23.342  0.00  0.00    +0.000 A 
ATOM     33  C   UNL     1       5.979  12.374  24.629  0.00  0.00    +0.000 A 
ATOM     34  C   UNL     1       7.163  11.828  25.126  0.00  0.00    +0.000 A 
ATOM     35  C   UNL     1       8.325  11.854  24.352  0.00  0.00    +0.000 A 
ENDBRANCH  29  30
ENDBRANCH  27  29
ENDBRANCH  21  23
ENDBRANCH   8  19
TORSDOF 6
ENDMDL
MODEL 9
REMARK VINA RESULT:      -9.5      3.312     10.230
REMARK  Name = 
REMARK  7 active torsions:
REMARK  status: ('A' for Active; 'I' for Inactive)
REMARK    1  A    between atoms: C_1  and  C_2
REMARK    2  A    between atoms: C_2  and  C_4
REMARK    3  A    between atoms: C_8  and  C_9
REMARK    4  A    between atoms: C_16  and  C_17
REMARK    5  A    between atoms: N_19  and  C_20
REMARK    6  A    between atoms: C_24  and  O_25
REMARK    7  A    between atoms: O_25  and  C_26
REMARK                            x       y       z     vdW  Elec       q    Type
REMARK                         _______ _______ _______ _____ _____    ______ ____
ROOT
ATOM      1  C   UNL     1      -2.005  11.987  20.051  0.00  0.00    +0.000 A 
ATOM      2  C   UNL     1      -2.317  12.959  21.022  0.00  0.00    +0.000 A 
ATOM      3  C   UNL     1      -1.443  13.214  22.078  0.00  0.00    +0.000 A 
ATOM      4  N   UNL     1      -0.272  12.576  22.258  0.00  0.00    +0.000 NA
ATOM      5  C   UNL     1       0.011  11.670  21.318  0.00  0.00    +0.000 A 
ATOM      6  C   UNL     1      -0.773  11.354  20.225  0.00  0.00    +0.000 A 
ATOM      7  C   UNL     1      -0.064  10.333  19.420  0.00  0.00    +0.000 C 
ATOM      8  C   UNL     1       1.165  10.059  20.305  0.00  0.00    +0.000 C 
ATOM      9  O   UNL     1       1.182  10.952  21.425  0.00  0.00    +0.000 OA
ENDROOT
BRANCH   1  14
ATOM     10  C   UNL     1      -3.487  10.817  16.717  0.00  0.00    +0.000 A 
ATOM     11  C   UNL     1      -4.787  11.320  16.809  0.00  0.00    +0.000 A 
ATOM     12  C   UNL     1      -5.189  11.997  17.955  0.00  0.00    +0.000 A 
ATOM     13  C   UNL     1      -4.291  12.174  19.012  0.00  0.00    +0.000 A 
ATOM     14  C   UNL     1      -2.962  11.707  18.948  0.00  0.00    +0.000 A 
ATOM     15  C   UNL     1      -2.588  11.018  17.779  0.00  0.00    +0.000 A 
BRANCH  10  17
ATOM     16  C   UNL     1      -3.964  10.219  14.247  0.00  0.00    +0.000 C 
ATOM     17  C   UNL     1      -3.091  10.098  15.468  0.00  0.00    +0.000 C 
ATOM     18  O   UNL     1      -2.063   9.425  15.449  0.00  0.00    +0.000 OA
ENDBRANCH  10  17
ENDBRANCH   1  14
BRANCH   8  19
ATOM     19  C   UNL     1       1.229   8.585  20.714  0.00  0.00    +0.000 C 
ATOM     20  O   UNL     1       0.564   8.178  21.668  0.00  0.00    +0.000 OA
ATOM     21  N   UNL     1       2.016   7.803  19.884  0.00  0.00    +0.000 N 
ATOM     22  H   UNL     1       2.641   8.303  19.261  0.00  0.00    +0.000 HD
BRANCH  21  23
ATOM     23  C   UNL     1       2.177   6.401  19.980  0.00  0.00    +0.000 A 
ATOM     24  C   UNL     1       1.226   5.561  20.569  0.00  0.00    +0.000 A 
ATOM     25  C   UNL     1       1.459   4.192  20.699  0.00  0.00    +0.000 A 
ATOM     26  C   UNL     1       2.662   3.648  20.264  0.00  0.00    +0.000 A 
ATOM     27  C   UNL     1       3.621   4.475  19.683  0.00  0.00    +0.000 A 
ATOM     28  C   UNL     1       3.350   5.837  19.477  0.00  0.00    +0.000 A 
BRANCH  27  29
ATOM     29  O   UNL     1       4.804   3.872  19.315  0.00  0.00    +0.000 OA
BRANCH  29  30
ATOM     30  C   UNL     1       5.348   4.164  18.080  0.00  0.00    +0.000 A 
ATOM     31  C   UNL     1       4.730   3.882  16.858  0.00  0.00    +0.000 A 
ATOM     32  C   UNL     1       5.393   4.144  15.660  0.00  0.00    +0.000 A 
ATOM     33  C   UNL     1       6.645   4.754  15.677  0.00  0.00    +0.000 A 
ATOM     34  C   UNL     1       7.231   5.108  16.892  0.00  0.00    +0.000 A 
ATOM     35  C   UNL     1       6.584   4.812  18.093  0.00  0.00    +0.000 A 
ENDBRANCH  29  30
ENDBRANCH  27  29
ENDBRANCH  21  23
ENDBRANCH   8  19
TORSDOF 6
ENDMDL
