MODEL 1
REMARK VINA RESULT:      -7.3      0.000      0.000
REMARK  Name = 
REMARK  13 active torsions:
REMARK  status: ('A' for Active; 'I' for Inactive)
REMARK    1  A    between atoms: C_1  and  C_2
REMARK    2  A    between atoms: C_2  and  C_3
REMARK    3  A    between atoms: C_3  and  C_4
REMARK    4  A    between atoms: C_4  and  C_5
REMARK    5  A    between atoms: C_5  and  C_6
REMARK    6  A    between atoms: C_6  and  O_7
REMARK    7  A    between atoms: C_6  and  C_8
REMARK    8  A    between atoms: C_9  and  C_10
REMARK    9  A    between atoms: C_14  and  C_15
REMARK   10  A    between atoms: C_15  and  C_16
REMARK   11  A    between atoms: C_16  and  C_17
REMARK   12  A    between atoms: C_17  and  C_18
REMARK   13  A    between atoms: C_26  and  O_27
REMARK                            x       y       z     vdW  Elec       q    Type
REMARK                         _______ _______ _______ _____ _____    ______ ____
ROOT
ATOM      1  C   UNL     1       4.771   5.547  17.281  0.00  0.00    +0.000 C 
ATOM      2  C   UNL     1       5.626   4.245  17.277  0.00  0.00    +0.000 C 
ATOM      3  C   UNL     1       5.536   3.470  15.987  0.00  0.00    +0.000 C 
ATOM      4  C   UNL     1       6.526   4.219  15.161  0.00  0.00    +0.000 C 
ATOM      5  C   UNL     1       6.469   4.459  13.844  0.00  0.00    +0.000 C 
ATOM      6  O   UNL     1       7.526   4.801  15.928  0.00  0.00    +0.000 OA
ATOM      7  C   UNL     1       7.086   4.708  17.296  0.00  0.00    +0.000 C 
ATOM      8  C   UNL     1       7.010   6.084  17.940  0.00  0.00    +0.000 C 
ATOM      9  F   UNL     1       8.127   6.816  17.774  0.00  0.00    +0.000 F 
ATOM     10  F   UNL     1       6.808   5.971  19.283  0.00  0.00    +0.000 F 
ATOM     11  C   UNL     1       5.782   6.713  17.285  0.00  0.00    +0.000 C 
ENDROOT
BRANCH   1  13
ATOM     12  C   UNL     1       3.117   5.542  19.517  0.00  0.00    +0.000 C 
ATOM     13  C   UNL     1       3.889   5.544  18.467  0.00  0.00    +0.000 C 
BRANCH  12  14
ATOM     14  C   UNL     1       2.215   5.538  20.742  0.00  0.00    +0.000 C 
BRANCH  14  15
ATOM     15  O   UNL     1       1.655   6.846  20.930  0.00  0.00    +0.000 OA
ATOM     16  H   UNL     1       1.923   7.354  20.140  0.00  0.00    +0.000 HD
ENDBRANCH  14  15
BRANCH  14  17
ATOM     17  C   UNL     1       1.056   4.553  20.555  0.00  0.00    +0.000 C 
BRANCH  17  18
ATOM     18  C   UNL     1       1.331   3.195  21.199  0.00  0.00    +0.000 C 
BRANCH  18  19
ATOM     19  C   UNL     1       1.754   2.146  20.172  0.00  0.00    +0.000 C 
BRANCH  19  21
ATOM     20  C   UNL     1       2.297   2.343  17.714  0.00  0.00    +0.000 C 
ATOM     21  C   UNL     1       1.236   2.525  18.784  0.00  0.00    +0.000 C 
ENDBRANCH  19  21
ENDBRANCH  18  19
ENDBRANCH  17  18
ENDBRANCH  14  17
ENDBRANCH  12  14
ENDBRANCH   1  13
BRANCH  11  22
ATOM     22  O   UNL     1       5.301   7.889  17.943  0.00  0.00    +0.000 OA
ATOM     23  H   UNL     1       4.912   7.601  18.789  0.00  0.00    +0.000 HD
ENDBRANCH  11  22
BRANCH   5  24
ATOM     24  C   UNL     1       5.387   4.000  12.911  0.00  0.00    +0.000 C 
BRANCH  24  25
ATOM     25  C   UNL     1       5.918   3.353  11.624  0.00  0.00    +0.000 C 
BRANCH  25  26
ATOM     26  C   UNL     1       5.429   1.926  11.395  0.00  0.00    +0.000 C 
BRANCH  26  27
ATOM     27  C   UNL     1       6.533   0.902  11.095  0.00  0.00    +0.000 C 
ATOM     28  O   UNL     1       7.699   1.361  10.963  0.00  0.00    +0.000 OA
ATOM     29  O   UNL     1       6.130  -0.293  10.999  0.00  0.00    +0.000 OA
ENDBRANCH  26  27
ENDBRANCH  25  26
ENDBRANCH  24  25
ENDBRANCH   5  24
TORSDOF 12
ENDMDL
MODEL 2
REMARK VINA RESULT:      -7.3      3.958      6.141
REMARK  Name = 
REMARK  13 active torsions:
REMARK  status: ('A' for Active; 'I' for Inactive)
REMARK    1  A    between atoms: C_1  and  C_2
REMARK    2  A    between atoms: C_2  and  C_3
REMARK    3  A    between atoms: C_3  and  C_4
REMARK    4  A    between atoms: C_4  and  C_5
REMARK    5  A    between atoms: C_5  and  C_6
REMARK    6  A    between atoms: C_6  and  O_7
REMARK    7  A    between atoms: C_6  and  C_8
REMARK    8  A    between atoms: C_9  and  C_10
REMARK    9  A    between atoms: C_14  and  C_15
REMARK   10  A    between atoms: C_15  and  C_16
REMARK   11  A    between atoms: C_16  and  C_17
REMARK   12  A    between atoms: C_17  and  C_18
REMARK   13  A    between atoms: C_26  and  O_27
REMARK                            x       y       z     vdW  Elec       q    Type
REMARK                         _______ _______ _______ _____ _____    ______ ____
ROOT
ATOM      1  C   UNL     1       2.809   5.441  19.730  0.00  0.00    +0.000 C 
ATOM      2  C   UNL     1       2.198   5.347  18.300  0.00  0.00    +0.000 C 
ATOM      3  C   UNL     1       3.227   5.419  17.200  0.00  0.00    +0.000 C 
ATOM      4  C   UNL     1       3.690   4.002  17.182  0.00  0.00    +0.000 C 
ATOM      5  C   UNL     1       4.929   3.556  16.931  0.00  0.00    +0.000 C 
ATOM      6  O   UNL     1       2.706   3.116  17.596  0.00  0.00    +0.000 OA
ATOM      7  C   UNL     1       1.660   3.919  18.172  0.00  0.00    +0.000 C 
ATOM      8  C   UNL     1       1.391   3.514  19.613  0.00  0.00    +0.000 C 
ATOM      9  F   UNL     1       1.214   2.190  19.775  0.00  0.00    +0.000 F 
ATOM     10  F   UNL     1       0.264   4.123  20.077  0.00  0.00    +0.000 F 
ATOM     11  C   UNL     1       2.610   4.048  20.363  0.00  0.00    +0.000 C 
ENDROOT
BRANCH   1  13
ATOM     12  C   UNL     1       1.527   7.471  21.135  0.00  0.00    +0.000 C 
ATOM     13  C   UNL     1       2.127   6.518  20.479  0.00  0.00    +0.000 C 
BRANCH  12  14
ATOM     14  C   UNL     1       0.828   8.583  21.901  0.00  0.00    +0.000 C 
BRANCH  14  15
ATOM     15  O   UNL     1       1.808   9.463  22.473  0.00  0.00    +0.000 OA
ATOM     16  H   UNL     1       2.488   8.874  22.853  0.00  0.00    +0.000 HD
ENDBRANCH  14  15
BRANCH  14  17
ATOM     17  C   UNL     1      -0.055   9.412  20.962  0.00  0.00    +0.000 C 
BRANCH  17  18
ATOM     18  C   UNL     1       0.761  10.237  19.967  0.00  0.00    +0.000 C 
BRANCH  18  19
ATOM     19  C   UNL     1       0.205  10.139  18.547  0.00  0.00    +0.000 C 
BRANCH  19  21
ATOM     20  C   UNL     1       2.417   9.112  17.896  0.00  0.00    +0.000 C 
ATOM     21  C   UNL     1       0.906   9.017  17.780  0.00  0.00    +0.000 C 
ENDBRANCH  19  21
ENDBRANCH  18  19
ENDBRANCH  17  18
ENDBRANCH  14  17
ENDBRANCH  12  14
ENDBRANCH   1  13
BRANCH  11  22
ATOM     22  O   UNL     1       2.460   4.079  21.786  0.00  0.00    +0.000 OA
ATOM     23  H   UNL     1       1.648   4.584  21.973  0.00  0.00    +0.000 HD
ENDBRANCH  11  22
BRANCH   5  24
ATOM     24  C   UNL     1       6.119   4.406  16.593  0.00  0.00    +0.000 C 
BRANCH  24  25
ATOM     25  C   UNL     1       7.107   4.568  17.757  0.00  0.00    +0.000 C 
BRANCH  25  26
ATOM     26  C   UNL     1       7.010   5.911  18.475  0.00  0.00    +0.000 C 
BRANCH  26  27
ATOM     27  C   UNL     1       7.776   7.061  17.806  0.00  0.00    +0.000 C 
ATOM     28  O   UNL     1       7.762   7.083  16.547  0.00  0.00    +0.000 OA
ATOM     29  O   UNL     1       8.350   7.850  18.612  0.00  0.00    +0.000 OA
ENDBRANCH  26  27
ENDBRANCH  25  26
ENDBRANCH  24  25
ENDBRANCH   5  24
TORSDOF 12
ENDMDL
MODEL 3
REMARK VINA RESULT:      -7.1      3.434      5.172
REMARK  Name = 
REMARK  13 active torsions:
REMARK  status: ('A' for Active; 'I' for Inactive)
REMARK    1  A    between atoms: C_1  and  C_2
REMARK    2  A    between atoms: C_2  and  C_3
REMARK    3  A    between atoms: C_3  and  C_4
REMARK    4  A    between atoms: C_4  and  C_5
REMARK    5  A    between atoms: C_5  and  C_6
REMARK    6  A    between atoms: C_6  and  O_7
REMARK    7  A    between atoms: C_6  and  C_8
REMARK    8  A    between atoms: C_9  and  C_10
REMARK    9  A    between atoms: C_14  and  C_15
REMARK   10  A    between atoms: C_15  and  C_16
REMARK   11  A    between atoms: C_16  and  C_17
REMARK   12  A    between atoms: C_17  and  C_18
REMARK   13  A    between atoms: C_26  and  O_27
REMARK                            x       y       z     vdW  Elec       q    Type
REMARK                         _______ _______ _______ _____ _____    ______ ____
ROOT
ATOM      1  C   UNL     1       2.827   5.577  19.757  0.00  0.00    +0.000 C 
ATOM      2  C   UNL     1       2.287   5.434  18.303  0.00  0.00    +0.000 C 
ATOM      3  C   UNL     1       3.361   5.537  17.248  0.00  0.00    +0.000 C 
ATOM      4  C   UNL     1       3.889   4.143  17.276  0.00  0.00    +0.000 C 
ATOM      5  C   UNL     1       5.157   3.751  17.088  0.00  0.00    +0.000 C 
ATOM      6  O   UNL     1       2.928   3.218  17.660  0.00  0.00    +0.000 OA
ATOM      7  C   UNL     1       1.821   3.981  18.175  0.00  0.00    +0.000 C 
ATOM      8  C   UNL     1       1.506   3.585  19.608  0.00  0.00    +0.000 C 
ATOM      9  F   UNL     1       1.381   2.257  19.784  0.00  0.00    +0.000 F 
ATOM     10  F   UNL     1       0.331   4.148  20.011  0.00  0.00    +0.000 F 
ATOM     11  C   UNL     1       2.663   4.186  20.403  0.00  0.00    +0.000 C 
ENDROOT
BRANCH   1  13
ATOM     12  C   UNL     1       1.386   7.557  21.076  0.00  0.00    +0.000 C 
ATOM     13  C   UNL     1       2.063   6.632  20.456  0.00  0.00    +0.000 C 
BRANCH  12  14
ATOM     14  C   UNL     1       0.596   8.637  21.798  0.00  0.00    +0.000 C 
BRANCH  14  15
ATOM     15  O   UNL     1       1.502   9.537  22.455  0.00  0.00    +0.000 OA
ATOM     16  H   UNL     1       2.302   9.547  21.895  0.00  0.00    +0.000 HD
ENDBRANCH  14  15
BRANCH  14  17
ATOM     17  C   UNL     1      -0.236   9.453  20.804  0.00  0.00    +0.000 C 
BRANCH  17  18
ATOM     18  C   UNL     1       0.321  10.860  20.588  0.00  0.00    +0.000 C 
BRANCH  18  19
ATOM     19  C   UNL     1       1.097  10.976  19.276  0.00  0.00    +0.000 C 
BRANCH  19  21
ATOM     20  C   UNL     1       1.878   9.134  17.736  0.00  0.00    +0.000 C 
ATOM     21  C   UNL     1       0.678   9.865  18.313  0.00  0.00    +0.000 C 
ENDBRANCH  19  21
ENDBRANCH  18  19
ENDBRANCH  17  18
ENDBRANCH  14  17
ENDBRANCH  12  14
ENDBRANCH   1  13
BRANCH  11  22
ATOM     22  O   UNL     1       2.447   4.231  21.817  0.00  0.00    +0.000 OA
ATOM     23  H   UNL     1       2.640   5.142  22.104  0.00  0.00    +0.000 HD
ENDBRANCH  11  22
BRANCH   5  24
ATOM     24  C   UNL     1       6.321   4.649  16.790  0.00  0.00    +0.000 C 
BRANCH  24  25
ATOM     25  C   UNL     1       6.884   4.476  15.373  0.00  0.00    +0.000 C 
BRANCH  25  26
ATOM     26  C   UNL     1       5.839   4.085  14.331  0.00  0.00    +0.000 C 
BRANCH  26  27
ATOM     27  C   UNL     1       6.388   3.869  12.913  0.00  0.00    +0.000 C 
ATOM     28  O   UNL     1       7.366   4.588  12.577  0.00  0.00    +0.000 OA
ATOM     29  O   UNL     1       5.771   2.995  12.237  0.00  0.00    +0.000 OA
ENDBRANCH  26  27
ENDBRANCH  25  26
ENDBRANCH  24  25
ENDBRANCH   5  24
TORSDOF 12
ENDMDL
MODEL 4
REMARK VINA RESULT:      -7.1      3.970      6.304
REMARK  Name = 
REMARK  13 active torsions:
REMARK  status: ('A' for Active; 'I' for Inactive)
REMARK    1  A    between atoms: C_1  and  C_2
REMARK    2  A    between atoms: C_2  and  C_3
REMARK    3  A    between atoms: C_3  and  C_4
REMARK    4  A    between atoms: C_4  and  C_5
REMARK    5  A    between atoms: C_5  and  C_6
REMARK    6  A    between atoms: C_6  and  O_7
REMARK    7  A    between atoms: C_6  and  C_8
REMARK    8  A    between atoms: C_9  and  C_10
REMARK    9  A    between atoms: C_14  and  C_15
REMARK   10  A    between atoms: C_15  and  C_16
REMARK   11  A    between atoms: C_16  and  C_17
REMARK   12  A    between atoms: C_17  and  C_18
REMARK   13  A    between atoms: C_26  and  O_27
REMARK                            x       y       z     vdW  Elec       q    Type
REMARK                         _______ _______ _______ _____ _____    ______ ____
ROOT
ATOM      1  C   UNL     1       2.782   5.495  19.658  0.00  0.00    +0.000 C 
ATOM      2  C   UNL     1       2.182   5.322  18.231  0.00  0.00    +0.000 C 
ATOM      3  C   UNL     1       3.212   5.392  17.132  0.00  0.00    +0.000 C 
ATOM      4  C   UNL     1       3.732   3.995  17.171  0.00  0.00    +0.000 C 
ATOM      5  C   UNL     1       4.988   3.589  16.942  0.00  0.00    +0.000 C 
ATOM      6  O   UNL     1       2.781   3.087  17.615  0.00  0.00    +0.000 OA
ATOM      7  C   UNL     1       1.701   3.870  18.157  0.00  0.00    +0.000 C 
ATOM      8  C   UNL     1       1.442   3.511  19.611  0.00  0.00    +0.000 C 
ATOM      9  F   UNL     1       1.316   2.188  19.823  0.00  0.00    +0.000 F 
ATOM     10  F   UNL     1       0.289   4.092  20.047  0.00  0.00    +0.000 F 
ATOM     11  C   UNL     1       2.634   4.121  20.344  0.00  0.00    +0.000 C 
ENDROOT
BRANCH   1  13
ATOM     12  C   UNL     1       1.417   7.522  20.988  0.00  0.00    +0.000 C 
ATOM     13  C   UNL     1       2.054   6.572  20.362  0.00  0.00    +0.000 C 
BRANCH  12  14
ATOM     14  C   UNL     1       0.673   8.630  21.717  0.00  0.00    +0.000 C 
BRANCH  14  15
ATOM     15  O   UNL     1       1.616   9.480  22.389  0.00  0.00    +0.000 OA
ATOM     16  H   UNL     1       1.074  10.065  22.952  0.00  0.00    +0.000 HD
ENDBRANCH  14  15
BRANCH  14  17
ATOM     17  C   UNL     1      -0.115   9.493  20.726  0.00  0.00    +0.000 C 
BRANCH  17  18
ATOM     18  C   UNL     1       0.779  10.125  19.660  0.00  0.00    +0.000 C 
BRANCH  18  19
ATOM     19  C   UNL     1       0.247   9.887  18.247  0.00  0.00    +0.000 C 
BRANCH  19  21
ATOM     20  C   UNL     1      -2.031   9.856  17.159  0.00  0.00    +0.000 C 
ATOM     21  C   UNL     1      -1.074  10.631  18.047  0.00  0.00    +0.000 C 
ENDBRANCH  19  21
ENDBRANCH  18  19
ENDBRANCH  17  18
ENDBRANCH  14  17
ENDBRANCH  12  14
ENDBRANCH   1  13
BRANCH  11  22
ATOM     22  O   UNL     1       2.476   4.201  21.764  0.00  0.00    +0.000 OA
ATOM     23  H   UNL     1       1.530   4.357  21.934  0.00  0.00    +0.000 HD
ENDBRANCH  11  22
BRANCH   5  24
ATOM     24  C   UNL     1       6.146   4.471  16.576  0.00  0.00    +0.000 C 
BRANCH  24  25
ATOM     25  C   UNL     1       7.158   4.659  17.714  0.00  0.00    +0.000 C 
BRANCH  25  26
ATOM     26  C   UNL     1       6.982   5.956  18.498  0.00  0.00    +0.000 C 
BRANCH  26  27
ATOM     27  C   UNL     1       7.711   7.173  17.910  0.00  0.00    +0.000 C 
ATOM     28  O   UNL     1       8.499   7.779  18.684  0.00  0.00    +0.000 OA
ATOM     29  O   UNL     1       7.414   7.434  16.708  0.00  0.00    +0.000 OA
ENDBRANCH  26  27
ENDBRANCH  25  26
ENDBRANCH  24  25
ENDBRANCH   5  24
TORSDOF 12
ENDMDL
MODEL 5
REMARK VINA RESULT:      -7.1      2.330      7.536
REMARK  Name = 
REMARK  13 active torsions:
REMARK  status: ('A' for Active; 'I' for Inactive)
REMARK    1  A    between atoms: C_1  and  C_2
REMARK    2  A    between atoms: C_2  and  C_3
REMARK    3  A    between atoms: C_3  and  C_4
REMARK    4  A    between atoms: C_4  and  C_5
REMARK    5  A    between atoms: C_5  and  C_6
REMARK    6  A    between atoms: C_6  and  O_7
REMARK    7  A    between atoms: C_6  and  C_8
REMARK    8  A    between atoms: C_9  and  C_10
REMARK    9  A    between atoms: C_14  and  C_15
REMARK   10  A    between atoms: C_15  and  C_16
REMARK   11  A    between atoms: C_16  and  C_17
REMARK   12  A    between atoms: C_17  and  C_18
REMARK   13  A    between atoms: C_26  and  O_27
REMARK                            x       y       z     vdW  Elec       q    Type
REMARK                         _______ _______ _______ _____ _____    ______ ____
ROOT
ATOM      1  C   UNL     1       5.645   4.343  16.165  0.00  0.00    +0.000 C 
ATOM      2  C   UNL     1       4.155   4.715  16.428  0.00  0.00    +0.000 C 
ATOM      3  C   UNL     1       3.522   3.913  17.537  0.00  0.00    +0.000 C 
ATOM      4  C   UNL     1       4.006   4.678  18.722  0.00  0.00    +0.000 C 
ATOM      5  C   UNL     1       4.335   4.188  19.925  0.00  0.00    +0.000 C 
ATOM      6  O   UNL     1       4.227   6.018  18.436  0.00  0.00    +0.000 OA
ATOM      7  C   UNL     1       4.177   6.134  17.002  0.00  0.00    +0.000 C 
ATOM      8  C   UNL     1       5.472   6.714  16.456  0.00  0.00    +0.000 C 
ATOM      9  F   UNL     1       5.862   7.840  17.082  0.00  0.00    +0.000 F 
ATOM     10  F   UNL     1       5.337   7.023  15.135  0.00  0.00    +0.000 F 
ATOM     11  C   UNL     1       6.468   5.568  16.617  0.00  0.00    +0.000 C 
ENDROOT
BRANCH   1  13
ATOM     12  C   UNL     1       5.968   3.748  13.466  0.00  0.00    +0.000 C 
ATOM     13  C   UNL     1       5.820   4.029  14.731  0.00  0.00    +0.000 C 
BRANCH  12  14
ATOM     14  C   UNL     1       6.142   3.421  11.992  0.00  0.00    +0.000 C 
BRANCH  14  15
ATOM     15  O   UNL     1       7.439   2.840  11.778  0.00  0.00    +0.000 OA
ATOM     16  H   UNL     1       7.931   3.503  11.257  0.00  0.00    +0.000 HD
ENDBRANCH  14  15
BRANCH  14  17
ATOM     17  C   UNL     1       5.092   2.402  11.538  0.00  0.00    +0.000 C 
BRANCH  17  18
ATOM     18  C   UNL     1       3.702   3.021  11.387  0.00  0.00    +0.000 C 
BRANCH  18  19
ATOM     19  C   UNL     1       3.704   4.212  10.429  0.00  0.00    +0.000 C 
BRANCH  19  21
ATOM     20  C   UNL     1       2.365   5.312   8.594  0.00  0.00    +0.000 C 
ATOM     21  C   UNL     1       2.639   4.024   9.349  0.00  0.00    +0.000 C 
ENDBRANCH  19  21
ENDBRANCH  18  19
ENDBRANCH  17  18
ENDBRANCH  14  17
ENDBRANCH  12  14
ENDBRANCH   1  13
BRANCH  11  22
ATOM     22  O   UNL     1       7.689   5.740  15.890  0.00  0.00    +0.000 OA
ATOM     23  H   UNL     1       7.457   6.168  15.046  0.00  0.00    +0.000 HD
ENDBRANCH  11  22
BRANCH   5  24
ATOM     24  C   UNL     1       4.267   2.747  20.338  0.00  0.00    +0.000 C 
BRANCH  24  25
ATOM     25  C   UNL     1       2.903   2.336  20.910  0.00  0.00    +0.000 C 
BRANCH  25  26
ATOM     26  C   UNL     1       1.919   1.816  19.866  0.00  0.00    +0.000 C 
BRANCH  26  27
ATOM     27  C   UNL     1       0.807   2.801  19.476  0.00  0.00    +0.000 C 
ATOM     28  O   UNL     1       0.097   2.477  18.487  0.00  0.00    +0.000 OA
ATOM     29  O   UNL     1       0.749   3.841  20.194  0.00  0.00    +0.000 OA
ENDBRANCH  26  27
ENDBRANCH  25  26
ENDBRANCH  24  25
ENDBRANCH   5  24
TORSDOF 12
ENDMDL
MODEL 6
REMARK VINA RESULT:      -7.0      2.191      6.753
REMARK  Name = 
REMARK  13 active torsions:
REMARK  status: ('A' for Active; 'I' for Inactive)
REMARK    1  A    between atoms: C_1  and  C_2
REMARK    2  A    between atoms: C_2  and  C_3
REMARK    3  A    between atoms: C_3  and  C_4
REMARK    4  A    between atoms: C_4  and  C_5
REMARK    5  A    between atoms: C_5  and  C_6
REMARK    6  A    between atoms: C_6  and  O_7
REMARK    7  A    between atoms: C_6  and  C_8
REMARK    8  A    between atoms: C_9  and  C_10
REMARK    9  A    between atoms: C_14  and  C_15
REMARK   10  A    between atoms: C_15  and  C_16
REMARK   11  A    between atoms: C_16  and  C_17
REMARK   12  A    between atoms: C_17  and  C_18
REMARK   13  A    between atoms: C_26  and  O_27
REMARK                            x       y       z     vdW  Elec       q    Type
REMARK                         _______ _______ _______ _____ _____    ______ ____
ROOT
ATOM      1  C   UNL     1       4.867   4.557  16.993  0.00  0.00    +0.000 C 
ATOM      2  C   UNL     1       4.127   5.887  17.322  0.00  0.00    +0.000 C 
ATOM      3  C   UNL     1       2.701   5.687  17.772  0.00  0.00    +0.000 C 
ATOM      4  C   UNL     1       2.923   5.360  19.209  0.00  0.00    +0.000 C 
ATOM      5  C   UNL     1       2.216   4.511  19.967  0.00  0.00    +0.000 C 
ATOM      6  O   UNL     1       4.075   5.946  19.716  0.00  0.00    +0.000 OA
ATOM      7  C   UNL     1       4.807   6.439  18.579  0.00  0.00    +0.000 C 
ATOM      8  C   UNL     1       6.200   5.832  18.521  0.00  0.00    +0.000 C 
ATOM      9  F   UNL     1       6.873   5.920  19.682  0.00  0.00    +0.000 F 
ATOM     10  F   UNL     1       6.956   6.462  17.578  0.00  0.00    +0.000 F 
ATOM     11  C   UNL     1       5.939   4.390  18.091  0.00  0.00    +0.000 C 
ENDROOT
BRANCH   1  13
ATOM     12  C   UNL     1       5.947   4.730  14.435  0.00  0.00    +0.000 C 
ATOM     13  C   UNL     1       5.443   4.646  15.634  0.00  0.00    +0.000 C 
BRANCH  12  14
ATOM     14  C   UNL     1       6.534   4.828  13.036  0.00  0.00    +0.000 C 
BRANCH  14  15
ATOM     15  O   UNL     1       7.863   5.367  13.109  0.00  0.00    +0.000 OA
ATOM     16  H   UNL     1       8.001   5.578  14.052  0.00  0.00    +0.000 HD
ENDBRANCH  14  15
BRANCH  14  17
ATOM     17  C   UNL     1       6.627   3.440  12.392  0.00  0.00    +0.000 C 
BRANCH  17  18
ATOM     18  C   UNL     1       5.253   2.835  12.104  0.00  0.00    +0.000 C 
BRANCH  18  19
ATOM     19  C   UNL     1       4.288   3.857  11.504  0.00  0.00    +0.000 C 
BRANCH  19  21
ATOM     20  C   UNL     1       2.827   4.179   9.471  0.00  0.00    +0.000 C 
ATOM     21  C   UNL     1       3.375   3.184  10.478  0.00  0.00    +0.000 C 
ENDBRANCH  19  21
ENDBRANCH  18  19
ENDBRANCH  17  18
ENDBRANCH  14  17
ENDBRANCH  12  14
ENDBRANCH   1  13
BRANCH  11  22
ATOM     22  O   UNL     1       7.105   3.685  17.654  0.00  0.00    +0.000 OA
ATOM     23  H   UNL     1       7.741   4.355  17.345  0.00  0.00    +0.000 HD
ENDBRANCH  11  22
BRANCH   5  24
ATOM     24  C   UNL     1       1.025   3.715  19.521  0.00  0.00    +0.000 C 
BRANCH  24  25
ATOM     25  C   UNL     1       1.346   2.244  19.221  0.00  0.00    +0.000 C 
BRANCH  25  26
ATOM     26  C   UNL     1       2.321   2.042  18.064  0.00  0.00    +0.000 C 
BRANCH  26  27
ATOM     27  C   UNL     1       3.691   1.476  18.462  0.00  0.00    +0.000 C 
ATOM     28  O   UNL     1       4.139   1.834  19.584  0.00  0.00    +0.000 OA
ATOM     29  O   UNL     1       4.220   0.720  17.596  0.00  0.00    +0.000 OA
ENDBRANCH  26  27
ENDBRANCH  25  26
ENDBRANCH  24  25
ENDBRANCH   5  24
TORSDOF 12
ENDMDL
MODEL 7
REMARK VINA RESULT:      -6.9      2.132      7.652
REMARK  Name = 
REMARK  13 active torsions:
REMARK  status: ('A' for Active; 'I' for Inactive)
REMARK    1  A    between atoms: C_1  and  C_2
REMARK    2  A    between atoms: C_2  and  C_3
REMARK    3  A    between atoms: C_3  and  C_4
REMARK    4  A    between atoms: C_4  and  C_5
REMARK    5  A    between atoms: C_5  and  C_6
REMARK    6  A    between atoms: C_6  and  O_7
REMARK    7  A    between atoms: C_6  and  C_8
REMARK    8  A    between atoms: C_9  and  C_10
REMARK    9  A    between atoms: C_14  and  C_15
REMARK   10  A    between atoms: C_15  and  C_16
REMARK   11  A    between atoms: C_16  and  C_17
REMARK   12  A    between atoms: C_17  and  C_18
REMARK   13  A    between atoms: C_26  and  O_27
REMARK                            x       y       z     vdW  Elec       q    Type
REMARK                         _______ _______ _______ _____ _____    ______ ____
ROOT
ATOM      1  C   UNL     1       5.736   3.965  16.506  0.00  0.00    +0.000 C 
ATOM      2  C   UNL     1       4.491   4.860  16.781  0.00  0.00    +0.000 C 
ATOM      3  C   UNL     1       3.521   4.256  17.766  0.00  0.00    +0.000 C 
ATOM      4  C   UNL     1       4.179   4.637  19.049  0.00  0.00    +0.000 C 
ATOM      5  C   UNL     1       4.209   3.930  20.187  0.00  0.00    +0.000 C 
ATOM      6  O   UNL     1       4.919   5.806  18.939  0.00  0.00    +0.000 OA
ATOM      7  C   UNL     1       5.019   6.086  17.531  0.00  0.00    +0.000 C 
ATOM      8  C   UNL     1       6.472   6.168  17.092  0.00  0.00    +0.000 C 
ATOM      9  F   UNL     1       7.222   6.976  17.864  0.00  0.00    +0.000 F 
ATOM     10  F   UNL     1       6.560   6.646  15.818  0.00  0.00    +0.000 F 
ATOM     11  C   UNL     1       6.934   4.713  17.128  0.00  0.00    +0.000 C 
ENDROOT
BRANCH   1  13
ATOM     12  C   UNL     1       5.995   3.592  13.762  0.00  0.00    +0.000 C 
ATOM     13  C   UNL     1       5.875   3.764  15.048  0.00  0.00    +0.000 C 
BRANCH  12  14
ATOM     14  C   UNL     1       6.134   3.391  12.261  0.00  0.00    +0.000 C 
BRANCH  14  15
ATOM     15  O   UNL     1       6.008   1.994  11.950  0.00  0.00    +0.000 OA
ATOM     16  H   UNL     1       6.387   1.527  12.719  0.00  0.00    +0.000 HD
ENDBRANCH  14  15
BRANCH  14  17
ATOM     17  C   UNL     1       5.028   4.140  11.511  0.00  0.00    +0.000 C 
BRANCH  17  18
ATOM     18  C   UNL     1       3.763   3.300  11.341  0.00  0.00    +0.000 C 
BRANCH  18  19
ATOM     19  C   UNL     1       3.340   3.186   9.877  0.00  0.00    +0.000 C 
BRANCH  19  21
ATOM     20  C   UNL     1       2.779   5.193   8.451  0.00  0.00    +0.000 C 
ATOM     21  C   UNL     1       2.298   4.255   9.543  0.00  0.00    +0.000 C 
ENDBRANCH  19  21
ENDBRANCH  18  19
ENDBRANCH  17  18
ENDBRANCH  14  17
ENDBRANCH  12  14
ENDBRANCH   1  13
BRANCH  11  22
ATOM     22  O   UNL     1       8.174   4.471  16.456  0.00  0.00    +0.000 OA
ATOM     23  H   UNL     1       8.473   5.326  16.098  0.00  0.00    +0.000 HD
ENDBRANCH  11  22
BRANCH   5  24
ATOM     24  C   UNL     1       3.560   2.596  20.412  0.00  0.00    +0.000 C 
BRANCH  24  25
ATOM     25  C   UNL     1       2.655   2.554  21.651  0.00  0.00    +0.000 C 
BRANCH  25  26
ATOM     26  C   UNL     1       1.163   2.534  21.333  0.00  0.00    +0.000 C 
BRANCH  26  27
ATOM     27  C   UNL     1       0.751   3.355  20.102  0.00  0.00    +0.000 C 
ATOM     28  O   UNL     1       0.750   4.607  20.241  0.00  0.00    +0.000 OA
ATOM     29  O   UNL     1       0.443   2.663  19.088  0.00  0.00    +0.000 OA
ENDBRANCH  26  27
ENDBRANCH  25  26
ENDBRANCH  24  25
ENDBRANCH   5  24
TORSDOF 12
ENDMDL
MODEL 8
REMARK VINA RESULT:      -6.9      2.294      7.060
REMARK  Name = 
REMARK  13 active torsions:
REMARK  status: ('A' for Active; 'I' for Inactive)
REMARK    1  A    between atoms: C_1  and  C_2
REMARK    2  A    between atoms: C_2  and  C_3
REMARK    3  A    between atoms: C_3  and  C_4
REMARK    4  A    between atoms: C_4  and  C_5
REMARK    5  A    between atoms: C_5  and  C_6
REMARK    6  A    between atoms: C_6  and  O_7
REMARK    7  A    between atoms: C_6  and  C_8
REMARK    8  A    between atoms: C_9  and  C_10
REMARK    9  A    between atoms: C_14  and  C_15
REMARK   10  A    between atoms: C_15  and  C_16
REMARK   11  A    between atoms: C_16  and  C_17
REMARK   12  A    between atoms: C_17  and  C_18
REMARK   13  A    between atoms: C_26  and  O_27
REMARK                            x       y       z     vdW  Elec       q    Type
REMARK                         _______ _______ _______ _____ _____    ______ ____
ROOT
ATOM      1  C   UNL     1       5.584   4.373  16.519  0.00  0.00    +0.000 C 
ATOM      2  C   UNL     1       4.785   5.708  16.590  0.00  0.00    +0.000 C 
ATOM      3  C   UNL     1       3.541   5.622  17.439  0.00  0.00    +0.000 C 
ATOM      4  C   UNL     1       4.135   5.812  18.793  0.00  0.00    +0.000 C 
ATOM      5  C   UNL     1       3.737   5.246  19.941  0.00  0.00    +0.000 C 
ATOM      6  O   UNL     1       5.294   6.576  18.763  0.00  0.00    +0.000 OA
ATOM      7  C   UNL     1       5.669   6.679  17.378  0.00  0.00    +0.000 C 
ATOM      8  C   UNL     1       7.073   6.139  17.151  0.00  0.00    +0.000 C 
ATOM      9  F   UNL     1       7.985   6.641  18.003  0.00  0.00    +0.000 F 
ATOM     10  F   UNL     1       7.501   6.438  15.892  0.00  0.00    +0.000 F 
ATOM     11  C   UNL     1       6.896   4.629  17.289  0.00  0.00    +0.000 C 
ENDROOT
BRANCH   1  13
ATOM     12  C   UNL     1       6.008   3.704  13.853  0.00  0.00    +0.000 C 
ATOM     13  C   UNL     1       5.806   4.015  15.102  0.00  0.00    +0.000 C 
BRANCH  12  14
ATOM     14  C   UNL     1       6.243   3.341  12.395  0.00  0.00    +0.000 C 
BRANCH  14  15
ATOM     15  O   UNL     1       6.031   1.933  12.210  0.00  0.00    +0.000 OA
ATOM     16  H   UNL     1       5.993   1.561  13.112  0.00  0.00    +0.000 HD
ENDBRANCH  14  15
BRANCH  14  17
ATOM     17  C   UNL     1       5.257   4.086  11.488  0.00  0.00    +0.000 C 
BRANCH  17  18
ATOM     18  C   UNL     1       3.891   3.402  11.420  0.00  0.00    +0.000 C 
BRANCH  18  19
ATOM     19  C   UNL     1       3.428   3.183   9.981  0.00  0.00    +0.000 C 
BRANCH  19  21
ATOM     20  C   UNL     1       2.622   5.085   8.529  0.00  0.00    +0.000 C 
ATOM     21  C   UNL     1       2.269   4.123   9.650  0.00  0.00    +0.000 C 
ENDBRANCH  19  21
ENDBRANCH  18  19
ENDBRANCH  17  18
ENDBRANCH  14  17
ENDBRANCH  12  14
ENDBRANCH   1  13
BRANCH  11  22
ATOM     22  O   UNL     1       8.004   3.859  16.809  0.00  0.00    +0.000 OA
ATOM     23  H   UNL     1       8.198   4.176  15.909  0.00  0.00    +0.000 HD
ENDBRANCH  11  22
BRANCH   5  24
ATOM     24  C   UNL     1       2.581   4.303  20.103  0.00  0.00    +0.000 C 
BRANCH  24  25
ATOM     25  C   UNL     1       3.004   2.840  20.290  0.00  0.00    +0.000 C 
BRANCH  25  26
ATOM     26  C   UNL     1       3.023   2.026  18.999  0.00  0.00    +0.000 C 
BRANCH  26  27
ATOM     27  C   UNL     1       1.883   2.339  18.019  0.00  0.00    +0.000 C 
ATOM     28  O   UNL     1       2.219   2.848  16.917  0.00  0.00    +0.000 OA
ATOM     29  O   UNL     1       0.727   2.059  18.450  0.00  0.00    +0.000 OA
ENDBRANCH  26  27
ENDBRANCH  25  26
ENDBRANCH  24  25
ENDBRANCH   5  24
TORSDOF 12
ENDMDL
MODEL 9
REMARK VINA RESULT:      -6.9      1.886      2.116
REMARK  Name = 
REMARK  13 active torsions:
REMARK  status: ('A' for Active; 'I' for Inactive)
REMARK    1  A    between atoms: C_1  and  C_2
REMARK    2  A    between atoms: C_2  and  C_3
REMARK    3  A    between atoms: C_3  and  C_4
REMARK    4  A    between atoms: C_4  and  C_5
REMARK    5  A    between atoms: C_5  and  C_6
REMARK    6  A    between atoms: C_6  and  O_7
REMARK    7  A    between atoms: C_6  and  C_8
REMARK    8  A    between atoms: C_9  and  C_10
REMARK    9  A    between atoms: C_14  and  C_15
REMARK   10  A    between atoms: C_15  and  C_16
REMARK   11  A    between atoms: C_16  and  C_17
REMARK   12  A    between atoms: C_17  and  C_18
REMARK   13  A    between atoms: C_26  and  O_27
REMARK                            x       y       z     vdW  Elec       q    Type
REMARK                         _______ _______ _______ _____ _____    ______ ____
ROOT
ATOM      1  C   UNL     1       4.665   5.219  16.944  0.00  0.00    +0.000 C 
ATOM      2  C   UNL     1       5.785   4.136  16.940  0.00  0.00    +0.000 C 
ATOM      3  C   UNL     1       5.695   3.182  15.775  0.00  0.00    +0.000 C 
ATOM      4  C   UNL     1       6.365   3.994  14.719  0.00  0.00    +0.000 C 
ATOM      5  C   UNL     1       6.072   4.025  13.411  0.00  0.00    +0.000 C 
ATOM      6  O   UNL     1       7.302   4.875  15.240  0.00  0.00    +0.000 OA
ATOM      7  C   UNL     1       7.089   4.890  16.663  0.00  0.00    +0.000 C 
ATOM      8  C   UNL     1       6.793   6.298  17.156  0.00  0.00    +0.000 C 
ATOM      9  F   UNL     1       7.680   7.214  16.727  0.00  0.00    +0.000 F 
ATOM     10  F   UNL     1       6.810   6.339  18.519  0.00  0.00    +0.000 F 
ATOM     11  C   UNL     1       5.376   6.557  16.651  0.00  0.00    +0.000 C 
ENDROOT
BRANCH   1  13
ATOM     12  C   UNL     1       3.372   5.187  19.406  0.00  0.00    +0.000 C 
ATOM     13  C   UNL     1       3.981   5.204  18.254  0.00  0.00    +0.000 C 
BRANCH  12  14
ATOM     14  C   UNL     1       2.662   5.169  20.751  0.00  0.00    +0.000 C 
BRANCH  14  15
ATOM     15  O   UNL     1       1.823   6.329  20.867  0.00  0.00    +0.000 OA
ATOM     16  H   UNL     1       1.174   6.247  20.143  0.00  0.00    +0.000 HD
ENDBRANCH  14  15
BRANCH  14  17
ATOM     17  C   UNL     1       1.768   3.930  20.872  0.00  0.00    +0.000 C 
BRANCH  17  18
ATOM     18  C   UNL     1       0.764   3.817  19.725  0.00  0.00    +0.000 C 
BRANCH  18  19
ATOM     19  C   UNL     1       0.897   2.495  18.971  0.00  0.00    +0.000 C 
BRANCH  19  21
ATOM     20  C   UNL     1       3.122   1.708  18.074  0.00  0.00    +0.000 C 
ATOM     21  C   UNL     1       2.235   1.831  19.300  0.00  0.00    +0.000 C 
ENDBRANCH  19  21
ENDBRANCH  18  19
ENDBRANCH  17  18
ENDBRANCH  14  17
ENDBRANCH  12  14
ENDBRANCH   1  13
BRANCH  11  22
ATOM     22  O   UNL     1       4.736   7.691  17.248  0.00  0.00    +0.000 OA
ATOM     23  H   UNL     1       3.803   7.448  17.385  0.00  0.00    +0.000 HD
ENDBRANCH  11  22
BRANCH   5  24
ATOM     24  C   UNL     1       5.003   3.222  12.729  0.00  0.00    +0.000 C 
BRANCH  24  25
ATOM     25  C   UNL     1       4.889   3.506  11.225  0.00  0.00    +0.000 C 
BRANCH  25  26
ATOM     26  C   UNL     1       3.604   4.222  10.821  0.00  0.00    +0.000 C 
BRANCH  26  27
ATOM     27  C   UNL     1       3.008   3.778   9.477  0.00  0.00    +0.000 C 
ATOM     28  O   UNL     1       2.709   2.558   9.376  0.00  0.00    +0.000 OA
ATOM     29  O   UNL     1       2.905   4.699   8.616  0.00  0.00    +0.000 OA
ENDBRANCH  26  27
ENDBRANCH  25  26
ENDBRANCH  24  25
ENDBRANCH   5  24
TORSDOF 12
ENDMDL
