MODEL 1
REMARK VINA RESULT:      -7.7      0.000      0.000
REMARK  Name = 
REMARK  10 active torsions:
REMARK  status: ('A' for Active; 'I' for Inactive)
REMARK    1  A    between atoms: C_1  and  C_2
REMARK    2  A    between atoms: C_2  and  O_3
REMARK    3  A    between atoms: O_3  and  C_4
REMARK    4  A    between atoms: C_4  and  C_6
REMARK    5  A    between atoms: C_6  and  C_7
REMARK    6  A    between atoms: C_9  and  C_10
REMARK    7  A    between atoms: C_11  and  O_12
REMARK    8  A    between atoms: O_12  and  C_13
REMARK    9  A    between atoms: C_17  and  C_18
REMARK   10  A    between atoms: C_22  and  C_23
REMARK                            x       y       z     vdW  Elec       q    Type
REMARK                         _______ _______ _______ _____ _____    ______ ____
ROOT
ATOM      1  C   UNL     1       4.074   6.068  17.716  0.00  0.00    +0.000 A 
ATOM      2  C   UNL     1       3.105   6.398  18.591  0.00  0.00    +0.000 A 
ATOM      3  N   UNL     1       2.264   5.468  19.160  0.00  0.00    +0.000 NA
ATOM      4  C   UNL     1       2.447   4.210  18.898  0.00  0.00    +0.000 A 
ATOM      5  C   UNL     1       1.702   3.152  19.666  0.00  0.00    +0.000 A 
ATOM      6  C   UNL     1       0.772   3.566  20.763  0.00  0.00    +0.000 C 
ATOM      7  C   UNL     1       1.939   1.859  19.388  0.00  0.00    +0.000 A 
ATOM      8  C   UNL     1       2.853   1.473  18.348  0.00  0.00    +0.000 A 
ATOM      9  C   UNL     1       3.500   2.412  17.655  0.00  0.00    +0.000 A 
ATOM     10  N   UNL     1       3.330   3.761  17.927  0.00  0.00    +0.000 N 
ATOM     11  C   UNL     1       4.004   4.680  17.158  0.00  0.00    +0.000 A 
ATOM     12  O   UNL     1       4.570   4.427  16.093  0.00  0.00    +0.000 OA
ENDROOT
BRANCH   1  14
ATOM     13  C   UNL     1       6.440   6.839  17.763  0.00  0.00    +0.000 C 
ATOM     14  C   UNL     1       5.179   6.925  17.268  0.00  0.00    +0.000 C 
BRANCH  13  15
ATOM     15  C   UNL     1       7.514   7.601  17.100  0.00  0.00    +0.000 C 
ATOM     16  O   UNL     1       8.277   7.126  16.274  0.00  0.00    +0.000 OA
BRANCH  15  17
ATOM     17  O   UNL     1       7.576   8.853  17.613  0.00  0.00    +0.000 OA
BRANCH  17  19
ATOM     18  C   UNL     1       9.080  10.532  18.383  0.00  0.00    +0.000 C 
ATOM     19  C   UNL     1       8.652   9.083  18.532  0.00  0.00    +0.000 C 
ENDBRANCH  17  19
ENDBRANCH  15  17
ENDBRANCH  13  15
BRANCH  13  20
ATOM     20  C   UNL     1       6.726   5.899  18.923  0.00  0.00    +0.000 C 
ATOM     21  N   UNL     1       6.963   5.120  19.886  0.00  0.00    +0.000 NA
ENDBRANCH  13  20
ENDBRANCH   1  14
BRANCH   2  22
ATOM     22  O   UNL     1       3.069   7.703  19.096  0.00  0.00    +0.000 OA
BRANCH  22  23
ATOM     23  C   UNL     1       1.864   8.274  19.465  0.00  0.00    +0.000 A 
ATOM     24  C   UNL     1       1.464   8.062  20.788  0.00  0.00    +0.000 A 
ATOM     25  C   UNL     1       0.345   8.721  21.305  0.00  0.00    +0.000 A 
ATOM     26  C   UNL     1      -0.371   9.612  20.505  0.00  0.00    +0.000 A 
ATOM     27  C   UNL     1       0.015   9.836  19.179  0.00  0.00    +0.000 A 
ATOM     28  C   UNL     1      -0.749  10.803  18.321  0.00  0.00    +0.000 C 
ATOM     29  C   UNL     1       1.124   9.144  18.656  0.00  0.00    +0.000 A 
ENDBRANCH  22  23
ENDBRANCH   2  22
TORSDOF 7
ENDMDL
MODEL 2
REMARK VINA RESULT:      -7.4      2.311      5.812
REMARK  Name = 
REMARK  10 active torsions:
REMARK  status: ('A' for Active; 'I' for Inactive)
REMARK    1  A    between atoms: C_1  and  C_2
REMARK    2  A    between atoms: C_2  and  O_3
REMARK    3  A    between atoms: O_3  and  C_4
REMARK    4  A    between atoms: C_4  and  C_6
REMARK    5  A    between atoms: C_6  and  C_7
REMARK    6  A    between atoms: C_9  and  C_10
REMARK    7  A    between atoms: C_11  and  O_12
REMARK    8  A    between atoms: O_12  and  C_13
REMARK    9  A    between atoms: C_17  and  C_18
REMARK   10  A    between atoms: C_22  and  C_23
REMARK                            x       y       z     vdW  Elec       q    Type
REMARK                         _______ _______ _______ _____ _____    ______ ____
ROOT
ATOM      1  C   UNL     1       2.821   6.899  18.449  0.00  0.00    +0.000 A 
ATOM      2  C   UNL     1       2.788   6.751  19.787  0.00  0.00    +0.000 A 
ATOM      3  N   UNL     1       2.086   7.599  20.615  0.00  0.00    +0.000 NA
ATOM      4  C   UNL     1       1.371   8.544  20.087  0.00  0.00    +0.000 A 
ATOM      5  C   UNL     1       0.419   9.346  20.933  0.00  0.00    +0.000 A 
ATOM      6  C   UNL     1       0.279   9.016  22.387  0.00  0.00    +0.000 C 
ATOM      7  C   UNL     1      -0.329  10.297  20.347  0.00  0.00    +0.000 A 
ATOM      8  C   UNL     1      -0.203  10.590  18.946  0.00  0.00    +0.000 A 
ATOM      9  C   UNL     1       0.655   9.890  18.200  0.00  0.00    +0.000 A 
ATOM     10  N   UNL     1       1.419   8.867  18.740  0.00  0.00    +0.000 N 
ATOM     11  C   UNL     1       2.305   8.203  17.924  0.00  0.00    +0.000 A 
ATOM     12  O   UNL     1       2.656   8.586  16.806  0.00  0.00    +0.000 OA
ENDROOT
BRANCH   1  14
ATOM     13  C   UNL     1       4.582   5.874  17.020  0.00  0.00    +0.000 C 
ATOM     14  C   UNL     1       3.302   5.916  17.471  0.00  0.00    +0.000 C 
BRANCH  13  15
ATOM     15  C   UNL     1       5.005   4.724  16.200  0.00  0.00    +0.000 C 
ATOM     16  O   UNL     1       5.066   3.576  16.614  0.00  0.00    +0.000 OA
BRANCH  15  17
ATOM     17  O   UNL     1       5.399   5.150  14.976  0.00  0.00    +0.000 OA
BRANCH  17  19
ATOM     18  C   UNL     1       6.195   3.761  13.213  0.00  0.00    +0.000 C 
ATOM     19  C   UNL     1       6.584   4.527  14.465  0.00  0.00    +0.000 C 
ENDBRANCH  17  19
ENDBRANCH  15  17
ENDBRANCH  13  15
BRANCH  13  20
ATOM     20  C   UNL     1       5.560   6.957  17.443  0.00  0.00    +0.000 C 
ATOM     21  N   UNL     1       6.372   7.856  17.794  0.00  0.00    +0.000 NA
ENDBRANCH  13  20
ENDBRANCH   1  14
BRANCH   2  22
ATOM     22  O   UNL     1       3.320   5.586  20.350  0.00  0.00    +0.000 OA
BRANCH  22  23
ATOM     23  C   UNL     1       2.777   4.352  20.040  0.00  0.00    +0.000 A 
ATOM     24  C   UNL     1       1.385   4.256  20.127  0.00  0.00    +0.000 A 
ATOM     25  C   UNL     1       0.724   3.105  19.689  0.00  0.00    +0.000 A 
ATOM     26  C   UNL     1       1.452   2.048  19.143  0.00  0.00    +0.000 A 
ATOM     27  C   UNL     1       2.846   2.127  19.048  0.00  0.00    +0.000 A 
ATOM     28  C   UNL     1       3.630   0.994  18.451  0.00  0.00    +0.000 C 
ATOM     29  C   UNL     1       3.507   3.276  19.521  0.00  0.00    +0.000 A 
ENDBRANCH  22  23
ENDBRANCH   2  22
TORSDOF 7
ENDMDL
MODEL 3
REMARK VINA RESULT:      -7.3      0.449      1.159
REMARK  Name = 
REMARK  10 active torsions:
REMARK  status: ('A' for Active; 'I' for Inactive)
REMARK    1  A    between atoms: C_1  and  C_2
REMARK    2  A    between atoms: C_2  and  O_3
REMARK    3  A    between atoms: O_3  and  C_4
REMARK    4  A    between atoms: C_4  and  C_6
REMARK    5  A    between atoms: C_6  and  C_7
REMARK    6  A    between atoms: C_9  and  C_10
REMARK    7  A    between atoms: C_11  and  O_12
REMARK    8  A    between atoms: O_12  and  C_13
REMARK    9  A    between atoms: C_17  and  C_18
REMARK   10  A    between atoms: C_22  and  C_23
REMARK                            x       y       z     vdW  Elec       q    Type
REMARK                         _______ _______ _______ _____ _____    ______ ____
ROOT
ATOM      1  C   UNL     1       4.042   6.074  17.808  0.00  0.00    +0.000 A 
ATOM      2  C   UNL     1       3.143   6.395  18.757  0.00  0.00    +0.000 A 
ATOM      3  N   UNL     1       2.306   5.468  19.336  0.00  0.00    +0.000 NA
ATOM      4  C   UNL     1       2.426   4.219  19.007  0.00  0.00    +0.000 A 
ATOM      5  C   UNL     1       1.693   3.151  19.772  0.00  0.00    +0.000 A 
ATOM      6  C   UNL     1       0.849   3.543  20.945  0.00  0.00    +0.000 C 
ATOM      7  C   UNL     1       1.864   1.865  19.421  0.00  0.00    +0.000 A 
ATOM      8  C   UNL     1       2.695   1.498  18.308  0.00  0.00    +0.000 A 
ATOM      9  C   UNL     1       3.331   2.447  17.618  0.00  0.00    +0.000 A 
ATOM     10  N   UNL     1       3.228   3.786  17.961  0.00  0.00    +0.000 N 
ATOM     11  C   UNL     1       3.886   4.718  17.192  0.00  0.00    +0.000 A 
ATOM     12  O   UNL     1       4.374   4.497  16.082  0.00  0.00    +0.000 OA
ENDROOT
BRANCH   1  14
ATOM     13  C   UNL     1       6.420   6.808  17.787  0.00  0.00    +0.000 C 
ATOM     14  C   UNL     1       5.147   6.913  17.328  0.00  0.00    +0.000 C 
BRANCH  13  15
ATOM     15  C   UNL     1       7.487   7.553  17.093  0.00  0.00    +0.000 C 
ATOM     16  O   UNL     1       8.222   7.064  16.249  0.00  0.00    +0.000 OA
BRANCH  15  17
ATOM     17  O   UNL     1       7.580   8.805  17.600  0.00  0.00    +0.000 OA
BRANCH  17  19
ATOM     18  C   UNL     1       9.034  10.478  18.472  0.00  0.00    +0.000 C 
ATOM     19  C   UNL     1       8.652   9.010  18.530  0.00  0.00    +0.000 C 
ENDBRANCH  17  19
ENDBRANCH  15  17
ENDBRANCH  13  15
BRANCH  13  20
ATOM     20  C   UNL     1       6.724   5.863  18.938  0.00  0.00    +0.000 C 
ATOM     21  N   UNL     1       6.977   5.081  19.894  0.00  0.00    +0.000 NA
ENDBRANCH  13  20
ENDBRANCH   1  14
BRANCH   2  22
ATOM     22  O   UNL     1       3.188   7.674  19.322  0.00  0.00    +0.000 OA
BRANCH  22  23
ATOM     23  C   UNL     1       2.076   8.497  19.273  0.00  0.00    +0.000 A 
ATOM     24  C   UNL     1       1.617   8.833  17.996  0.00  0.00    +0.000 A 
ATOM     25  C   UNL     1       0.416   9.528  17.833  0.00  0.00    +0.000 A 
ATOM     26  C   UNL     1      -0.345   9.876  18.949  0.00  0.00    +0.000 A 
ATOM     27  C   UNL     1       0.098   9.548  20.235  0.00  0.00    +0.000 A 
ATOM     28  C   UNL     1      -0.725   9.913  21.436  0.00  0.00    +0.000 C 
ATOM     29  C   UNL     1       1.325   8.876  20.392  0.00  0.00    +0.000 A 
ENDBRANCH  22  23
ENDBRANCH   2  22
TORSDOF 7
ENDMDL
MODEL 4
REMARK VINA RESULT:      -7.2      0.946      1.758
REMARK  Name = 
REMARK  10 active torsions:
REMARK  status: ('A' for Active; 'I' for Inactive)
REMARK    1  A    between atoms: C_1  and  C_2
REMARK    2  A    between atoms: C_2  and  O_3
REMARK    3  A    between atoms: O_3  and  C_4
REMARK    4  A    between atoms: C_4  and  C_6
REMARK    5  A    between atoms: C_6  and  C_7
REMARK    6  A    between atoms: C_9  and  C_10
REMARK    7  A    between atoms: C_11  and  O_12
REMARK    8  A    between atoms: O_12  and  C_13
REMARK    9  A    between atoms: C_17  and  C_18
REMARK   10  A    between atoms: C_22  and  C_23
REMARK                            x       y       z     vdW  Elec       q    Type
REMARK                         _______ _______ _______ _____ _____    ______ ____
ROOT
ATOM      1  C   UNL     1       4.011   5.909  17.546  0.00  0.00    +0.000 A 
ATOM      2  C   UNL     1       3.050   6.343  18.383  0.00  0.00    +0.000 A 
ATOM      3  N   UNL     1       2.153   5.495  18.993  0.00  0.00    +0.000 NA
ATOM      4  C   UNL     1       2.272   4.216  18.811  0.00  0.00    +0.000 A 
ATOM      5  C   UNL     1       1.462   3.248  19.629  0.00  0.00    +0.000 A 
ATOM      6  C   UNL     1       0.539   3.777  20.683  0.00  0.00    +0.000 C 
ATOM      7  C   UNL     1       1.633   1.929  19.434  0.00  0.00    +0.000 A 
ATOM      8  C   UNL     1       2.538   1.432  18.435  0.00  0.00    +0.000 A 
ATOM      9  C   UNL     1       3.244   2.292  17.697  0.00  0.00    +0.000 A 
ATOM     10  N   UNL     1       3.142   3.662  17.884  0.00  0.00    +0.000 N 
ATOM     11  C   UNL     1       3.875   4.495  17.072  0.00  0.00    +0.000 A 
ATOM     12  O   UNL     1       4.441   4.148  16.033  0.00  0.00    +0.000 OA
ENDROOT
BRANCH   1  14
ATOM     13  C   UNL     1       6.403   6.594  17.618  0.00  0.00    +0.000 C 
ATOM     14  C   UNL     1       5.167   6.677  17.065  0.00  0.00    +0.000 C 
BRANCH  13  15
ATOM     15  C   UNL     1       7.531   7.248  16.931  0.00  0.00    +0.000 C 
ATOM     16  O   UNL     1       8.014   8.316  17.277  0.00  0.00    +0.000 OA
BRANCH  15  17
ATOM     17  O   UNL     1       7.872   6.542  15.827  0.00  0.00    +0.000 OA
BRANCH  17  19
ATOM     18  C   UNL     1       7.155   4.780  14.393  0.00  0.00    +0.000 C 
ATOM     19  C   UNL     1       7.460   5.169  15.829  0.00  0.00    +0.000 C 
ENDBRANCH  17  19
ENDBRANCH  15  17
ENDBRANCH  13  15
BRANCH  13  20
ATOM     20  C   UNL     1       6.606   5.761  18.874  0.00  0.00    +0.000 C 
ATOM     21  N   UNL     1       6.774   5.071  19.915  0.00  0.00    +0.000 NA
ENDBRANCH  13  20
ENDBRANCH   1  14
BRANCH   2  22
ATOM     22  O   UNL     1       3.077   7.676  18.807  0.00  0.00    +0.000 OA
BRANCH  22  23
ATOM     23  C   UNL     1       1.932   8.273  19.304  0.00  0.00    +0.000 A 
ATOM     24  C   UNL     1       1.606   7.966  20.629  0.00  0.00    +0.000 A 
ATOM     25  C   UNL     1       0.560   8.631  21.275  0.00  0.00    +0.000 A 
ATOM     26  C   UNL     1      -0.154   9.623  20.604  0.00  0.00    +0.000 A 
ATOM     27  C   UNL     1       0.158   9.944  19.278  0.00  0.00    +0.000 A 
ATOM     28  C   UNL     1      -0.605  11.019  18.558  0.00  0.00    +0.000 C 
ATOM     29  C   UNL     1       1.191   9.246  18.624  0.00  0.00    +0.000 A 
ENDBRANCH  22  23
ENDBRANCH   2  22
TORSDOF 7
ENDMDL
MODEL 5
REMARK VINA RESULT:      -6.9      1.072      2.153
REMARK  Name = 
REMARK  10 active torsions:
REMARK  status: ('A' for Active; 'I' for Inactive)
REMARK    1  A    between atoms: C_1  and  C_2
REMARK    2  A    between atoms: C_2  and  O_3
REMARK    3  A    between atoms: O_3  and  C_4
REMARK    4  A    between atoms: C_4  and  C_6
REMARK    5  A    between atoms: C_6  and  C_7
REMARK    6  A    between atoms: C_9  and  C_10
REMARK    7  A    between atoms: C_11  and  O_12
REMARK    8  A    between atoms: O_12  and  C_13
REMARK    9  A    between atoms: C_17  and  C_18
REMARK   10  A    between atoms: C_22  and  C_23
REMARK                            x       y       z     vdW  Elec       q    Type
REMARK                         _______ _______ _______ _____ _____    ______ ____
ROOT
ATOM      1  C   UNL     1       3.965   5.861  17.662  0.00  0.00    +0.000 A 
ATOM      2  C   UNL     1       3.108   6.289  18.608  0.00  0.00    +0.000 A 
ATOM      3  N   UNL     1       2.229   5.449  19.255  0.00  0.00    +0.000 NA
ATOM      4  C   UNL     1       2.266   4.178  18.994  0.00  0.00    +0.000 A 
ATOM      5  C   UNL     1       1.486   3.202  19.832  0.00  0.00    +0.000 A 
ATOM      6  C   UNL     1       0.693   3.710  20.996  0.00  0.00    +0.000 C 
ATOM      7  C   UNL     1       1.570   1.890  19.551  0.00  0.00    +0.000 A 
ATOM      8  C   UNL     1       2.352   1.412  18.445  0.00  0.00    +0.000 A 
ATOM      9  C   UNL     1       3.030   2.280  17.691  0.00  0.00    +0.000 A 
ATOM     10  N   UNL     1       3.016   3.640  17.959  0.00  0.00    +0.000 N 
ATOM     11  C   UNL     1       3.713   4.484  17.127  0.00  0.00    +0.000 A 
ATOM     12  O   UNL     1       4.161   4.173  16.023  0.00  0.00    +0.000 OA
ENDROOT
BRANCH   1  14
ATOM     13  C   UNL     1       6.366   6.514  17.617  0.00  0.00    +0.000 C 
ATOM     14  C   UNL     1       5.108   6.601  17.115  0.00  0.00    +0.000 C 
BRANCH  13  15
ATOM     15  C   UNL     1       7.473   7.136  16.868  0.00  0.00    +0.000 C 
ATOM     16  O   UNL     1       8.041   8.160  17.216  0.00  0.00    +0.000 OA
BRANCH  15  17
ATOM     17  O   UNL     1       7.686   6.462  15.713  0.00  0.00    +0.000 OA
BRANCH  17  19
ATOM     18  C   UNL     1       6.985   4.585  14.426  0.00  0.00    +0.000 C 
ATOM     19  C   UNL     1       7.478   5.045  15.786  0.00  0.00    +0.000 C 
ENDBRANCH  17  19
ENDBRANCH  15  17
ENDBRANCH  13  15
BRANCH  13  20
ATOM     20  C   UNL     1       6.612   5.706  18.882  0.00  0.00    +0.000 C 
ATOM     21  N   UNL     1       6.815   5.037  19.930  0.00  0.00    +0.000 NA
ENDBRANCH  13  20
ENDBRANCH   1  14
BRANCH   2  22
ATOM     22  O   UNL     1       3.243   7.592  19.099  0.00  0.00    +0.000 OA
BRANCH  22  23
ATOM     23  C   UNL     1       2.131   8.404  19.236  0.00  0.00    +0.000 A 
ATOM     24  C   UNL     1       1.603   8.925  18.050  0.00  0.00    +0.000 A 
ATOM     25  C   UNL     1       0.396   9.628  18.059  0.00  0.00    +0.000 A 
ATOM     26  C   UNL     1      -0.303   9.797  19.255  0.00  0.00    +0.000 A 
ATOM     27  C   UNL     1       0.210   9.283  20.451  0.00  0.00    +0.000 A 
ATOM     28  C   UNL     1      -0.546   9.457  21.737  0.00  0.00    +0.000 C 
ATOM     29  C   UNL     1       1.443   8.604  20.438  0.00  0.00    +0.000 A 
ENDBRANCH  22  23
ENDBRANCH   2  22
TORSDOF 7
ENDMDL
MODEL 6
REMARK VINA RESULT:      -6.9      5.746      9.599
REMARK  Name = 
REMARK  10 active torsions:
REMARK  status: ('A' for Active; 'I' for Inactive)
REMARK    1  A    between atoms: C_1  and  C_2
REMARK    2  A    between atoms: C_2  and  O_3
REMARK    3  A    between atoms: O_3  and  C_4
REMARK    4  A    between atoms: C_4  and  C_6
REMARK    5  A    between atoms: C_6  and  C_7
REMARK    6  A    between atoms: C_9  and  C_10
REMARK    7  A    between atoms: C_11  and  O_12
REMARK    8  A    between atoms: O_12  and  C_13
REMARK    9  A    between atoms: C_17  and  C_18
REMARK   10  A    between atoms: C_22  and  C_23
REMARK                            x       y       z     vdW  Elec       q    Type
REMARK                         _______ _______ _______ _____ _____    ______ ____
ROOT
ATOM      1  C   UNL     1      -1.189  11.310  21.767  0.00  0.00    +0.000 A 
ATOM      2  C   UNL     1      -0.983  11.671  20.486  0.00  0.00    +0.000 A 
ATOM      3  N   UNL     1      -0.102  11.012  19.658  0.00  0.00    +0.000 NA
ATOM      4  C   UNL     1       0.510   9.957  20.101  0.00  0.00    +0.000 A 
ATOM      5  C   UNL     1       1.303   9.084  19.167  0.00  0.00    +0.000 A 
ATOM      6  C   UNL     1       1.347   9.425  17.710  0.00  0.00    +0.000 C 
ATOM      7  C   UNL     1       1.900   7.983  19.655  0.00  0.00    +0.000 A 
ATOM      8  C   UNL     1       1.831   7.653  21.052  0.00  0.00    +0.000 A 
ATOM      9  C   UNL     1       1.143   8.438  21.883  0.00  0.00    +0.000 A 
ATOM     10  N   UNL     1       0.470   9.562  21.430  0.00  0.00    +0.000 N 
ATOM     11  C   UNL     1      -0.197  10.345  22.342  0.00  0.00    +0.000 A 
ATOM     12  O   UNL     1      -0.061  10.274  23.564  0.00  0.00    +0.000 OA
ENDROOT
BRANCH   1  14
ATOM     13  C   UNL     1      -2.297  12.972  23.252  0.00  0.00    +0.000 C 
ATOM     14  C   UNL     1      -2.280  11.760  22.640  0.00  0.00    +0.000 C 
BRANCH  13  15
ATOM     15  C   UNL     1      -3.530  13.402  23.936  0.00  0.00    +0.000 C 
ATOM     16  O   UNL     1      -3.637  14.450  24.553  0.00  0.00    +0.000 OA
BRANCH  15  17
ATOM     17  O   UNL     1      -4.468  12.428  23.853  0.00  0.00    +0.000 OA
BRANCH  17  19
ATOM     18  C   UNL     1      -6.269  12.853  22.354  0.00  0.00    +0.000 C 
ATOM     19  C   UNL     1      -5.824  12.889  23.805  0.00  0.00    +0.000 C 
ENDBRANCH  17  19
ENDBRANCH  15  17
ENDBRANCH  13  15
BRANCH  13  20
ATOM     20  C   UNL     1      -1.085  13.882  23.142  0.00  0.00    +0.000 C 
ATOM     21  N   UNL     1      -0.080  14.638  23.050  0.00  0.00    +0.000 NA
ENDBRANCH  13  20
ENDBRANCH   1  14
BRANCH   2  22
ATOM     22  O   UNL     1      -1.830  12.623  19.910  0.00  0.00    +0.000 OA
BRANCH  22  23
ATOM     23  C   UNL     1      -2.817  12.232  19.023  0.00  0.00    +0.000 A 
ATOM     24  C   UNL     1      -2.374  11.729  17.795  0.00  0.00    +0.000 A 
ATOM     25  C   UNL     1      -3.277  11.165  16.891  0.00  0.00    +0.000 A 
ATOM     26  C   UNL     1      -4.631  11.081  17.219  0.00  0.00    +0.000 A 
ATOM     27  C   UNL     1      -5.092  11.579  18.443  0.00  0.00    +0.000 A 
ATOM     28  C   UNL     1      -6.547  11.481  18.801  0.00  0.00    +0.000 C 
ATOM     29  C   UNL     1      -4.180  12.176  19.334  0.00  0.00    +0.000 A 
ENDBRANCH  22  23
ENDBRANCH   2  22
TORSDOF 7
ENDMDL
MODEL 7
REMARK VINA RESULT:      -6.9      5.488      9.269
REMARK  Name = 
REMARK  10 active torsions:
REMARK  status: ('A' for Active; 'I' for Inactive)
REMARK    1  A    between atoms: C_1  and  C_2
REMARK    2  A    between atoms: C_2  and  O_3
REMARK    3  A    between atoms: O_3  and  C_4
REMARK    4  A    between atoms: C_4  and  C_6
REMARK    5  A    between atoms: C_6  and  C_7
REMARK    6  A    between atoms: C_9  and  C_10
REMARK    7  A    between atoms: C_11  and  O_12
REMARK    8  A    between atoms: O_12  and  C_13
REMARK    9  A    between atoms: C_17  and  C_18
REMARK   10  A    between atoms: C_22  and  C_23
REMARK                            x       y       z     vdW  Elec       q    Type
REMARK                         _______ _______ _______ _____ _____    ______ ____
ROOT
ATOM      1  C   UNL     1      -0.934  11.126  21.343  0.00  0.00    +0.000 A 
ATOM      2  C   UNL     1      -0.674  11.385  20.048  0.00  0.00    +0.000 A 
ATOM      3  N   UNL     1       0.224  10.649  19.306  0.00  0.00    +0.000 NA
ATOM      4  C   UNL     1       0.799   9.622  19.852  0.00  0.00    +0.000 A 
ATOM      5  C   UNL     1       1.608   8.666  19.018  0.00  0.00    +0.000 A 
ATOM      6  C   UNL     1       1.713   8.893  17.542  0.00  0.00    +0.000 C 
ATOM      7  C   UNL     1       2.165   7.596  19.612  0.00  0.00    +0.000 A 
ATOM      8  C   UNL     1       2.038   7.375  21.026  0.00  0.00    +0.000 A 
ATOM      9  C   UNL     1       1.335   8.234  21.768  0.00  0.00    +0.000 A 
ATOM     10  N   UNL     1       0.701   9.330  21.204  0.00  0.00    +0.000 N 
ATOM     11  C   UNL     1       0.016  10.193  22.027  0.00  0.00    +0.000 A 
ATOM     12  O   UNL     1       0.105  10.213  23.256  0.00  0.00    +0.000 OA
ENDROOT
BRANCH   1  14
ATOM     13  C   UNL     1      -2.021  12.875  22.742  0.00  0.00    +0.000 C 
ATOM     14  C   UNL     1      -2.049  11.661  22.136  0.00  0.00    +0.000 C 
BRANCH  13  15
ATOM     15  C   UNL     1      -3.264  13.398  23.337  0.00  0.00    +0.000 C 
ATOM     16  O   UNL     1      -3.325  14.422  24.000  0.00  0.00    +0.000 OA
BRANCH  15  17
ATOM     17  O   UNL     1      -4.281  12.532  23.117  0.00  0.00    +0.000 OA
BRANCH  17  19
ATOM     18  C   UNL     1      -6.438  12.665  24.118  0.00  0.00    +0.000 C 
ATOM     19  C   UNL     1      -5.573  13.133  22.962  0.00  0.00    +0.000 C 
ENDBRANCH  17  19
ENDBRANCH  15  17
ENDBRANCH  13  15
BRANCH  13  20
ATOM     20  C   UNL     1      -0.741  13.696  22.714  0.00  0.00    +0.000 C 
ATOM     21  N   UNL     1       0.320  14.376  22.691  0.00  0.00    +0.000 NA
ENDBRANCH  13  20
ENDBRANCH   1  14
BRANCH   2  22
ATOM     22  O   UNL     1      -1.480  12.304  19.368  0.00  0.00    +0.000 OA
BRANCH  22  23
ATOM     23  C   UNL     1      -2.510  11.861  18.557  0.00  0.00    +0.000 A 
ATOM     24  C   UNL     1      -3.806  12.082  19.035  0.00  0.00    +0.000 A 
ATOM     25  C   UNL     1      -4.915  11.814  18.229  0.00  0.00    +0.000 A 
ATOM     26  C   UNL     1      -4.734  11.340  16.930  0.00  0.00    +0.000 A 
ATOM     27  C   UNL     1      -3.445  11.113  16.434  0.00  0.00    +0.000 A 
ATOM     28  C   UNL     1      -3.250  10.612  15.032  0.00  0.00    +0.000 C 
ATOM     29  C   UNL     1      -2.334  11.354  17.264  0.00  0.00    +0.000 A 
ENDBRANCH  22  23
ENDBRANCH   2  22
TORSDOF 7
ENDMDL
MODEL 8
REMARK VINA RESULT:      -6.7      7.545     10.803
REMARK  Name = 
REMARK  10 active torsions:
REMARK  status: ('A' for Active; 'I' for Inactive)
REMARK    1  A    between atoms: C_1  and  C_2
REMARK    2  A    between atoms: C_2  and  O_3
REMARK    3  A    between atoms: O_3  and  C_4
REMARK    4  A    between atoms: C_4  and  C_6
REMARK    5  A    between atoms: C_6  and  C_7
REMARK    6  A    between atoms: C_9  and  C_10
REMARK    7  A    between atoms: C_11  and  O_12
REMARK    8  A    between atoms: O_12  and  C_13
REMARK    9  A    between atoms: C_17  and  C_18
REMARK   10  A    between atoms: C_22  and  C_23
REMARK                            x       y       z     vdW  Elec       q    Type
REMARK                         _______ _______ _______ _____ _____    ______ ____
ROOT
ATOM      1  C   UNL     1      -1.639  13.358  20.480  0.00  0.00    +0.000 A 
ATOM      2  C   UNL     1      -1.215  12.446  19.585  0.00  0.00    +0.000 A 
ATOM      3  N   UNL     1       0.011  12.525  18.962  0.00  0.00    +0.000 NA
ATOM      4  C   UNL     1       0.825  13.479  19.294  0.00  0.00    +0.000 A 
ATOM      5  C   UNL     1       2.249  13.474  18.807  0.00  0.00    +0.000 A 
ATOM      6  C   UNL     1       2.728  12.334  17.964  0.00  0.00    +0.000 C 
ATOM      7  C   UNL     1       3.072  14.463  19.195  0.00  0.00    +0.000 A 
ATOM      8  C   UNL     1       2.608  15.541  20.024  0.00  0.00    +0.000 A 
ATOM      9  C   UNL     1       1.339  15.554  20.441  0.00  0.00    +0.000 A 
ATOM     10  N   UNL     1       0.456  14.539  20.110  0.00  0.00    +0.000 N 
ATOM     11  C   UNL     1      -0.845  14.626  20.547  0.00  0.00    +0.000 A 
ATOM     12  O   UNL     1      -1.364  15.641  21.012  0.00  0.00    +0.000 OA
ENDROOT
BRANCH   1  14
ATOM     13  C   UNL     1      -2.750  12.513  22.541  0.00  0.00    +0.000 C 
ATOM     14  C   UNL     1      -2.786  13.227  21.388  0.00  0.00    +0.000 C 
BRANCH  13  15
ATOM     15  C   UNL     1      -3.886  12.618  23.474  0.00  0.00    +0.000 C 
ATOM     16  O   UNL     1      -4.097  11.830  24.384  0.00  0.00    +0.000 OA
BRANCH  15  17
ATOM     17  O   UNL     1      -4.690  13.644  23.109  0.00  0.00    +0.000 OA
BRANCH  17  19
ATOM     18  C   UNL     1      -6.465  12.666  21.857  0.00  0.00    +0.000 C 
ATOM     19  C   UNL     1      -6.096  13.364  23.153  0.00  0.00    +0.000 C 
ENDBRANCH  17  19
ENDBRANCH  15  17
ENDBRANCH  13  15
BRANCH  13  20
ATOM     20  C   UNL     1      -1.510  11.700  22.879  0.00  0.00    +0.000 C 
ATOM     21  N   UNL     1      -0.483  11.025  23.160  0.00  0.00    +0.000 NA
ENDBRANCH  13  20
ENDBRANCH   1  14
BRANCH   2  22
ATOM     22  O   UNL     1      -1.953  11.269  19.421  0.00  0.00    +0.000 OA
BRANCH  22  23
ATOM     23  C   UNL     1      -2.796  11.121  18.333  0.00  0.00    +0.000 A 
ATOM     24  C   UNL     1      -4.059  11.711  18.452  0.00  0.00    +0.000 A 
ATOM     25  C   UNL     1      -4.927  11.755  17.359  0.00  0.00    +0.000 A 
ATOM     26  C   UNL     1      -4.530  11.224  16.131  0.00  0.00    +0.000 A 
ATOM     27  C   UNL     1      -3.271  10.629  15.994  0.00  0.00    +0.000 A 
ATOM     28  C   UNL     1      -2.839  10.066  14.671  0.00  0.00    +0.000 C 
ATOM     29  C   UNL     1      -2.414  10.561  17.109  0.00  0.00    +0.000 A 
ENDBRANCH  22  23
ENDBRANCH   2  22
TORSDOF 7
ENDMDL
MODEL 9
REMARK VINA RESULT:      -6.6      4.535      8.473
REMARK  Name = 
REMARK  10 active torsions:
REMARK  status: ('A' for Active; 'I' for Inactive)
REMARK    1  A    between atoms: C_1  and  C_2
REMARK    2  A    between atoms: C_2  and  O_3
REMARK    3  A    between atoms: O_3  and  C_4
REMARK    4  A    between atoms: C_4  and  C_6
REMARK    5  A    between atoms: C_6  and  C_7
REMARK    6  A    between atoms: C_9  and  C_10
REMARK    7  A    between atoms: C_11  and  O_12
REMARK    8  A    between atoms: O_12  and  C_13
REMARK    9  A    between atoms: C_17  and  C_18
REMARK   10  A    between atoms: C_22  and  C_23
REMARK                            x       y       z     vdW  Elec       q    Type
REMARK                         _______ _______ _______ _____ _____    ______ ____
ROOT
ATOM      1  C   UNL     1      -0.163  11.380  19.696  0.00  0.00    +0.000 A 
ATOM      2  C   UNL     1       0.025  10.534  18.665  0.00  0.00    +0.000 A 
ATOM      3  N   UNL     1      -0.986  10.172  17.804  0.00  0.00    +0.000 NA
ATOM      4  C   UNL     1      -2.157  10.714  17.943  0.00  0.00    +0.000 A 
ATOM      5  C   UNL     1      -3.220  10.520  16.896  0.00  0.00    +0.000 A 
ATOM      6  C   UNL     1      -2.900   9.722  15.671  0.00  0.00    +0.000 C 
ATOM      7  C   UNL     1      -4.412  11.121  17.060  0.00  0.00    +0.000 A 
ATOM      8  C   UNL     1      -4.700  11.904  18.230  0.00  0.00    +0.000 A 
ATOM      9  C   UNL     1      -3.762  12.061  19.167  0.00  0.00    +0.000 A 
ATOM     10  N   UNL     1      -2.500  11.502  19.032  0.00  0.00    +0.000 N 
ATOM     11  C   UNL     1      -1.588  11.677  20.046  0.00  0.00    +0.000 A 
ATOM     12  O   UNL     1      -1.861  12.090  21.175  0.00  0.00    +0.000 OA
ENDROOT
BRANCH   1  14
ATOM     13  C   UNL     1       1.173  13.356  20.408  0.00  0.00    +0.000 C 
ATOM     14  C   UNL     1       0.882  12.033  20.495  0.00  0.00    +0.000 C 
BRANCH  13  15
ATOM     15  C   UNL     1       2.093  13.944  21.398  0.00  0.00    +0.000 C 
ATOM     16  O   UNL     1       3.286  13.687  21.459  0.00  0.00    +0.000 OA
BRANCH  15  17
ATOM     17  O   UNL     1       1.402  14.720  22.267  0.00  0.00    +0.000 OA
BRANCH  17  19
ATOM     18  C   UNL     1       1.362  16.997  21.567  0.00  0.00    +0.000 C 
ATOM     19  C   UNL     1       1.982  16.004  22.534  0.00  0.00    +0.000 C 
ENDBRANCH  17  19
ENDBRANCH  15  17
ENDBRANCH  13  15
BRANCH  13  20
ATOM     20  C   UNL     1       0.480  14.206  19.356  0.00  0.00    +0.000 C 
ATOM     21  N   UNL     1      -0.095  14.912  18.484  0.00  0.00    +0.000 NA
ENDBRANCH  13  20
ENDBRANCH   1  14
BRANCH   2  22
ATOM     22  O   UNL     1       1.330  10.158  18.331  0.00  0.00    +0.000 OA
BRANCH  22  23
ATOM     23  C   UNL     1       1.833   8.939  18.753  0.00  0.00    +0.000 A 
ATOM     24  C   UNL     1       1.408   8.502  20.011  0.00  0.00    +0.000 A 
ATOM     25  C   UNL     1       1.731   7.221  20.464  0.00  0.00    +0.000 A 
ATOM     26  C   UNL     1       2.469   6.360  19.651  0.00  0.00    +0.000 A 
ATOM     27  C   UNL     1       2.903   6.780  18.389  0.00  0.00    +0.000 A 
ATOM     28  C   UNL     1       3.689   5.850  17.509  0.00  0.00    +0.000 C 
ATOM     29  C   UNL     1       2.601   8.084  17.953  0.00  0.00    +0.000 A 
ENDBRANCH  22  23
ENDBRANCH   2  22
TORSDOF 7
ENDMDL
