MODEL 1
REMARK VINA RESULT:      -7.7      0.000      0.000
REMARK  Name = 
REMARK  4 active torsions:
REMARK  status: ('A' for Active; 'I' for Inactive)
REMARK    1  A    between atoms: C_1  and  C_2
REMARK    2  A    between atoms: C_4  and  C_5
REMARK    3  A    between atoms: N_6  and  C_7
REMARK    4  A    between atoms: C_19  and  C_20
REMARK                            x       y       z     vdW  Elec       q    Type
REMARK                         _______ _______ _______ _____ _____    ______ ____
ROOT
ATOM      1  C   UNL     1       2.970   6.923  18.367  0.00  0.00    +0.000 A 
ATOM      2  C   UNL     1       2.656   7.958  17.492  0.00  0.00    +0.000 A 
ATOM      3  C   UNL     1       1.808   8.977  17.924  0.00  0.00    +0.000 A 
ATOM      4  C   UNL     1       1.327   8.981  19.235  0.00  0.00    +0.000 A 
ATOM      5  N   UNL     1       0.579  10.047  19.687  0.00  0.00    +0.000 N 
ATOM      6  C   UNL     1       0.601  10.372  21.105  0.00  0.00    +0.000 C 
ATOM      7  C   UNL     1       0.716  11.889  21.186  0.00  0.00    +0.000 C 
ATOM      8  C   UNL     1      -0.447  12.559  20.447  0.00  0.00    +0.000 C 
ATOM      9  C   UNL     1      -0.596  12.037  19.010  0.00  0.00    +0.000 C 
ATOM     10  C   UNL     1      -0.597  10.511  18.967  0.00  0.00    +0.000 C 
ATOM     11  O   UNL     1      -0.195  13.977  20.399  0.00  0.00    +0.000 OA
ATOM     12  C   UNL     1      -1.425  14.590  20.781  0.00  0.00    +0.000 C 
ATOM     13  C   UNL     1      -2.050  13.591  21.723  0.00  0.00    +0.000 C 
ATOM     14  C   UNL     1      -1.527  13.709  23.150  0.00  0.00    +0.000 C 
ATOM     15  O   UNL     1      -1.674  12.328  21.166  0.00  0.00    +0.000 OA
ATOM     16  N   UNL     1       1.678   8.009  20.102  0.00  0.00    +0.000 NA
ATOM     17  C   UNL     1       2.481   7.011  19.657  0.00  0.00    +0.000 A 
ENDROOT
BRANCH   1  23
ATOM     18  C   UNL     1       7.084   4.694  17.246  0.00  0.00    +0.000 C 
ATOM     19  C   UNL     1       5.625   4.860  17.464  0.00  0.00    +0.000 A 
ATOM     20  C   UNL     1       4.628   3.872  17.414  0.00  0.00    +0.000 A 
ATOM     21  C   UNL     1       3.444   4.532  17.674  0.00  0.00    +0.000 A 
ATOM     22  C   UNL     1       2.057   4.011  17.574  0.00  0.00    +0.000 C 
ATOM     23  N   UNL     1       3.789   5.851  17.946  0.00  0.00    +0.000 N 
ATOM     24  N   UNL     1       5.113   6.066  17.714  0.00  0.00    +0.000 NA
ENDBRANCH   1  23
TORSDOF 1
ENDMDL
MODEL 2
REMARK VINA RESULT:      -7.4      1.381      2.247
REMARK  Name = 
REMARK  4 active torsions:
REMARK  status: ('A' for Active; 'I' for Inactive)
REMARK    1  A    between atoms: C_1  and  C_2
REMARK    2  A    between atoms: C_4  and  C_5
REMARK    3  A    between atoms: N_6  and  C_7
REMARK    4  A    between atoms: C_19  and  C_20
REMARK                            x       y       z     vdW  Elec       q    Type
REMARK                         _______ _______ _______ _____ _____    ______ ____
ROOT
ATOM      1  C   UNL     1       2.658   6.205  18.675  0.00  0.00    +0.000 A 
ATOM      2  C   UNL     1       2.045   5.959  19.899  0.00  0.00    +0.000 A 
ATOM      3  C   UNL     1       1.535   7.032  20.629  0.00  0.00    +0.000 A 
ATOM      4  C   UNL     1       1.593   8.326  20.108  0.00  0.00    +0.000 A 
ATOM      5  N   UNL     1       0.991   9.365  20.785  0.00  0.00    +0.000 N 
ATOM      6  C   UNL     1       0.510  10.513  20.029  0.00  0.00    +0.000 C 
ATOM      7  C   UNL     1      -0.858  10.851  20.607  0.00  0.00    +0.000 C 
ATOM      8  C   UNL     1      -0.755  11.137  22.109  0.00  0.00    +0.000 C 
ATOM      9  C   UNL     1      -0.041  10.006  22.864  0.00  0.00    +0.000 C 
ATOM     10  C   UNL     1       1.274   9.626  22.187  0.00  0.00    +0.000 C 
ATOM     11  O   UNL     1      -2.090  11.272  22.636  0.00  0.00    +0.000 OA
ATOM     12  C   UNL     1      -2.056  12.443  23.449  0.00  0.00    +0.000 C 
ATOM     13  C   UNL     1      -1.015  13.313  22.787  0.00  0.00    +0.000 C 
ATOM     14  C   UNL     1      -1.569  14.118  21.617  0.00  0.00    +0.000 C 
ATOM     15  O   UNL     1      -0.044  12.372  22.318  0.00  0.00    +0.000 OA
ATOM     16  N   UNL     1       2.136   8.558  18.894  0.00  0.00    +0.000 NA
ATOM     17  C   UNL     1       2.652   7.507  18.211  0.00  0.00    +0.000 A 
ENDROOT
BRANCH   1  23
ATOM     18  C   UNL     1       5.959   4.008  15.949  0.00  0.00    +0.000 C 
ATOM     19  C   UNL     1       4.708   4.169  16.733  0.00  0.00    +0.000 A 
ATOM     20  C   UNL     1       3.759   3.184  17.053  0.00  0.00    +0.000 A 
ATOM     21  C   UNL     1       2.785   3.837  17.780  0.00  0.00    +0.000 A 
ATOM     22  C   UNL     1       1.464   3.321  18.224  0.00  0.00    +0.000 C 
ATOM     23  N   UNL     1       3.227   5.146  17.932  0.00  0.00    +0.000 N 
ATOM     24  N   UNL     1       4.354   5.366  17.200  0.00  0.00    +0.000 NA
ENDBRANCH   1  23
TORSDOF 1
ENDMDL
MODEL 3
REMARK VINA RESULT:      -7.3      3.453      9.015
REMARK  Name = 
REMARK  4 active torsions:
REMARK  status: ('A' for Active; 'I' for Inactive)
REMARK    1  A    between atoms: C_1  and  C_2
REMARK    2  A    between atoms: C_4  and  C_5
REMARK    3  A    between atoms: N_6  and  C_7
REMARK    4  A    between atoms: C_19  and  C_20
REMARK                            x       y       z     vdW  Elec       q    Type
REMARK                         _______ _______ _______ _____ _____    ______ ____
ROOT
ATOM      1  C   UNL     1      -0.256  10.674  21.738  0.00  0.00    +0.000 A 
ATOM      2  C   UNL     1      -0.312  10.465  20.364  0.00  0.00    +0.000 A 
ATOM      3  C   UNL     1       0.415   9.414  19.807  0.00  0.00    +0.000 A 
ATOM      4  C   UNL     1       1.145   8.553  20.629  0.00  0.00    +0.000 A 
ATOM      5  N   UNL     1       1.773   7.454  20.084  0.00  0.00    +0.000 N 
ATOM      6  C   UNL     1       1.985   6.279  20.917  0.00  0.00    +0.000 C 
ATOM      7  C   UNL     1       1.626   5.080  20.048  0.00  0.00    +0.000 C 
ATOM      8  C   UNL     1       2.478   5.059  18.775  0.00  0.00    +0.000 C 
ATOM      9  C   UNL     1       2.418   6.395  18.019  0.00  0.00    +0.000 C 
ATOM     10  C   UNL     1       2.677   7.576  18.951  0.00  0.00    +0.000 C 
ATOM     11  O   UNL     1       1.978   4.018  17.913  0.00  0.00    +0.000 OA
ATOM     12  C   UNL     1       3.133   3.308  17.473  0.00  0.00    +0.000 C 
ATOM     13  C   UNL     1       4.103   3.447  18.621  0.00  0.00    +0.000 C 
ATOM     14  C   UNL     1       3.870   2.423  19.725  0.00  0.00    +0.000 C 
ATOM     15  O   UNL     1       3.847   4.766  19.115  0.00  0.00    +0.000 OA
ATOM     16  N   UNL     1       1.154   8.719  21.968  0.00  0.00    +0.000 NA
ATOM     17  C   UNL     1       0.464   9.763  22.490  0.00  0.00    +0.000 A 
ENDROOT
BRANCH   1  23
ATOM     18  C   UNL     1      -3.712  12.837  24.293  0.00  0.00    +0.000 C 
ATOM     19  C   UNL     1      -2.475  12.712  23.480  0.00  0.00    +0.000 A 
ATOM     20  C   UNL     1      -1.542  13.715  23.173  0.00  0.00    +0.000 A 
ATOM     21  C   UNL     1      -0.588  13.100  22.388  0.00  0.00    +0.000 A 
ATOM     22  C   UNL     1       0.533  13.725  21.639  0.00  0.00    +0.000 C 
ATOM     23  N   UNL     1      -0.943  11.758  22.329  0.00  0.00    +0.000 N 
ATOM     24  N   UNL     1      -2.155  11.549  22.913  0.00  0.00    +0.000 NA
ENDBRANCH   1  23
TORSDOF 1
ENDMDL
MODEL 4
REMARK VINA RESULT:      -7.3      0.991      1.697
REMARK  Name = 
REMARK  4 active torsions:
REMARK  status: ('A' for Active; 'I' for Inactive)
REMARK    1  A    between atoms: C_1  and  C_2
REMARK    2  A    between atoms: C_4  and  C_5
REMARK    3  A    between atoms: N_6  and  C_7
REMARK    4  A    between atoms: C_19  and  C_20
REMARK                            x       y       z     vdW  Elec       q    Type
REMARK                         _______ _______ _______ _____ _____    ______ ____
ROOT
ATOM      1  C   UNL     1       2.574   6.958  18.460  0.00  0.00    +0.000 A 
ATOM      2  C   UNL     1       2.299   7.926  17.499  0.00  0.00    +0.000 A 
ATOM      3  C   UNL     1       1.612   9.079  17.876  0.00  0.00    +0.000 A 
ATOM      4  C   UNL     1       1.256   9.278  19.212  0.00  0.00    +0.000 A 
ATOM      5  N   UNL     1       0.674  10.467  19.596  0.00  0.00    +0.000 N 
ATOM      6  C   UNL     1       0.861  10.934  20.962  0.00  0.00    +0.000 C 
ATOM      7  C   UNL     1       1.150  12.426  20.859  0.00  0.00    +0.000 C 
ATOM      8  C   UNL     1       0.007  13.151  20.141  0.00  0.00    +0.000 C 
ATOM      9  C   UNL     1      -0.328  12.503  18.789  0.00  0.00    +0.000 C 
ATOM     10  C   UNL     1      -0.502  10.992  18.921  0.00  0.00    +0.000 C 
ATOM     11  O   UNL     1       0.410  14.516  19.912  0.00  0.00    +0.000 OA
ATOM     12  C   UNL     1      -0.704  15.308  20.315  0.00  0.00    +0.000 C 
ATOM     13  C   UNL     1      -1.349  14.496  21.411  0.00  0.00    +0.000 C 
ATOM     14  C   UNL     1      -0.689  14.699  22.770  0.00  0.00    +0.000 C 
ATOM     15  O   UNL     1      -1.168  13.145  20.975  0.00  0.00    +0.000 OA
ATOM     16  N   UNL     1       1.573   8.366  20.155  0.00  0.00    +0.000 NA
ATOM     17  C   UNL     1       2.217   7.239  19.766  0.00  0.00    +0.000 A 
ENDROOT
BRANCH   1  23
ATOM     18  C   UNL     1       3.034   2.210  17.825  0.00  0.00    +0.000 C 
ATOM     19  C   UNL     1       3.419   3.644  17.807  0.00  0.00    +0.000 A 
ATOM     20  C   UNL     1       4.585   4.217  17.271  0.00  0.00    +0.000 A 
ATOM     21  C   UNL     1       4.473   5.571  17.514  0.00  0.00    +0.000 A 
ATOM     22  C   UNL     1       5.496   6.630  17.319  0.00  0.00    +0.000 C 
ATOM     23  N   UNL     1       3.227   5.757  18.102  0.00  0.00    +0.000 N 
ATOM     24  N   UNL     1       2.633   4.561  18.372  0.00  0.00    +0.000 NA
ENDBRANCH   1  23
TORSDOF 1
ENDMDL
MODEL 5
REMARK VINA RESULT:      -7.2      3.341      8.961
REMARK  Name = 
REMARK  4 active torsions:
REMARK  status: ('A' for Active; 'I' for Inactive)
REMARK    1  A    between atoms: C_1  and  C_2
REMARK    2  A    between atoms: C_4  and  C_5
REMARK    3  A    between atoms: N_6  and  C_7
REMARK    4  A    between atoms: C_19  and  C_20
REMARK                            x       y       z     vdW  Elec       q    Type
REMARK                         _______ _______ _______ _____ _____    ______ ____
ROOT
ATOM      1  C   UNL     1       0.142  10.510  21.258  0.00  0.00    +0.000 A 
ATOM      2  C   UNL     1       0.880   9.598  22.005  0.00  0.00    +0.000 A 
ATOM      3  C   UNL     1       1.551   8.568  21.347  0.00  0.00    +0.000 A 
ATOM      4  C   UNL     1       1.524   8.491  19.953  0.00  0.00    +0.000 A 
ATOM      5  N   UNL     1       2.277   7.536  19.305  0.00  0.00    +0.000 N 
ATOM      6  C   UNL     1       2.744   7.806  17.953  0.00  0.00    +0.000 C 
ATOM      7  C   UNL     1       4.193   7.338  17.910  0.00  0.00    +0.000 C 
ATOM      8  C   UNL     1       4.295   5.855  18.281  0.00  0.00    +0.000 C 
ATOM      9  C   UNL     1       3.597   5.546  19.614  0.00  0.00    +0.000 C 
ATOM     10  C   UNL     1       2.186   6.127  19.655  0.00  0.00    +0.000 C 
ATOM     11  O   UNL     1       5.690   5.513  18.400  0.00  0.00    +0.000 OA
ATOM     12  C   UNL     1       5.839   4.292  17.680  0.00  0.00    +0.000 C 
ATOM     13  C   UNL     1       4.792   4.379  16.598  0.00  0.00    +0.000 C 
ATOM     14  C   UNL     1       5.256   5.173  15.382  0.00  0.00    +0.000 C 
ATOM     15  O   UNL     1       3.705   5.055  17.239  0.00  0.00    +0.000 OA
ATOM     16  N   UNL     1       0.856   9.409  19.224  0.00  0.00    +0.000 NA
ATOM     17  C   UNL     1       0.186  10.387  19.881  0.00  0.00    +0.000 A 
ENDROOT
BRANCH   1  23
ATOM     18  C   UNL     1      -3.406  12.413  23.892  0.00  0.00    +0.000 C 
ATOM     19  C   UNL     1      -2.161  12.376  23.084  0.00  0.00    +0.000 A 
ATOM     20  C   UNL     1      -1.264  13.426  22.834  0.00  0.00    +0.000 A 
ATOM     21  C   UNL     1      -0.284  12.887  22.026  0.00  0.00    +0.000 A 
ATOM     22  C   UNL     1       0.818  13.590  21.319  0.00  0.00    +0.000 C 
ATOM     23  N   UNL     1      -0.588  11.537  21.897  0.00  0.00    +0.000 N 
ATOM     24  N   UNL     1      -1.795  11.255  22.461  0.00  0.00    +0.000 NA
ENDBRANCH   1  23
TORSDOF 1
ENDMDL
MODEL 6
REMARK VINA RESULT:      -7.1      3.593      8.766
REMARK  Name = 
REMARK  4 active torsions:
REMARK  status: ('A' for Active; 'I' for Inactive)
REMARK    1  A    between atoms: C_1  and  C_2
REMARK    2  A    between atoms: C_4  and  C_5
REMARK    3  A    between atoms: N_6  and  C_7
REMARK    4  A    between atoms: C_19  and  C_20
REMARK                            x       y       z     vdW  Elec       q    Type
REMARK                         _______ _______ _______ _____ _____    ______ ____
ROOT
ATOM      1  C   UNL     1       0.600  10.758  21.273  0.00  0.00    +0.000 A 
ATOM      2  C   UNL     1       0.575  10.516  19.903  0.00  0.00    +0.000 A 
ATOM      3  C   UNL     1       1.078   9.309  19.418  0.00  0.00    +0.000 A 
ATOM      4  C   UNL     1       1.549   8.339  20.306  0.00  0.00    +0.000 A 
ATOM      5  N   UNL     1       1.943   7.108  19.828  0.00  0.00    +0.000 N 
ATOM      6  C   UNL     1       1.839   5.947  20.701  0.00  0.00    +0.000 C 
ATOM      7  C   UNL     1       1.270   4.826  19.841  0.00  0.00    +0.000 C 
ATOM      8  C   UNL     1       2.165   4.569  18.625  0.00  0.00    +0.000 C 
ATOM      9  C   UNL     1       2.449   5.855  17.835  0.00  0.00    +0.000 C 
ATOM     10  C   UNL     1       2.914   6.983  18.752  0.00  0.00    +0.000 C 
ATOM     11  O   UNL     1       1.493   3.633  17.758  0.00  0.00    +0.000 OA
ATOM     12  C   UNL     1       2.483   2.668  17.409  0.00  0.00    +0.000 C 
ATOM     13  C   UNL     1       3.393   2.631  18.613  0.00  0.00    +0.000 C 
ATOM     14  C   UNL     1       2.875   1.726  19.724  0.00  0.00    +0.000 C 
ATOM     15  O   UNL     1       3.412   3.991  19.057  0.00  0.00    +0.000 OA
ATOM     16  N   UNL     1       1.520   8.549  21.638  0.00  0.00    +0.000 NA
ATOM     17  C   UNL     1       1.054   9.739  22.090  0.00  0.00    +0.000 A 
ENDROOT
BRANCH   1  23
ATOM     18  C   UNL     1       0.554  15.526  21.921  0.00  0.00    +0.000 C 
ATOM     19  C   UNL     1       0.116  14.114  22.063  0.00  0.00    +0.000 A 
ATOM     20  C   UNL     1      -1.031  13.628  22.711  0.00  0.00    +0.000 A 
ATOM     21  C   UNL     1      -0.976  12.256  22.575  0.00  0.00    +0.000 A 
ATOM     22  C   UNL     1      -1.839  11.230  23.216  0.00  0.00    +0.000 C 
ATOM     23  N   UNL     1       0.141  11.990  21.792  0.00  0.00    +0.000 N 
ATOM     24  N   UNL     1       0.862  13.124  21.571  0.00  0.00    +0.000 NA
ENDBRANCH   1  23
TORSDOF 1
ENDMDL
MODEL 7
REMARK VINA RESULT:      -7.1      1.560      2.666
REMARK  Name = 
REMARK  4 active torsions:
REMARK  status: ('A' for Active; 'I' for Inactive)
REMARK    1  A    between atoms: C_1  and  C_2
REMARK    2  A    between atoms: C_4  and  C_5
REMARK    3  A    between atoms: N_6  and  C_7
REMARK    4  A    between atoms: C_19  and  C_20
REMARK                            x       y       z     vdW  Elec       q    Type
REMARK                         _______ _______ _______ _____ _____    ______ ____
ROOT
ATOM      1  C   UNL     1       2.622   6.049  19.129  0.00  0.00    +0.000 A 
ATOM      2  C   UNL     1       1.905   5.887  20.311  0.00  0.00    +0.000 A 
ATOM      3  C   UNL     1       1.384   7.013  20.947  0.00  0.00    +0.000 A 
ATOM      4  C   UNL     1       1.537   8.277  20.373  0.00  0.00    +0.000 A 
ATOM      5  N   UNL     1       0.928   9.370  20.951  0.00  0.00    +0.000 N 
ATOM      6  C   UNL     1       0.556  10.497  20.107  0.00  0.00    +0.000 C 
ATOM      7  C   UNL     1      -0.838  10.915  20.557  0.00  0.00    +0.000 C 
ATOM      8  C   UNL     1      -0.841  11.270  22.047  0.00  0.00    +0.000 C 
ATOM      9  C   UNL     1      -0.236  10.152  22.908  0.00  0.00    +0.000 C 
ATOM     10  C   UNL     1       1.110   9.689  22.358  0.00  0.00    +0.000 C 
ATOM     11  O   UNL     1      -2.207  11.482  22.458  0.00  0.00    +0.000 OA
ATOM     12  C   UNL     1      -2.187  12.689  23.216  0.00  0.00    +0.000 C 
ATOM     13  C   UNL     1      -1.063  13.485  22.601  0.00  0.00    +0.000 C 
ATOM     14  C   UNL     1      -1.488  14.253  21.355  0.00  0.00    +0.000 C 
ATOM     15  O   UNL     1      -0.098  12.486  22.256  0.00  0.00    +0.000 OA
ATOM     16  N   UNL     1       2.183   8.428  19.198  0.00  0.00    +0.000 NA
ATOM     17  C   UNL     1       2.707   7.326  18.607  0.00  0.00    +0.000 A 
ENDROOT
BRANCH   1  23
ATOM     18  C   UNL     1       3.451   1.386  18.278  0.00  0.00    +0.000 C 
ATOM     19  C   UNL     1       3.555   2.857  18.100  0.00  0.00    +0.000 A 
ATOM     20  C   UNL     1       4.223   3.556  17.083  0.00  0.00    +0.000 A 
ATOM     21  C   UNL     1       4.033   4.892  17.371  0.00  0.00    +0.000 A 
ATOM     22  C   UNL     1       4.664   6.073  16.727  0.00  0.00    +0.000 C 
ATOM     23  N   UNL     1       3.203   4.934  18.484  0.00  0.00    +0.000 N 
ATOM     24  N   UNL     1       3.000   3.684  18.987  0.00  0.00    +0.000 NA
ENDBRANCH   1  23
TORSDOF 1
ENDMDL
MODEL 8
REMARK VINA RESULT:      -7.1      1.925      2.744
REMARK  Name = 
REMARK  4 active torsions:
REMARK  status: ('A' for Active; 'I' for Inactive)
REMARK    1  A    between atoms: C_1  and  C_2
REMARK    2  A    between atoms: C_4  and  C_5
REMARK    3  A    between atoms: N_6  and  C_7
REMARK    4  A    between atoms: C_19  and  C_20
REMARK                            x       y       z     vdW  Elec       q    Type
REMARK                         _______ _______ _______ _____ _____    ______ ____
ROOT
ATOM      1  C   UNL     1       4.448   6.097  17.045  0.00  0.00    +0.000 A 
ATOM      2  C   UNL     1       4.449   7.462  16.776  0.00  0.00    +0.000 A 
ATOM      3  C   UNL     1       3.535   8.284  17.434  0.00  0.00    +0.000 A 
ATOM      4  C   UNL     1       2.669   7.746  18.389  0.00  0.00    +0.000 A 
ATOM      5  N   UNL     1       1.845   8.581  19.112  0.00  0.00    +0.000 N 
ATOM      6  C   UNL     1       1.431   8.177  20.448  0.00  0.00    +0.000 C 
ATOM      7  C   UNL     1       1.554   9.421  21.319  0.00  0.00    +0.000 C 
ATOM      8  C   UNL     1       0.697  10.560  20.758  0.00  0.00    +0.000 C 
ATOM      9  C   UNL     1       0.992  10.827  19.274  0.00  0.00    +0.000 C 
ATOM     10  C   UNL     1       0.965   9.537  18.459  0.00  0.00    +0.000 C 
ATOM     11  O   UNL     1       0.988  11.756  21.508  0.00  0.00    +0.000 OA
ATOM     12  C   UNL     1      -0.283  12.322  21.820  0.00  0.00    +0.000 C 
ATOM     13  C   UNL     1      -1.197  11.126  21.922  0.00  0.00    +0.000 C 
ATOM     14  C   UNL     1      -1.143  10.449  23.287  0.00  0.00    +0.000 C 
ATOM     15  O   UNL     1      -0.698  10.239  20.915  0.00  0.00    +0.000 OA
ATOM     16  N   UNL     1       2.706   6.432  18.693  0.00  0.00    +0.000 NA
ATOM     17  C   UNL     1       3.582   5.644  18.023  0.00  0.00    +0.000 A 
ENDROOT
BRANCH   1  23
ATOM     18  C   UNL     1       6.110   3.538  13.325  0.00  0.00    +0.000 C 
ATOM     19  C   UNL     1       6.072   4.106  14.696  0.00  0.00    +0.000 A 
ATOM     20  C   UNL     1       7.051   4.006  15.698  0.00  0.00    +0.000 A 
ATOM     21  C   UNL     1       6.537   4.689  16.782  0.00  0.00    +0.000 A 
ATOM     22  C   UNL     1       7.071   4.756  18.166  0.00  0.00    +0.000 C 
ATOM     23  N   UNL     1       5.329   5.230  16.361  0.00  0.00    +0.000 N 
ATOM     24  N   UNL     1       5.002   4.782  15.117  0.00  0.00    +0.000 NA
ENDBRANCH   1  23
TORSDOF 1
ENDMDL
MODEL 9
REMARK VINA RESULT:      -7.1      3.439      8.899
REMARK  Name = 
REMARK  4 active torsions:
REMARK  status: ('A' for Active; 'I' for Inactive)
REMARK    1  A    between atoms: C_1  and  C_2
REMARK    2  A    between atoms: C_4  and  C_5
REMARK    3  A    between atoms: N_6  and  C_7
REMARK    4  A    between atoms: C_19  and  C_20
REMARK                            x       y       z     vdW  Elec       q    Type
REMARK                         _______ _______ _______ _____ _____    ______ ____
ROOT
ATOM      1  C   UNL     1       0.619  10.808  21.339  0.00  0.00    +0.000 A 
ATOM      2  C   UNL     1       0.950   9.822  22.263  0.00  0.00    +0.000 A 
ATOM      3  C   UNL     1       1.330   8.562  21.802  0.00  0.00    +0.000 A 
ATOM      4  C   UNL     1       1.427   8.316  20.430  0.00  0.00    +0.000 A 
ATOM      5  N   UNL     1       1.907   7.104  19.984  0.00  0.00    +0.000 N 
ATOM      6  C   UNL     1       2.576   7.044  18.692  0.00  0.00    +0.000 C 
ATOM      7  C   UNL     1       3.801   6.162  18.896  0.00  0.00    +0.000 C 
ATOM      8  C   UNL     1       3.393   4.778  19.411  0.00  0.00    +0.000 C 
ATOM      9  C   UNL     1       2.496   4.868  20.655  0.00  0.00    +0.000 C 
ATOM     10  C   UNL     1       1.343   5.845  20.444  0.00  0.00    +0.000 C 
ATOM     11  O   UNL     1       4.590   4.053  19.756  0.00  0.00    +0.000 OA
ATOM     12  C   UNL     1       4.424   2.760  19.178  0.00  0.00    +0.000 C 
ATOM     13  C   UNL     1       3.577   3.015  17.955  0.00  0.00    +0.000 C 
ATOM     14  C   UNL     1       4.392   3.470  16.750  0.00  0.00    +0.000 C 
ATOM     15  O   UNL     1       2.696   4.063  18.373  0.00  0.00    +0.000 OA
ATOM     16  N   UNL     1       1.162   9.290  19.534  0.00  0.00    +0.000 NA
ATOM     17  C   UNL     1       0.767  10.500  19.999  0.00  0.00    +0.000 A 
ENDROOT
BRANCH   1  23
ATOM     18  C   UNL     1       0.731  15.601  21.753  0.00  0.00    +0.000 C 
ATOM     19  C   UNL     1       0.230  14.215  21.940  0.00  0.00    +0.000 A 
ATOM     20  C   UNL     1      -0.967  13.806  22.549  0.00  0.00    +0.000 A 
ATOM     21  C   UNL     1      -0.960  12.428  22.482  0.00  0.00    +0.000 A 
ATOM     22  C   UNL     1      -1.895  11.469  23.125  0.00  0.00    +0.000 C 
ATOM     23  N   UNL     1       0.184  12.081  21.773  0.00  0.00    +0.000 N 
ATOM     24  N   UNL     1       0.960  13.174  21.536  0.00  0.00    +0.000 NA
ENDBRANCH   1  23
TORSDOF 1
ENDMDL
