MODEL 1
REMARK VINA RESULT:      -7.9      0.000      0.000
REMARK  Name = 
REMARK  9 active torsions:
REMARK  status: ('A' for Active; 'I' for Inactive)
REMARK    1  A    between atoms: C_1  and  C_2
REMARK    2  A    between atoms: C_2  and  N_3
REMARK    3  A    between atoms: N_3  and  N_4
REMARK    4  A    between atoms: C_5  and  C_7
REMARK    5  A    between atoms: C_11  and  C_12
REMARK    6  A    between atoms: C_12  and  O_14
REMARK    7  A    between atoms: N_19  and  C_20
REMARK    8  A    between atoms: C_23  and  C_24
REMARK    9  A    between atoms: C_30  and  N_31
REMARK                            x       y       z     vdW  Elec       q    Type
REMARK                         _______ _______ _______ _____ _____    ______ ____
ROOT
ATOM      1  C   UNL     1       2.734  12.044  18.105  0.00  0.00    +0.000 C 
ATOM      2  C   UNL     1       1.432  11.514  18.670  0.00  0.00    +0.000 C 
ATOM      3  C   UNL     1       0.727  12.193  19.610  0.00  0.00    +0.000 C 
ATOM      4  C   UNL     1      -0.574  11.696  20.203  0.00  0.00    +0.000 C 
ATOM      5  O   UNL     1      -1.124  10.658  19.870  0.00  0.00    +0.000 OA
ATOM      6  N   UNL     1      -0.979  12.687  21.130  0.00  0.00    +0.000 N 
ATOM      7  C   UNL     1      -0.016  13.732  21.183  0.00  0.00    +0.000 A 
ATOM      8  C   UNL     1       0.072  14.851  22.009  0.00  0.00    +0.000 A 
ATOM      9  C   UNL     1       1.144  15.752  21.855  0.00  0.00    +0.000 A 
ATOM     10  C   UNL     1       2.129  15.523  20.883  0.00  0.00    +0.000 A 
ATOM     11  C   UNL     1       2.072  14.358  20.114  0.00  0.00    +0.000 A 
ATOM     12  C   UNL     1       1.015  13.474  20.267  0.00  0.00    +0.000 A 
ENDROOT
BRANCH   6  13
ATOM     13  C   UNL     1      -2.222  12.655  21.836  0.00  0.00    +0.000 A 
ATOM     14  C   UNL     1      -3.396  13.113  21.218  0.00  0.00    +0.000 A 
ATOM     15  C   UNL     1      -4.618  13.192  21.904  0.00  0.00    +0.000 A 
ATOM     16  C   UNL     1      -4.703  12.815  23.246  0.00  0.00    +0.000 A 
ATOM     17  C   UNL     1      -5.984  12.973  24.013  0.00  0.00    +0.000 C 
ATOM     18  C   UNL     1      -3.556  12.328  23.869  0.00  0.00    +0.000 A 
ATOM     19  C   UNL     1      -2.332  12.262  23.179  0.00  0.00    +0.000 A 
ENDBRANCH   6  13
BRANCH  10  20
ATOM     20  N   UNL     1       3.196  16.439  20.654  0.00  0.00    +0.000 N 
ATOM     21  C   UNL     1       4.161  16.330  19.660  0.00  0.00    +0.000 A 
ATOM     22  C   UNL     1       5.022  17.394  19.748  0.00  0.00    +0.000 A 
ATOM     23  C   UNL     1       4.596  18.190  20.828  0.00  0.00    +0.000 A 
ATOM     24  C   UNL     1       3.475  17.590  21.363  0.00  0.00    +0.000 A 
ENDBRANCH  10  20
BRANCH   2  25
ATOM     25  N   UNL     1       1.023  10.331  18.053  0.00  0.00    +0.000 N 
ATOM     26  H   UNL     1       0.018  10.351  17.816  0.00  0.00    +0.000 HD
BRANCH  25  27
ATOM     27  N   UNL     1       1.299   9.102  18.690  0.00  0.00    +0.000 N 
ATOM     28  C   UNL     1       2.300   8.302  18.163  0.00  0.00    +0.000 C 
ATOM     29  O   UNL     1       3.036   8.614  17.232  0.00  0.00    +0.000 OA
ATOM     30  H   UNL     1       0.790   8.885  19.539  0.00  0.00    +0.000 HD
BRANCH  28  31
ATOM     31  C   UNL     1       2.481   6.976  18.814  0.00  0.00    +0.000 A 
ATOM     32  C   UNL     1       1.847   6.671  20.025  0.00  0.00    +0.000 A 
ATOM     33  C   UNL     1       2.030   5.417  20.609  0.00  0.00    +0.000 A 
ATOM     34  C   UNL     1       2.842   4.468  19.987  0.00  0.00    +0.000 A 
ATOM     35  C   UNL     1       3.460   4.756  18.762  0.00  0.00    +0.000 A 
ATOM     36  C   UNL     1       3.274   6.013  18.170  0.00  0.00    +0.000 A 
BRANCH  35  37
ATOM     37  C   UNL     1       4.348   3.713  18.185  0.00  0.00    +0.000 C 
ATOM     38  O   UNL     1       4.238   3.326  17.033  0.00  0.00    +0.000 OA
BRANCH  37  39
ATOM     39  O   UNL     1       5.291   3.246  19.031  0.00  0.00    +0.000 OA
ATOM     40  H   UNL     1       5.051   3.261  19.977  0.00  0.00    +0.000 HD
ENDBRANCH  37  39
ENDBRANCH  35  37
ENDBRANCH  28  31
ENDBRANCH  25  27
ENDBRANCH   2  25
TORSDOF 7
ENDMDL
MODEL 2
REMARK VINA RESULT:      -7.9      1.994      2.496
REMARK  Name = 
REMARK  9 active torsions:
REMARK  status: ('A' for Active; 'I' for Inactive)
REMARK    1  A    between atoms: C_1  and  C_2
REMARK    2  A    between atoms: C_2  and  N_3
REMARK    3  A    between atoms: N_3  and  N_4
REMARK    4  A    between atoms: C_5  and  C_7
REMARK    5  A    between atoms: C_11  and  C_12
REMARK    6  A    between atoms: C_12  and  O_14
REMARK    7  A    between atoms: N_19  and  C_20
REMARK    8  A    between atoms: C_23  and  C_24
REMARK    9  A    between atoms: C_30  and  N_31
REMARK                            x       y       z     vdW  Elec       q    Type
REMARK                         _______ _______ _______ _____ _____    ______ ____
ROOT
ATOM      1  C   UNL     1       1.969  11.675  18.678  0.00  0.00    +0.000 C 
ATOM      2  C   UNL     1       0.867  11.234  19.620  0.00  0.00    +0.000 C 
ATOM      3  C   UNL     1      -0.076  12.096  20.079  0.00  0.00    +0.000 C 
ATOM      4  C   UNL     1      -1.188  11.696  21.024  0.00  0.00    +0.000 C 
ATOM      5  O   UNL     1      -1.360  10.560  21.436  0.00  0.00    +0.000 OA
ATOM      6  N   UNL     1      -1.944  12.872  21.249  0.00  0.00    +0.000 N 
ATOM      7  C   UNL     1      -1.366  13.969  20.551  0.00  0.00    +0.000 A 
ATOM      8  C   UNL     1      -1.690  15.324  20.552  0.00  0.00    +0.000 A 
ATOM      9  C   UNL     1      -0.950  16.221  19.756  0.00  0.00    +0.000 A 
ATOM     10  C   UNL     1       0.117  15.759  18.972  0.00  0.00    +0.000 A 
ATOM     11  C   UNL     1       0.481  14.412  19.038  0.00  0.00    +0.000 A 
ATOM     12  C   UNL     1      -0.250  13.531  19.822  0.00  0.00    +0.000 A 
ENDROOT
BRANCH   6  13
ATOM     13  C   UNL     1      -3.156  12.907  22.007  0.00  0.00    +0.000 A 
ATOM     14  C   UNL     1      -3.117  12.774  23.404  0.00  0.00    +0.000 A 
ATOM     15  C   UNL     1      -4.286  12.705  24.179  0.00  0.00    +0.000 A 
ATOM     16  C   UNL     1      -5.542  12.762  23.573  0.00  0.00    +0.000 A 
ATOM     17  C   UNL     1      -6.798  12.605  24.382  0.00  0.00    +0.000 C 
ATOM     18  C   UNL     1      -5.603  12.925  22.191  0.00  0.00    +0.000 A 
ATOM     19  C   UNL     1      -4.428  12.984  21.419  0.00  0.00    +0.000 A 
ENDBRANCH   6  13
BRANCH  10  20
ATOM     20  N   UNL     1       0.853  16.620  18.108  0.00  0.00    +0.000 N 
ATOM     21  C   UNL     1       2.197  16.487  17.780  0.00  0.00    +0.000 A 
ATOM     22  C   UNL     1       2.555  17.499  16.925  0.00  0.00    +0.000 A 
ATOM     23  C   UNL     1       1.412  18.294  16.715  0.00  0.00    +0.000 A 
ATOM     24  C   UNL     1       0.383  17.735  17.443  0.00  0.00    +0.000 A 
ENDBRANCH  10  20
BRANCH   2  25
ATOM     25  N   UNL     1       0.893   9.861  19.868  0.00  0.00    +0.000 N 
ATOM     26  H   UNL     1       1.205   9.651  20.830  0.00  0.00    +0.000 HD
BRANCH  25  27
ATOM     27  N   UNL     1       1.606   9.024  18.983  0.00  0.00    +0.000 N 
ATOM     28  C   UNL     1       2.000   7.775  19.437  0.00  0.00    +0.000 C 
ATOM     29  O   UNL     1       1.702   7.294  20.525  0.00  0.00    +0.000 OA
ATOM     30  H   UNL     1       1.749   9.352  18.035  0.00  0.00    +0.000 HD
BRANCH  28  31
ATOM     31  C   UNL     1       2.832   6.977  18.497  0.00  0.00    +0.000 A 
ATOM     32  C   UNL     1       3.790   7.589  17.677  0.00  0.00    +0.000 A 
ATOM     33  C   UNL     1       4.560   6.814  16.810  0.00  0.00    +0.000 A 
ATOM     34  C   UNL     1       4.378   5.432  16.760  0.00  0.00    +0.000 A 
ATOM     35  C   UNL     1       3.440   4.808  17.594  0.00  0.00    +0.000 A 
ATOM     36  C   UNL     1       2.669   5.582  18.470  0.00  0.00    +0.000 A 
BRANCH  35  37
ATOM     37  C   UNL     1       3.270   3.338  17.448  0.00  0.00    +0.000 C 
ATOM     38  O   UNL     1       2.181   2.823  17.259  0.00  0.00    +0.000 OA
BRANCH  37  39
ATOM     39  O   UNL     1       4.416   2.628  17.524  0.00  0.00    +0.000 OA
ATOM     40  H   UNL     1       4.446   1.819  16.978  0.00  0.00    +0.000 HD
ENDBRANCH  37  39
ENDBRANCH  35  37
ENDBRANCH  28  31
ENDBRANCH  25  27
ENDBRANCH   2  25
TORSDOF 7
ENDMDL
MODEL 3
REMARK VINA RESULT:      -7.9      1.631      2.046
REMARK  Name = 
REMARK  9 active torsions:
REMARK  status: ('A' for Active; 'I' for Inactive)
REMARK    1  A    between atoms: C_1  and  C_2
REMARK    2  A    between atoms: C_2  and  N_3
REMARK    3  A    between atoms: N_3  and  N_4
REMARK    4  A    between atoms: C_5  and  C_7
REMARK    5  A    between atoms: C_11  and  C_12
REMARK    6  A    between atoms: C_12  and  O_14
REMARK    7  A    between atoms: N_19  and  C_20
REMARK    8  A    between atoms: C_23  and  C_24
REMARK    9  A    between atoms: C_30  and  N_31
REMARK                            x       y       z     vdW  Elec       q    Type
REMARK                         _______ _______ _______ _____ _____    ______ ____
ROOT
ATOM      1  C   UNL     1       2.749  10.984  17.813  0.00  0.00    +0.000 C 
ATOM      2  C   UNL     1       1.444  10.607  18.485  0.00  0.00    +0.000 C 
ATOM      3  C   UNL     1       0.832  11.425  19.378  0.00  0.00    +0.000 C 
ATOM      4  C   UNL     1      -0.468  11.083  20.073  0.00  0.00    +0.000 C 
ATOM      5  O   UNL     1      -1.100  10.058  19.875  0.00  0.00    +0.000 OA
ATOM      6  N   UNL     1      -0.761  12.189  20.908  0.00  0.00    +0.000 N 
ATOM      7  C   UNL     1       0.270  13.164  20.811  0.00  0.00    +0.000 A 
ATOM      8  C   UNL     1       0.471  14.352  21.511  0.00  0.00    +0.000 A 
ATOM      9  C   UNL     1       1.591  15.156  21.218  0.00  0.00    +0.000 A 
ATOM     10  C   UNL     1       2.510  14.761  20.235  0.00  0.00    +0.000 A 
ATOM     11  C   UNL     1       2.339  13.531  19.594  0.00  0.00    +0.000 A 
ATOM     12  C   UNL     1       1.235  12.742  19.884  0.00  0.00    +0.000 A 
ENDROOT
BRANCH   6  13
ATOM     13  C   UNL     1      -1.967  12.317  21.666  0.00  0.00    +0.000 A 
ATOM     14  C   UNL     1      -3.128  12.826  21.063  0.00  0.00    +0.000 A 
ATOM     15  C   UNL     1      -4.305  13.060  21.792  0.00  0.00    +0.000 A 
ATOM     16  C   UNL     1      -4.356  12.792  23.161  0.00  0.00    +0.000 A 
ATOM     17  C   UNL     1      -5.581  13.116  23.967  0.00  0.00    +0.000 C 
ATOM     18  C   UNL     1      -3.224  12.257  23.772  0.00  0.00    +0.000 A 
ATOM     19  C   UNL     1      -2.045  12.034  23.039  0.00  0.00    +0.000 A 
ENDBRANCH   6  13
BRANCH  10  20
ATOM     20  N   UNL     1       3.622  15.571  19.866  0.00  0.00    +0.000 N 
ATOM     21  C   UNL     1       4.403  15.410  18.728  0.00  0.00    +0.000 A 
ATOM     22  C   UNL     1       5.379  16.375  18.710  0.00  0.00    +0.000 A 
ATOM     23  C   UNL     1       5.215  17.159  19.868  0.00  0.00    +0.000 A 
ATOM     24  C   UNL     1       4.131  16.653  20.556  0.00  0.00    +0.000 A 
ENDBRANCH  10  20
BRANCH   2  25
ATOM     25  N   UNL     1       0.928   9.399  18.012  0.00  0.00    +0.000 N 
ATOM     26  H   UNL     1       0.293   8.960  18.697  0.00  0.00    +0.000 HD
BRANCH  25  27
ATOM     27  N   UNL     1       1.825   8.411  17.550  0.00  0.00    +0.000 N 
ATOM     28  C   UNL     1       2.341   7.513  18.471  0.00  0.00    +0.000 C 
ATOM     29  O   UNL     1       2.013   7.446  19.651  0.00  0.00    +0.000 OA
ATOM     30  H   UNL     1       2.008   8.368  16.554  0.00  0.00    +0.000 HD
BRANCH  28  31
ATOM     31  C   UNL     1       3.355   6.559  17.947  0.00  0.00    +0.000 A 
ATOM     32  C   UNL     1       3.069   5.194  17.817  0.00  0.00    +0.000 A 
ATOM     33  C   UNL     1       4.038   4.323  17.317  0.00  0.00    +0.000 A 
ATOM     34  C   UNL     1       5.290   4.812  16.947  0.00  0.00    +0.000 A 
ATOM     35  C   UNL     1       5.578   6.181  17.050  0.00  0.00    +0.000 A 
ATOM     36  C   UNL     1       4.605   7.058  17.546  0.00  0.00    +0.000 A 
BRANCH  35  37
ATOM     37  C   UNL     1       6.951   6.618  16.680  0.00  0.00    +0.000 C 
ATOM     38  O   UNL     1       7.475   7.603  17.171  0.00  0.00    +0.000 OA
BRANCH  37  39
ATOM     39  O   UNL     1       7.569   5.827  15.777  0.00  0.00    +0.000 OA
ATOM     40  H   UNL     1       8.526   5.989  15.664  0.00  0.00    +0.000 HD
ENDBRANCH  37  39
ENDBRANCH  35  37
ENDBRANCH  28  31
ENDBRANCH  25  27
ENDBRANCH   2  25
TORSDOF 7
ENDMDL
MODEL 4
REMARK VINA RESULT:      -7.8      1.143      1.799
REMARK  Name = 
REMARK  9 active torsions:
REMARK  status: ('A' for Active; 'I' for Inactive)
REMARK    1  A    between atoms: C_1  and  C_2
REMARK    2  A    between atoms: C_2  and  N_3
REMARK    3  A    between atoms: N_3  and  N_4
REMARK    4  A    between atoms: C_5  and  C_7
REMARK    5  A    between atoms: C_11  and  C_12
REMARK    6  A    between atoms: C_12  and  O_14
REMARK    7  A    between atoms: N_19  and  C_20
REMARK    8  A    between atoms: C_23  and  C_24
REMARK    9  A    between atoms: C_30  and  N_31
REMARK                            x       y       z     vdW  Elec       q    Type
REMARK                         _______ _______ _______ _____ _____    ______ ____
ROOT
ATOM      1  C   UNL     1       2.727  11.258  17.941  0.00  0.00    +0.000 C 
ATOM      2  C   UNL     1       1.376  10.953  18.556  0.00  0.00    +0.000 C 
ATOM      3  C   UNL     1       0.816  11.756  19.496  0.00  0.00    +0.000 C 
ATOM      4  C   UNL     1      -0.528  11.483  20.138  0.00  0.00    +0.000 C 
ATOM      5  O   UNL     1      -1.244  10.537  19.849  0.00  0.00    +0.000 OA
ATOM      6  N   UNL     1      -0.743  12.547  21.048  0.00  0.00    +0.000 N 
ATOM      7  C   UNL     1       0.373  13.428  21.046  0.00  0.00    +0.000 A 
ATOM      8  C   UNL     1       0.661  14.539  21.837  0.00  0.00    +0.000 A 
ATOM      9  C   UNL     1       1.856  15.256  21.629  0.00  0.00    +0.000 A 
ATOM     10  C   UNL     1       2.761  14.853  20.636  0.00  0.00    +0.000 A 
ATOM     11  C   UNL     1       2.499  13.694  19.902  0.00  0.00    +0.000 A 
ATOM     12  C   UNL     1       1.321  12.990  20.109  0.00  0.00    +0.000 A 
ENDROOT
BRANCH   6  13
ATOM     13  C   UNL     1      -1.952  12.728  21.789  0.00  0.00    +0.000 A 
ATOM     14  C   UNL     1      -2.080  12.176  23.074  0.00  0.00    +0.000 A 
ATOM     15  C   UNL     1      -3.281  12.245  23.798  0.00  0.00    +0.000 A 
ATOM     16  C   UNL     1      -4.403  12.871  23.252  0.00  0.00    +0.000 A 
ATOM     17  C   UNL     1      -5.716  12.877  23.981  0.00  0.00    +0.000 C 
ATOM     18  C   UNL     1      -4.288  13.451  21.991  0.00  0.00    +0.000 A 
ATOM     19  C   UNL     1      -3.085  13.370  21.266  0.00  0.00    +0.000 A 
ENDBRANCH   6  13
BRANCH  10  20
ATOM     20  N   UNL     1       3.951  15.583  20.353  0.00  0.00    +0.000 N 
ATOM     21  C   UNL     1       4.010  16.887  19.876  0.00  0.00    +0.000 A 
ATOM     22  C   UNL     1       5.323  17.254  19.724  0.00  0.00    +0.000 A 
ATOM     23  C   UNL     1       6.113  16.153  20.107  0.00  0.00    +0.000 A 
ATOM     24  C   UNL     1       5.253  15.145  20.493  0.00  0.00    +0.000 A 
ENDBRANCH  10  20
BRANCH   2  25
ATOM     25  N   UNL     1       0.767   9.835  17.983  0.00  0.00    +0.000 N 
ATOM     26  H   UNL     1       0.037   9.441  18.597  0.00  0.00    +0.000 HD
BRANCH  25  27
ATOM     27  N   UNL     1       1.582   8.774  17.532  0.00  0.00    +0.000 N 
ATOM     28  C   UNL     1       2.116   7.911  18.476  0.00  0.00    +0.000 C 
ATOM     29  O   UNL     1       1.866   7.938  19.677  0.00  0.00    +0.000 OA
ATOM     30  H   UNL     1       1.694   8.657  16.532  0.00  0.00    +0.000 HD
BRANCH  28  31
ATOM     31  C   UNL     1       3.045   6.874  17.954  0.00  0.00    +0.000 A 
ATOM     32  C   UNL     1       4.273   7.223  17.378  0.00  0.00    +0.000 A 
ATOM     33  C   UNL     1       5.127   6.228  16.902  0.00  0.00    +0.000 A 
ATOM     34  C   UNL     1       4.758   4.886  17.000  0.00  0.00    +0.000 A 
ATOM     35  C   UNL     1       3.542   4.525  17.596  0.00  0.00    +0.000 A 
ATOM     36  C   UNL     1       2.685   5.522  18.081  0.00  0.00    +0.000 A 
BRANCH  35  37
ATOM     37  C   UNL     1       3.198   3.079  17.621  0.00  0.00    +0.000 C 
ATOM     38  O   UNL     1       2.148   2.651  17.173  0.00  0.00    +0.000 OA
BRANCH  37  39
ATOM     39  O   UNL     1       4.147   2.283  18.159  0.00  0.00    +0.000 OA
ATOM     40  H   UNL     1       3.921   1.334  18.209  0.00  0.00    +0.000 HD
ENDBRANCH  37  39
ENDBRANCH  35  37
ENDBRANCH  28  31
ENDBRANCH  25  27
ENDBRANCH   2  25
TORSDOF 7
ENDMDL
MODEL 5
REMARK VINA RESULT:      -7.8      1.610      2.243
REMARK  Name = 
REMARK  9 active torsions:
REMARK  status: ('A' for Active; 'I' for Inactive)
REMARK    1  A    between atoms: C_1  and  C_2
REMARK    2  A    between atoms: C_2  and  N_3
REMARK    3  A    between atoms: N_3  and  N_4
REMARK    4  A    between atoms: C_5  and  C_7
REMARK    5  A    between atoms: C_11  and  C_12
REMARK    6  A    between atoms: C_12  and  O_14
REMARK    7  A    between atoms: N_19  and  C_20
REMARK    8  A    between atoms: C_23  and  C_24
REMARK    9  A    between atoms: C_30  and  N_31
REMARK                            x       y       z     vdW  Elec       q    Type
REMARK                         _______ _______ _______ _____ _____    ______ ____
ROOT
ATOM      1  C   UNL     1       2.728  10.868  17.815  0.00  0.00    +0.000 C 
ATOM      2  C   UNL     1       1.424  10.583  18.529  0.00  0.00    +0.000 C 
ATOM      3  C   UNL     1       0.859  11.477  19.380  0.00  0.00    +0.000 C 
ATOM      4  C   UNL     1      -0.440  11.228  20.117  0.00  0.00    +0.000 C 
ATOM      5  O   UNL     1      -1.114  10.217  19.992  0.00  0.00    +0.000 OA
ATOM      6  N   UNL     1      -0.675  12.392  20.887  0.00  0.00    +0.000 N 
ATOM      7  C   UNL     1       0.390  13.319  20.714  0.00  0.00    +0.000 A 
ATOM      8  C   UNL     1       0.648  14.539  21.337  0.00  0.00    +0.000 A 
ATOM      9  C   UNL     1       1.792  15.280  20.977  0.00  0.00    +0.000 A 
ATOM     10  C   UNL     1       2.676  14.791  20.005  0.00  0.00    +0.000 A 
ATOM     11  C   UNL     1       2.448  13.532  19.443  0.00  0.00    +0.000 A 
ATOM     12  C   UNL     1       1.320  12.806  19.799  0.00  0.00    +0.000 A 
ENDROOT
BRANCH   6  13
ATOM     13  C   UNL     1      -1.861  12.612  21.656  0.00  0.00    +0.000 A 
ATOM     14  C   UNL     1      -1.950  12.124  22.970  0.00  0.00    +0.000 A 
ATOM     15  C   UNL     1      -3.127  12.231  23.726  0.00  0.00    +0.000 A 
ATOM     16  C   UNL     1      -4.265  12.831  23.185  0.00  0.00    +0.000 A 
ATOM     17  C   UNL     1      -5.555  12.877  23.954  0.00  0.00    +0.000 C 
ATOM     18  C   UNL     1      -4.189  13.350  21.895  0.00  0.00    +0.000 A 
ATOM     19  C   UNL     1      -3.009  13.231  21.138  0.00  0.00    +0.000 A 
ENDBRANCH   6  13
BRANCH  10  20
ATOM     20  N   UNL     1       3.811  15.534  19.569  0.00  0.00    +0.000 N 
ATOM     21  C   UNL     1       4.137  16.826  19.966  0.00  0.00    +0.000 A 
ATOM     22  C   UNL     1       5.296  17.210  19.340  0.00  0.00    +0.000 A 
ATOM     23  C   UNL     1       5.708  16.140  18.524  0.00  0.00    +0.000 A 
ATOM     24  C   UNL     1       4.788  15.124  18.684  0.00  0.00    +0.000 A 
ENDBRANCH  10  20
BRANCH   2  25
ATOM     25  N   UNL     1       0.854   9.369  18.140  0.00  0.00    +0.000 N 
ATOM     26  H   UNL     1       0.274   8.960  18.890  0.00  0.00    +0.000 HD
BRANCH  25  27
ATOM     27  N   UNL     1       1.695   8.356  17.633  0.00  0.00    +0.000 N 
ATOM     28  C   UNL     1       2.261   7.464  18.531  0.00  0.00    +0.000 C 
ATOM     29  O   UNL     1       2.020   7.426  19.733  0.00  0.00    +0.000 OA
ATOM     30  H   UNL     1       1.803   8.291  16.627  0.00  0.00    +0.000 HD
BRANCH  28  31
ATOM     31  C   UNL     1       3.216   6.480  17.953  0.00  0.00    +0.000 A 
ATOM     32  C   UNL     1       2.867   5.131  17.806  0.00  0.00    +0.000 A 
ATOM     33  C   UNL     1       3.781   4.233  17.255  0.00  0.00    +0.000 A 
ATOM     34  C   UNL     1       5.040   4.677  16.851  0.00  0.00    +0.000 A 
ATOM     35  C   UNL     1       5.389   6.029  16.972  0.00  0.00    +0.000 A 
ATOM     36  C   UNL     1       4.471   6.935  17.520  0.00  0.00    +0.000 A 
BRANCH  35  37
ATOM     37  C   UNL     1       6.766   6.417  16.565  0.00  0.00    +0.000 C 
ATOM     38  O   UNL     1       7.416   5.767  15.764  0.00  0.00    +0.000 OA
BRANCH  37  39
ATOM     39  O   UNL     1       7.225   7.550  17.139  0.00  0.00    +0.000 OA
ATOM     40  H   UNL     1       8.194   7.666  17.122  0.00  0.00    +0.000 HD
ENDBRANCH  37  39
ENDBRANCH  35  37
ENDBRANCH  28  31
ENDBRANCH  25  27
ENDBRANCH   2  25
TORSDOF 7
ENDMDL
MODEL 6
REMARK VINA RESULT:      -7.8      1.248      1.522
REMARK  Name = 
REMARK  9 active torsions:
REMARK  status: ('A' for Active; 'I' for Inactive)
REMARK    1  A    between atoms: C_1  and  C_2
REMARK    2  A    between atoms: C_2  and  N_3
REMARK    3  A    between atoms: N_3  and  N_4
REMARK    4  A    between atoms: C_5  and  C_7
REMARK    5  A    between atoms: C_11  and  C_12
REMARK    6  A    between atoms: C_12  and  O_14
REMARK    7  A    between atoms: N_19  and  C_20
REMARK    8  A    between atoms: C_23  and  C_24
REMARK    9  A    between atoms: C_30  and  N_31
REMARK                            x       y       z     vdW  Elec       q    Type
REMARK                         _______ _______ _______ _____ _____    ______ ____
ROOT
ATOM      1  C   UNL     1       2.661  11.643  17.872  0.00  0.00    +0.000 C 
ATOM      2  C   UNL     1       1.343  11.193  18.469  0.00  0.00    +0.000 C 
ATOM      3  C   UNL     1       0.706  11.910  19.429  0.00  0.00    +0.000 C 
ATOM      4  C   UNL     1      -0.608  11.492  20.054  0.00  0.00    +0.000 C 
ATOM      5  O   UNL     1      -1.230  10.492  19.731  0.00  0.00    +0.000 OA
ATOM      6  N   UNL     1      -0.925  12.501  20.995  0.00  0.00    +0.000 N 
ATOM      7  C   UNL     1       0.103  13.484  21.027  0.00  0.00    +0.000 A 
ATOM      8  C   UNL     1       0.282  14.590  21.855  0.00  0.00    +0.000 A 
ATOM      9  C   UNL     1       1.405  15.423  21.677  0.00  0.00    +0.000 A 
ATOM     10  C   UNL     1       2.348  15.138  20.678  0.00  0.00    +0.000 A 
ATOM     11  C   UNL     1       2.198  13.983  19.906  0.00  0.00    +0.000 A 
ATOM     12  C   UNL     1       1.091  13.166  20.084  0.00  0.00    +0.000 A 
ENDROOT
BRANCH   6  13
ATOM     13  C   UNL     1      -2.149  12.544  21.734  0.00  0.00    +0.000 A 
ATOM     14  C   UNL     1      -3.318  13.037  21.132  0.00  0.00    +0.000 A 
ATOM     15  C   UNL     1      -4.517  13.188  21.847  0.00  0.00    +0.000 A 
ATOM     16  C   UNL     1      -4.582  12.852  23.201  0.00  0.00    +0.000 A 
ATOM     17  C   UNL     1      -5.834  13.087  23.996  0.00  0.00    +0.000 C 
ATOM     18  C   UNL     1      -3.441  12.332  23.808  0.00  0.00    +0.000 A 
ATOM     19  C   UNL     1      -2.240  12.192  23.089  0.00  0.00    +0.000 A 
ENDBRANCH   6  13
BRANCH  10  20
ATOM     20  N   UNL     1       3.464  15.986  20.425  0.00  0.00    +0.000 N 
ATOM     21  C   UNL     1       4.191  16.041  19.242  0.00  0.00    +0.000 A 
ATOM     22  C   UNL     1       5.191  16.972  19.369  0.00  0.00    +0.000 A 
ATOM     23  C   UNL     1       5.097  17.513  20.665  0.00  0.00    +0.000 A 
ATOM     24  C   UNL     1       4.031  16.900  21.290  0.00  0.00    +0.000 A 
ENDBRANCH  10  20
BRANCH   2  25
ATOM     25  N   UNL     1       0.844  10.042  17.858  0.00  0.00    +0.000 N 
ATOM     26  H   UNL     1      -0.039   9.730  18.291  0.00  0.00    +0.000 HD
BRANCH  25  27
ATOM     27  N   UNL     1       1.690   8.919  17.731  0.00  0.00    +0.000 N 
ATOM     28  C   UNL     1       1.966   8.175  18.867  0.00  0.00    +0.000 C 
ATOM     29  O   UNL     1       1.462   8.359  19.970  0.00  0.00    +0.000 OA
ATOM     30  H   UNL     1       2.013   8.674  16.801  0.00  0.00    +0.000 HD
BRANCH  28  31
ATOM     31  C   UNL     1       2.941   7.064  18.693  0.00  0.00    +0.000 A 
ATOM     32  C   UNL     1       3.011   6.010  19.613  0.00  0.00    +0.000 A 
ATOM     33  C   UNL     1       3.931   4.979  19.422  0.00  0.00    +0.000 A 
ATOM     34  C   UNL     1       4.779   4.997  18.315  0.00  0.00    +0.000 A 
ATOM     35  C   UNL     1       4.700   6.035  17.375  0.00  0.00    +0.000 A 
ATOM     36  C   UNL     1       3.773   7.069  17.562  0.00  0.00    +0.000 A 
BRANCH  35  37
ATOM     37  C   UNL     1       5.670   6.010  16.249  0.00  0.00    +0.000 C 
ATOM     38  O   UNL     1       6.652   5.287  16.250  0.00  0.00    +0.000 OA
BRANCH  37  39
ATOM     39  O   UNL     1       5.364   6.834  15.224  0.00  0.00    +0.000 OA
ATOM     40  H   UNL     1       5.365   7.788  15.438  0.00  0.00    +0.000 HD
ENDBRANCH  37  39
ENDBRANCH  35  37
ENDBRANCH  28  31
ENDBRANCH  25  27
ENDBRANCH   2  25
TORSDOF 7
ENDMDL
MODEL 7
REMARK VINA RESULT:      -7.8      1.925      5.991
REMARK  Name = 
REMARK  9 active torsions:
REMARK  status: ('A' for Active; 'I' for Inactive)
REMARK    1  A    between atoms: C_1  and  C_2
REMARK    2  A    between atoms: C_2  and  N_3
REMARK    3  A    between atoms: N_3  and  N_4
REMARK    4  A    between atoms: C_5  and  C_7
REMARK    5  A    between atoms: C_11  and  C_12
REMARK    6  A    between atoms: C_12  and  O_14
REMARK    7  A    between atoms: N_19  and  C_20
REMARK    8  A    between atoms: C_23  and  C_24
REMARK    9  A    between atoms: C_30  and  N_31
REMARK                            x       y       z     vdW  Elec       q    Type
REMARK                         _______ _______ _______ _____ _____    ______ ____
ROOT
ATOM      1  C   UNL     1      -0.957   9.919  19.527  0.00  0.00    +0.000 C 
ATOM      2  C   UNL     1       0.294  10.533  18.933  0.00  0.00    +0.000 C 
ATOM      3  C   UNL     1       0.790  11.719  19.368  0.00  0.00    +0.000 C 
ATOM      4  C   UNL     1       2.033  12.368  18.797  0.00  0.00    +0.000 C 
ATOM      5  O   UNL     1       2.721  11.872  17.918  0.00  0.00    +0.000 OA
ATOM      6  N   UNL     1       2.205  13.573  19.520  0.00  0.00    +0.000 N 
ATOM      7  C   UNL     1       1.150  13.737  20.460  0.00  0.00    +0.000 A 
ATOM      8  C   UNL     1       0.839  14.799  21.307  0.00  0.00    +0.000 A 
ATOM      9  C   UNL     1      -0.280  14.710  22.159  0.00  0.00    +0.000 A 
ATOM     10  C   UNL     1      -1.088  13.564  22.151  0.00  0.00    +0.000 A 
ATOM     11  C   UNL     1      -0.812  12.539  21.242  0.00  0.00    +0.000 A 
ATOM     12  C   UNL     1       0.291  12.629  20.406  0.00  0.00    +0.000 A 
ENDROOT
BRANCH   6  13
ATOM     13  C   UNL     1       3.330  14.442  19.363  0.00  0.00    +0.000 A 
ATOM     14  C   UNL     1       4.311  14.512  20.366  0.00  0.00    +0.000 A 
ATOM     15  C   UNL     1       5.380  15.419  20.300  0.00  0.00    +0.000 A 
ATOM     16  C   UNL     1       5.500  16.296  19.220  0.00  0.00    +0.000 A 
ATOM     17  C   UNL     1       6.591  17.328  19.179  0.00  0.00    +0.000 C 
ATOM     18  C   UNL     1       4.554  16.222  18.200  0.00  0.00    +0.000 A 
ATOM     19  C   UNL     1       3.480  15.317  18.277  0.00  0.00    +0.000 A 
ENDBRANCH   6  13
BRANCH  10  20
ATOM     20  N   UNL     1      -2.193  13.408  23.037  0.00  0.00    +0.000 N 
ATOM     21  C   UNL     1      -2.947  12.252  23.200  0.00  0.00    +0.000 A 
ATOM     22  C   UNL     1      -3.923  12.479  24.137  0.00  0.00    +0.000 A 
ATOM     23  C   UNL     1      -3.787  13.812  24.571  0.00  0.00    +0.000 A 
ATOM     24  C   UNL     1      -2.719  14.358  23.889  0.00  0.00    +0.000 A 
ENDBRANCH  10  20
BRANCH   2  25
ATOM     25  N   UNL     1       0.899   9.706  17.984  0.00  0.00    +0.000 N 
ATOM     26  H   UNL     1       0.323   9.615  17.133  0.00  0.00    +0.000 HD
BRANCH  25  27
ATOM     27  N   UNL     1       1.311   8.414  18.375  0.00  0.00    +0.000 N 
ATOM     28  C   UNL     1       2.476   7.904  17.824  0.00  0.00    +0.000 C 
ATOM     29  O   UNL     1       3.236   8.522  17.085  0.00  0.00    +0.000 OA
ATOM     30  H   UNL     1       0.766   7.938  19.085  0.00  0.00    +0.000 HD
BRANCH  28  31
ATOM     31  C   UNL     1       2.809   6.502  18.195  0.00  0.00    +0.000 A 
ATOM     32  C   UNL     1       3.794   5.784  17.505  0.00  0.00    +0.000 A 
ATOM     33  C   UNL     1       4.089   4.472  17.878  0.00  0.00    +0.000 A 
ATOM     34  C   UNL     1       3.405   3.877  18.938  0.00  0.00    +0.000 A 
ATOM     35  C   UNL     1       2.434   4.596  19.650  0.00  0.00    +0.000 A 
ATOM     36  C   UNL     1       2.140   5.915  19.281  0.00  0.00    +0.000 A 
BRANCH  35  37
ATOM     37  C   UNL     1       1.714   3.878  20.735  0.00  0.00    +0.000 C 
ATOM     38  O   UNL     1       2.207   3.696  21.835  0.00  0.00    +0.000 OA
BRANCH  37  39
ATOM     39  O   UNL     1       0.471   3.465  20.408  0.00  0.00    +0.000 OA
ATOM     40  H   UNL     1      -0.249   4.087  20.627  0.00  0.00    +0.000 HD
ENDBRANCH  37  39
ENDBRANCH  35  37
ENDBRANCH  28  31
ENDBRANCH  25  27
ENDBRANCH   2  25
TORSDOF 7
ENDMDL
MODEL 8
REMARK VINA RESULT:      -7.7      0.541      1.231
REMARK  Name = 
REMARK  9 active torsions:
REMARK  status: ('A' for Active; 'I' for Inactive)
REMARK    1  A    between atoms: C_1  and  C_2
REMARK    2  A    between atoms: C_2  and  N_3
REMARK    3  A    between atoms: N_3  and  N_4
REMARK    4  A    between atoms: C_5  and  C_7
REMARK    5  A    between atoms: C_11  and  C_12
REMARK    6  A    between atoms: C_12  and  O_14
REMARK    7  A    between atoms: N_19  and  C_20
REMARK    8  A    between atoms: C_23  and  C_24
REMARK    9  A    between atoms: C_30  and  N_31
REMARK                            x       y       z     vdW  Elec       q    Type
REMARK                         _______ _______ _______ _____ _____    ______ ____
ROOT
ATOM      1  C   UNL     1       2.681  12.130  18.109  0.00  0.00    +0.000 C 
ATOM      2  C   UNL     1       1.352  11.686  18.683  0.00  0.00    +0.000 C 
ATOM      3  C   UNL     1       0.702  12.405  19.634  0.00  0.00    +0.000 C 
ATOM      4  C   UNL     1      -0.624  11.994  20.236  0.00  0.00    +0.000 C 
ATOM      5  O   UNL     1      -1.246  10.997  19.903  0.00  0.00    +0.000 OA
ATOM      6  N   UNL     1      -0.951  13.004  21.173  0.00  0.00    +0.000 N 
ATOM      7  C   UNL     1       0.081  13.981  21.224  0.00  0.00    +0.000 A 
ATOM      8  C   UNL     1       0.253  15.085  22.056  0.00  0.00    +0.000 A 
ATOM      9  C   UNL     1       1.382  15.913  21.896  0.00  0.00    +0.000 A 
ATOM     10  C   UNL     1       2.340  15.624  20.913  0.00  0.00    +0.000 A 
ATOM     11  C   UNL     1       2.197  14.471  20.137  0.00  0.00    +0.000 A 
ATOM     12  C   UNL     1       1.083  13.659  20.296  0.00  0.00    +0.000 A 
ENDROOT
BRANCH   6  13
ATOM     13  C   UNL     1      -2.187  13.052  21.892  0.00  0.00    +0.000 A 
ATOM     14  C   UNL     1      -2.288  12.458  23.160  0.00  0.00    +0.000 A 
ATOM     15  C   UNL     1      -3.504  12.396  23.859  0.00  0.00    +0.000 A 
ATOM     16  C   UNL     1      -4.668  12.928  23.304  0.00  0.00    +0.000 A 
ATOM     17  C   UNL     1      -5.990  12.794  24.004  0.00  0.00    +0.000 C 
ATOM     18  C   UNL     1      -4.583  13.550  22.060  0.00  0.00    +0.000 A 
ATOM     19  C   UNL     1      -3.364  13.600  21.360  0.00  0.00    +0.000 A 
ENDBRANCH   6  13
BRANCH  10  20
ATOM     20  N   UNL     1       3.465  16.466  20.679  0.00  0.00    +0.000 N 
ATOM     21  C   UNL     1       3.828  17.568  21.444  0.00  0.00    +0.000 A 
ATOM     22  C   UNL     1       4.963  18.130  20.916  0.00  0.00    +0.000 A 
ATOM     23  C   UNL     1       5.321  17.369  19.788  0.00  0.00    +0.000 A 
ATOM     24  C   UNL     1       4.395  16.354  19.666  0.00  0.00    +0.000 A 
ENDBRANCH  10  20
BRANCH   2  25
ATOM     25  N   UNL     1       0.856  10.538  18.063  0.00  0.00    +0.000 N 
ATOM     26  H   UNL     1      -0.152  10.617  17.860  0.00  0.00    +0.000 HD
BRANCH  25  27
ATOM     27  N   UNL     1       1.085   9.285  18.672  0.00  0.00    +0.000 N 
ATOM     28  C   UNL     1       2.050   8.456  18.123  0.00  0.00    +0.000 C 
ATOM     29  O   UNL     1       2.793   8.758  17.194  0.00  0.00    +0.000 OA
ATOM     30  H   UNL     1       0.571   9.072  19.519  0.00  0.00    +0.000 HD
BRANCH  28  31
ATOM     31  C   UNL     1       2.178   7.110  18.744  0.00  0.00    +0.000 A 
ATOM     32  C   UNL     1       1.914   6.911  20.105  0.00  0.00    +0.000 A 
ATOM     33  C   UNL     1       2.037   5.637  20.659  0.00  0.00    +0.000 A 
ATOM     34  C   UNL     1       2.422   4.562  19.858  0.00  0.00    +0.000 A 
ATOM     35  C   UNL     1       2.665   4.746  18.490  0.00  0.00    +0.000 A 
ATOM     36  C   UNL     1       2.537   6.024  17.929  0.00  0.00    +0.000 A 
BRANCH  35  37
ATOM     37  C   UNL     1       3.118   3.563  17.713  0.00  0.00    +0.000 C 
ATOM     38  O   UNL     1       4.298   3.302  17.550  0.00  0.00    +0.000 OA
BRANCH  37  39
ATOM     39  O   UNL     1       2.121   2.796  17.221  0.00  0.00    +0.000 OA
ATOM     40  H   UNL     1       1.377   3.284  16.817  0.00  0.00    +0.000 HD
ENDBRANCH  37  39
ENDBRANCH  35  37
ENDBRANCH  28  31
ENDBRANCH  25  27
ENDBRANCH   2  25
TORSDOF 7
ENDMDL
MODEL 9
REMARK VINA RESULT:      -7.7      1.276      1.740
REMARK  Name = 
REMARK  9 active torsions:
REMARK  status: ('A' for Active; 'I' for Inactive)
REMARK    1  A    between atoms: C_1  and  C_2
REMARK    2  A    between atoms: C_2  and  N_3
REMARK    3  A    between atoms: N_3  and  N_4
REMARK    4  A    between atoms: C_5  and  C_7
REMARK    5  A    between atoms: C_11  and  C_12
REMARK    6  A    between atoms: C_12  and  O_14
REMARK    7  A    between atoms: N_19  and  C_20
REMARK    8  A    between atoms: C_23  and  C_24
REMARK    9  A    between atoms: C_30  and  N_31
REMARK                            x       y       z     vdW  Elec       q    Type
REMARK                         _______ _______ _______ _____ _____    ______ ____
ROOT
ATOM      1  C   UNL     1       2.599  11.813  17.959  0.00  0.00    +0.000 C 
ATOM      2  C   UNL     1       1.262  11.423  18.555  0.00  0.00    +0.000 C 
ATOM      3  C   UNL     1       0.660  12.163  19.520  0.00  0.00    +0.000 C 
ATOM      4  C   UNL     1      -0.671  11.804  20.144  0.00  0.00    +0.000 C 
ATOM      5  O   UNL     1      -1.340  10.836  19.818  0.00  0.00    +0.000 OA
ATOM      6  N   UNL     1      -0.940  12.823  21.091  0.00  0.00    +0.000 N 
ATOM      7  C   UNL     1       0.133  13.756  21.127  0.00  0.00    +0.000 A 
ATOM      8  C   UNL     1       0.364  14.849  21.960  0.00  0.00    +0.000 A 
ATOM      9  C   UNL     1       1.524  15.629  21.784  0.00  0.00    +0.000 A 
ATOM     10  C   UNL     1       2.451  15.306  20.783  0.00  0.00    +0.000 A 
ATOM     11  C   UNL     1       2.248  14.163  20.005  0.00  0.00    +0.000 A 
ATOM     12  C   UNL     1       1.104  13.397  20.180  0.00  0.00    +0.000 A 
ENDROOT
BRANCH   6  13
ATOM     13  C   UNL     1      -2.160  12.919  21.831  0.00  0.00    +0.000 A 
ATOM     14  C   UNL     1      -2.261  12.331  23.103  0.00  0.00    +0.000 A 
ATOM     15  C   UNL     1      -3.465  12.317  23.823  0.00  0.00    +0.000 A 
ATOM     16  C   UNL     1      -4.619  12.891  23.287  0.00  0.00    +0.000 A 
ATOM     17  C   UNL     1      -5.932  12.809  24.012  0.00  0.00    +0.000 C 
ATOM     18  C   UNL     1      -4.532  13.507  22.040  0.00  0.00    +0.000 A 
ATOM     19  C   UNL     1      -3.325  13.510  21.319  0.00  0.00    +0.000 A 
ENDBRANCH   6  13
BRANCH  10  20
ATOM     20  N   UNL     1       3.606  16.102  20.532  0.00  0.00    +0.000 N 
ATOM     21  C   UNL     1       3.880  17.339  21.104  0.00  0.00    +0.000 A 
ATOM     22  C   UNL     1       5.080  17.801  20.625  0.00  0.00    +0.000 A 
ATOM     23  C   UNL     1       5.572  16.838  19.724  0.00  0.00    +0.000 A 
ATOM     24  C   UNL     1       4.657  15.805  19.688  0.00  0.00    +0.000 A 
ENDBRANCH  10  20
BRANCH   2  25
ATOM     25  N   UNL     1       0.709  10.299  17.939  0.00  0.00    +0.000 N 
ATOM     26  H   UNL     1      -0.177  10.015  18.385  0.00  0.00    +0.000 HD
BRANCH  25  27
ATOM     27  N   UNL     1       1.510   9.147  17.784  0.00  0.00    +0.000 N 
ATOM     28  C   UNL     1       1.812   8.401  18.912  0.00  0.00    +0.000 C 
ATOM     29  O   UNL     1       1.365   8.609  20.035  0.00  0.00    +0.000 OA
ATOM     30  H   UNL     1       1.782   8.885  16.843  0.00  0.00    +0.000 HD
BRANCH  28  31
ATOM     31  C   UNL     1       2.739   7.256  18.704  0.00  0.00    +0.000 A 
ATOM     32  C   UNL     1       2.701   6.131  19.537  0.00  0.00    +0.000 A 
ATOM     33  C   UNL     1       3.579   5.070  19.314  0.00  0.00    +0.000 A 
ATOM     34  C   UNL     1       4.494   5.130  18.263  0.00  0.00    +0.000 A 
ATOM     35  C   UNL     1       4.523   6.241  17.409  0.00  0.00    +0.000 A 
ATOM     36  C   UNL     1       3.639   7.306  17.626  0.00  0.00    +0.000 A 
BRANCH  35  37
ATOM     37  C   UNL     1       5.558   6.252  16.341  0.00  0.00    +0.000 C 
ATOM     38  O   UNL     1       5.281   6.426  15.166  0.00  0.00    +0.000 OA
BRANCH  37  39
ATOM     39  O   UNL     1       6.822   6.074  16.780  0.00  0.00    +0.000 OA
ATOM     40  H   UNL     1       7.339   5.393  16.307  0.00  0.00    +0.000 HD
ENDBRANCH  37  39
ENDBRANCH  35  37
ENDBRANCH  28  31
ENDBRANCH  25  27
ENDBRANCH   2  25
TORSDOF 7
ENDMDL
