MODEL 1
REMARK VINA RESULT:      -7.3      0.000      0.000
REMARK  Name = 
REMARK  5 active torsions:
REMARK  status: ('A' for Active; 'I' for Inactive)
REMARK    1  A    between atoms: N_1  and  S_2
REMARK    2  A    between atoms: S_2  and  C_5
REMARK    3  A    between atoms: C_8  and  N_9
REMARK    4  A    between atoms: C_11  and  C_12
REMARK    5  A    between atoms: C_17  and  C_18
REMARK                            x       y       z     vdW  Elec       q    Type
REMARK                         _______ _______ _______ _____ _____    ______ ____
ROOT
ATOM      1  N   UNL     1       5.326   4.103  15.789  0.00  0.00    +0.000 N 
ATOM      2  N   UNL     1       5.221   3.259  14.730  0.00  0.00    +0.000 NA
ATOM      3  C   UNL     1       5.944   3.830  13.752  0.00  0.00    +0.000 A 
ATOM      4  C   UNL     1       6.685   4.923  14.261  0.00  0.00    +0.000 A 
ATOM      5  C   UNL     1       6.336   5.053  15.597  0.00  0.00    +0.000 A 
ENDROOT
BRANCH   5   6
ATOM      6  C   UNL     1       6.902   5.959  16.613  0.00  0.00    +0.000 A 
ATOM      7  C   UNL     1       6.983   7.345  16.404  0.00  0.00    +0.000 A 
ATOM      8  C   UNL     1       7.624   8.178  17.325  0.00  0.00    +0.000 A 
ATOM      9  C   UNL     1       8.131   7.650  18.511  0.00  0.00    +0.000 A 
ATOM     10 CL   UNL     1       8.934   8.730  19.594  0.00  0.00    +0.000 Cl
ATOM     11  C   UNL     1       7.979   6.287  18.778  0.00  0.00    +0.000 A 
ATOM     12 CL   UNL     1       8.525   5.570  20.253  0.00  0.00    +0.000 Cl
ATOM     13  C   UNL     1       7.375   5.449  17.831  0.00  0.00    +0.000 A 
ENDBRANCH   5   6
BRANCH   1  17
ATOM     14  C   UNL     1       2.587   3.654  18.958  0.00  0.00    +0.000 A 
ATOM     15  C   UNL     1       2.736   4.899  18.338  0.00  0.00    +0.000 A 
ATOM     16  C   UNL     1       3.667   5.049  17.307  0.00  0.00    +0.000 A 
ATOM     17  C   UNL     1       4.424   3.947  16.879  0.00  0.00    +0.000 A 
ATOM     18  C   UNL     1       4.293   2.712  17.530  0.00  0.00    +0.000 A 
ATOM     19  C   UNL     1       3.370   2.565  18.567  0.00  0.00    +0.000 A 
BRANCH  14  20
ATOM     20  S   UNL     1       1.419   3.463  20.270  0.00  0.00    +0.000 S 
ATOM     21  O   UNL     1       0.939   4.764  20.660  0.00  0.00    +0.000 OA
ATOM     22  O   UNL     1       1.927   2.499  21.221  0.00  0.00    +0.000 OA
BRANCH  20  23
ATOM     23  N   UNL     1       0.135   2.689  19.507  0.00  0.00    +0.000 NA
ATOM     24  H   UNL     1      -0.206   3.276  18.749  0.00  0.00    +0.000 HD
ATOM     25  H   UNL     1      -0.583   2.459  20.197  0.00  0.00    +0.000 HD
ENDBRANCH  20  23
ENDBRANCH  14  20
ENDBRANCH   1  17
BRANCH   3  26
ATOM     26  C   UNL     1       5.959   3.331  12.329  0.00  0.00    +0.000 C 
ATOM     27  F   UNL     1       6.036   1.980  12.222  0.00  0.00    +0.000 F 
ATOM     28  F   UNL     1       4.833   3.711  11.664  0.00  0.00    +0.000 F 
ATOM     29  F   UNL     1       7.007   3.846  11.631  0.00  0.00    +0.000 F 
ENDBRANCH   3  26
TORSDOF 5
ENDMDL
MODEL 2
REMARK VINA RESULT:      -7.1      0.717      1.291
REMARK  Name = 
REMARK  5 active torsions:
REMARK  status: ('A' for Active; 'I' for Inactive)
REMARK    1  A    between atoms: N_1  and  S_2
REMARK    2  A    between atoms: S_2  and  C_5
REMARK    3  A    between atoms: C_8  and  N_9
REMARK    4  A    between atoms: C_11  and  C_12
REMARK    5  A    between atoms: C_17  and  C_18
REMARK                            x       y       z     vdW  Elec       q    Type
REMARK                         _______ _______ _______ _____ _____    ______ ____
ROOT
ATOM      1  N   UNL     1       5.307   4.214  15.767  0.00  0.00    +0.000 N 
ATOM      2  N   UNL     1       5.203   3.357  14.718  0.00  0.00    +0.000 NA
ATOM      3  C   UNL     1       5.981   3.880  13.757  0.00  0.00    +0.000 A 
ATOM      4  C   UNL     1       6.750   4.950  14.273  0.00  0.00    +0.000 A 
ATOM      5  C   UNL     1       6.362   5.118  15.595  0.00  0.00    +0.000 A 
ENDROOT
BRANCH   5   6
ATOM      6  C   UNL     1       6.931   6.017  16.616  0.00  0.00    +0.000 A 
ATOM      7  C   UNL     1       7.027   7.401  16.409  0.00  0.00    +0.000 A 
ATOM      8  C   UNL     1       7.672   8.227  17.335  0.00  0.00    +0.000 A 
ATOM      9  C   UNL     1       8.166   7.693  18.524  0.00  0.00    +0.000 A 
ATOM     10 CL   UNL     1       8.973   8.762  19.612  0.00  0.00    +0.000 Cl
ATOM     11  C   UNL     1       7.997   6.331  18.788  0.00  0.00    +0.000 A 
ATOM     12 CL   UNL     1       8.526   5.607  20.265  0.00  0.00    +0.000 Cl
ATOM     13  C   UNL     1       7.391   5.500  17.836  0.00  0.00    +0.000 A 
ENDBRANCH   5   6
BRANCH   1  17
ATOM     14  C   UNL     1       2.579   3.897  18.962  0.00  0.00    +0.000 A 
ATOM     15  C   UNL     1       3.252   2.759  18.505  0.00  0.00    +0.000 A 
ATOM     16  C   UNL     1       4.134   2.864  17.427  0.00  0.00    +0.000 A 
ATOM     17  C   UNL     1       4.363   4.113  16.827  0.00  0.00    +0.000 A 
ATOM     18  C   UNL     1       3.656   5.241  17.268  0.00  0.00    +0.000 A 
ATOM     19  C   UNL     1       2.768   5.134  18.339  0.00  0.00    +0.000 A 
BRANCH  14  20
ATOM     20  S   UNL     1       1.454   3.765  20.317  0.00  0.00    +0.000 S 
ATOM     21  O   UNL     1       0.402   2.849  19.963  0.00  0.00    +0.000 OA
ATOM     22  O   UNL     1       1.197   5.084  20.850  0.00  0.00    +0.000 OA
BRANCH  20  23
ATOM     23  N   UNL     1       2.383   2.995  21.490  0.00  0.00    +0.000 NA
ATOM     24  H   UNL     1       3.025   3.668  21.903  0.00  0.00    +0.000 HD
ATOM     25  H   UNL     1       2.853   2.187  21.077  0.00  0.00    +0.000 HD
ENDBRANCH  20  23
ENDBRANCH  14  20
ENDBRANCH   1  17
BRANCH   3  26
ATOM     26  C   UNL     1       6.023   3.357  12.343  0.00  0.00    +0.000 C 
ATOM     27  F   UNL     1       6.270   2.025  12.258  0.00  0.00    +0.000 F 
ATOM     28  F   UNL     1       4.841   3.576  11.703  0.00  0.00    +0.000 F 
ATOM     29  F   UNL     1       6.978   3.986  11.606  0.00  0.00    +0.000 F 
ENDBRANCH   3  26
TORSDOF 5
ENDMDL
MODEL 3
REMARK VINA RESULT:      -7.0      5.212      6.724
REMARK  Name = 
REMARK  5 active torsions:
REMARK  status: ('A' for Active; 'I' for Inactive)
REMARK    1  A    between atoms: N_1  and  S_2
REMARK    2  A    between atoms: S_2  and  C_5
REMARK    3  A    between atoms: C_8  and  N_9
REMARK    4  A    between atoms: C_11  and  C_12
REMARK    5  A    between atoms: C_17  and  C_18
REMARK                            x       y       z     vdW  Elec       q    Type
REMARK                         _______ _______ _______ _____ _____    ______ ____
ROOT
ATOM      1  N   UNL     1       2.717   5.448  19.646  0.00  0.00    +0.000 N 
ATOM      2  N   UNL     1       2.196   4.833  20.740  0.00  0.00    +0.000 NA
ATOM      3  C   UNL     1       2.434   3.524  20.554  0.00  0.00    +0.000 A 
ATOM      4  C   UNL     1       3.298   3.332  19.449  0.00  0.00    +0.000 A 
ATOM      5  C   UNL     1       3.535   4.587  18.907  0.00  0.00    +0.000 A 
ENDROOT
BRANCH   5   6
ATOM      6  C   UNL     1       4.455   4.961  17.817  0.00  0.00    +0.000 A 
ATOM      7  C   UNL     1       4.315   4.440  16.521  0.00  0.00    +0.000 A 
ATOM      8  C   UNL     1       5.259   4.712  15.527  0.00  0.00    +0.000 A 
ATOM      9  C   UNL     1       6.322   5.574  15.789  0.00  0.00    +0.000 A 
ATOM     10 CL   UNL     1       7.466   5.848  14.526  0.00  0.00    +0.000 Cl
ATOM     11  C   UNL     1       6.427   6.175  17.046  0.00  0.00    +0.000 A 
ATOM     12 CL   UNL     1       7.679   7.302  17.428  0.00  0.00    +0.000 Cl
ATOM     13  C   UNL     1       5.502   5.862  18.053  0.00  0.00    +0.000 A 
ENDBRANCH   5   6
BRANCH   1  17
ATOM     14  C   UNL     1       1.708   9.476  18.934  0.00  0.00    +0.000 A 
ATOM     15  C   UNL     1       1.499   8.920  20.200  0.00  0.00    +0.000 A 
ATOM     16  C   UNL     1       1.809   7.576  20.423  0.00  0.00    +0.000 A 
ATOM     17  C   UNL     1       2.354   6.800  19.387  0.00  0.00    +0.000 A 
ATOM     18  C   UNL     1       2.526   7.357  18.111  0.00  0.00    +0.000 A 
ATOM     19  C   UNL     1       2.208   8.697  17.886  0.00  0.00    +0.000 A 
BRANCH  14  20
ATOM     20  S   UNL     1       1.308  11.172  18.645  0.00  0.00    +0.000 S 
ATOM     21  O   UNL     1       1.632  11.935  19.822  0.00  0.00    +0.000 OA
ATOM     22  O   UNL     1       0.020  11.251  17.992  0.00  0.00    +0.000 OA
BRANCH  20  23
ATOM     23  N   UNL     1       2.423  11.616  17.466  0.00  0.00    +0.000 NA
ATOM     24  H   UNL     1       2.966  12.409  17.802  0.00  0.00    +0.000 HD
ATOM     25  H   UNL     1       1.936  11.802  16.588  0.00  0.00    +0.000 HD
ENDBRANCH  20  23
ENDBRANCH  14  20
ENDBRANCH   1  17
BRANCH   3  26
ATOM     26  C   UNL     1       1.864   2.441  21.435  0.00  0.00    +0.000 C 
ATOM     27  F   UNL     1       0.889   2.873  22.274  0.00  0.00    +0.000 F 
ATOM     28  F   UNL     1       1.323   1.437  20.691  0.00  0.00    +0.000 F 
ATOM     29  F   UNL     1       2.827   1.868  22.207  0.00  0.00    +0.000 F 
ENDBRANCH   3  26
TORSDOF 5
ENDMDL
MODEL 4
REMARK VINA RESULT:      -6.8      5.279      6.720
REMARK  Name = 
REMARK  5 active torsions:
REMARK  status: ('A' for Active; 'I' for Inactive)
REMARK    1  A    between atoms: N_1  and  S_2
REMARK    2  A    between atoms: S_2  and  C_5
REMARK    3  A    between atoms: C_8  and  N_9
REMARK    4  A    between atoms: C_11  and  C_12
REMARK    5  A    between atoms: C_17  and  C_18
REMARK                            x       y       z     vdW  Elec       q    Type
REMARK                         _______ _______ _______ _____ _____    ______ ____
ROOT
ATOM      1  N   UNL     1       2.734   5.427  19.680  0.00  0.00    +0.000 N 
ATOM      2  N   UNL     1       2.213   4.802  20.768  0.00  0.00    +0.000 NA
ATOM      3  C   UNL     1       2.424   3.492  20.555  0.00  0.00    +0.000 A 
ATOM      4  C   UNL     1       3.273   3.305  19.438  0.00  0.00    +0.000 A 
ATOM      5  C   UNL     1       3.528   4.565  18.917  0.00  0.00    +0.000 A 
ENDROOT
BRANCH   5   6
ATOM      6  C   UNL     1       4.444   4.941  17.824  0.00  0.00    +0.000 A 
ATOM      7  C   UNL     1       4.297   4.428  16.527  0.00  0.00    +0.000 A 
ATOM      8  C   UNL     1       5.237   4.702  15.530  0.00  0.00    +0.000 A 
ATOM      9  C   UNL     1       6.304   5.560  15.791  0.00  0.00    +0.000 A 
ATOM     10 CL   UNL     1       7.443   5.837  14.524  0.00  0.00    +0.000 Cl
ATOM     11  C   UNL     1       6.416   6.154  17.051  0.00  0.00    +0.000 A 
ATOM     12 CL   UNL     1       7.674   7.276  17.433  0.00  0.00    +0.000 Cl
ATOM     13  C   UNL     1       5.495   5.839  18.060  0.00  0.00    +0.000 A 
ENDBRANCH   5   6
BRANCH   1  17
ATOM     14  C   UNL     1       1.665   9.435  18.941  0.00  0.00    +0.000 A 
ATOM     15  C   UNL     1       2.230   8.665  17.919  0.00  0.00    +0.000 A 
ATOM     16  C   UNL     1       2.609   7.346  18.178  0.00  0.00    +0.000 A 
ATOM     17  C   UNL     1       2.394   6.790  19.450  0.00  0.00    +0.000 A 
ATOM     18  C   UNL     1       1.861   7.581  20.477  0.00  0.00    +0.000 A 
ATOM     19  C   UNL     1       1.491   8.902  20.222  0.00  0.00    +0.000 A 
BRANCH  14  20
ATOM     20  S   UNL     1       1.195  11.107  18.621  0.00  0.00    +0.000 S 
ATOM     21  O   UNL     1      -0.172  11.129  18.169  0.00  0.00    +0.000 OA
ATOM     22  O   UNL     1       2.265  11.774  17.911  0.00  0.00    +0.000 OA
BRANCH  20  23
ATOM     23  N   UNL     1       1.200  11.790  20.158  0.00  0.00    +0.000 NA
ATOM     24  H   UNL     1       2.054  12.330  20.281  0.00  0.00    +0.000 HD
ATOM     25  H   UNL     1       1.081  11.056  20.859  0.00  0.00    +0.000 HD
ENDBRANCH  20  23
ENDBRANCH  14  20
ENDBRANCH   1  17
BRANCH   3  26
ATOM     26  C   UNL     1       1.842   2.404  21.422  0.00  0.00    +0.000 C 
ATOM     27  F   UNL     1       0.854   2.831  22.249  0.00  0.00    +0.000 F 
ATOM     28  F   UNL     1       1.312   1.404  20.665  0.00  0.00    +0.000 F 
ATOM     29  F   UNL     1       2.794   1.827  22.204  0.00  0.00    +0.000 F 
ENDBRANCH   3  26
TORSDOF 5
ENDMDL
MODEL 5
REMARK VINA RESULT:      -6.7      5.252      6.724
REMARK  Name = 
REMARK  5 active torsions:
REMARK  status: ('A' for Active; 'I' for Inactive)
REMARK    1  A    between atoms: N_1  and  S_2
REMARK    2  A    between atoms: S_2  and  C_5
REMARK    3  A    between atoms: C_8  and  N_9
REMARK    4  A    between atoms: C_11  and  C_12
REMARK    5  A    between atoms: C_17  and  C_18
REMARK                            x       y       z     vdW  Elec       q    Type
REMARK                         _______ _______ _______ _____ _____    ______ ____
ROOT
ATOM      1  N   UNL     1       2.714   5.415  19.737  0.00  0.00    +0.000 N 
ATOM      2  N   UNL     1       2.198   4.792  20.829  0.00  0.00    +0.000 NA
ATOM      3  C   UNL     1       2.409   3.482  20.618  0.00  0.00    +0.000 A 
ATOM      4  C   UNL     1       3.253   3.292  19.498  0.00  0.00    +0.000 A 
ATOM      5  C   UNL     1       3.506   4.551  18.973  0.00  0.00    +0.000 A 
ENDROOT
BRANCH   5   6
ATOM      6  C   UNL     1       4.418   4.925  17.876  0.00  0.00    +0.000 A 
ATOM      7  C   UNL     1       4.249   4.430  16.574  0.00  0.00    +0.000 A 
ATOM      8  C   UNL     1       5.184   4.701  15.571  0.00  0.00    +0.000 A 
ATOM      9  C   UNL     1       6.268   5.537  15.832  0.00  0.00    +0.000 A 
ATOM     10 CL   UNL     1       7.400   5.809  14.557  0.00  0.00    +0.000 Cl
ATOM     11  C   UNL     1       6.403   6.112  17.098  0.00  0.00    +0.000 A 
ATOM     12 CL   UNL     1       7.684   7.207  17.481  0.00  0.00    +0.000 Cl
ATOM     13  C   UNL     1       5.487   5.801  18.113  0.00  0.00    +0.000 A 
ENDBRANCH   5   6
BRANCH   1  17
ATOM     14  C   UNL     1       1.639   9.420  18.994  0.00  0.00    +0.000 A 
ATOM     15  C   UNL     1       2.156   8.634  17.959  0.00  0.00    +0.000 A 
ATOM     16  C   UNL     1       2.538   7.316  18.218  0.00  0.00    +0.000 A 
ATOM     17  C   UNL     1       2.373   6.777  19.504  0.00  0.00    +0.000 A 
ATOM     18  C   UNL     1       1.888   7.583  20.544  0.00  0.00    +0.000 A 
ATOM     19  C   UNL     1       1.516   8.904  20.288  0.00  0.00    +0.000 A 
BRANCH  14  20
ATOM     20  S   UNL     1       1.165  11.091  18.674  0.00  0.00    +0.000 S 
ATOM     21  O   UNL     1       2.109  11.676  17.757  0.00  0.00    +0.000 OA
ATOM     22  O   UNL     1       0.788  11.725  19.918  0.00  0.00    +0.000 OA
BRANCH  20  23
ATOM     23  N   UNL     1      -0.275  10.907  17.824  0.00  0.00    +0.000 NA
ATOM     24  H   UNL     1      -0.229  10.056  17.269  0.00  0.00    +0.000 HD
ATOM     25  H   UNL     1      -0.452  11.745  17.267  0.00  0.00    +0.000 HD
ENDBRANCH  20  23
ENDBRANCH  14  20
ENDBRANCH   1  17
BRANCH   3  26
ATOM     26  C   UNL     1       1.831   2.396  21.490  0.00  0.00    +0.000 C 
ATOM     27  F   UNL     1       1.182   1.424  20.799  0.00  0.00    +0.000 F 
ATOM     28  F   UNL     1       2.806   1.776  22.212  0.00  0.00    +0.000 F 
ATOM     29  F   UNL     1       0.948   2.898  22.394  0.00  0.00    +0.000 F 
ENDBRANCH   3  26
TORSDOF 5
ENDMDL
MODEL 6
REMARK VINA RESULT:      -6.7      8.760     10.353
REMARK  Name = 
REMARK  5 active torsions:
REMARK  status: ('A' for Active; 'I' for Inactive)
REMARK    1  A    between atoms: N_1  and  S_2
REMARK    2  A    between atoms: S_2  and  C_5
REMARK    3  A    between atoms: C_8  and  N_9
REMARK    4  A    between atoms: C_11  and  C_12
REMARK    5  A    between atoms: C_17  and  C_18
REMARK                            x       y       z     vdW  Elec       q    Type
REMARK                         _______ _______ _______ _____ _____    ______ ____
ROOT
ATOM      1  N   UNL     1       1.135  11.799  18.942  0.00  0.00    +0.000 N 
ATOM      2  N   UNL     1       2.180  12.646  19.136  0.00  0.00    +0.000 NA
ATOM      3  C   UNL     1       1.769  13.827  18.647  0.00  0.00    +0.000 A 
ATOM      4  C   UNL     1       0.387  13.783  18.344  0.00  0.00    +0.000 A 
ATOM      5  C   UNL     1      -0.035  12.487  18.603  0.00  0.00    +0.000 A 
ENDROOT
BRANCH   5   6
ATOM      6  C   UNL     1      -1.403  11.939  18.565  0.00  0.00    +0.000 A 
ATOM      7  C   UNL     1      -1.764  10.915  17.676  0.00  0.00    +0.000 A 
ATOM      8  C   UNL     1      -3.089  10.484  17.569  0.00  0.00    +0.000 A 
ATOM      9  C   UNL     1      -4.068  11.017  18.406  0.00  0.00    +0.000 A 
ATOM     10 CL   UNL     1      -5.689  10.459  18.205  0.00  0.00    +0.000 Cl
ATOM     11  C   UNL     1      -3.710  11.973  19.361  0.00  0.00    +0.000 A 
ATOM     12 CL   UNL     1      -4.853  12.635  20.475  0.00  0.00    +0.000 Cl
ATOM     13  C   UNL     1      -2.388  12.434  19.432  0.00  0.00    +0.000 A 
ENDBRANCH   5   6
BRANCH   1  17
ATOM     14  C   UNL     1       1.889   7.669  19.297  0.00  0.00    +0.000 A 
ATOM     15  C   UNL     1       2.161   8.325  18.092  0.00  0.00    +0.000 A 
ATOM     16  C   UNL     1       1.882   9.689  17.971  0.00  0.00    +0.000 A 
ATOM     17  C   UNL     1       1.360  10.399  19.064  0.00  0.00    +0.000 A 
ATOM     18  C   UNL     1       1.058   9.725  20.256  0.00  0.00    +0.000 A 
ATOM     19  C   UNL     1       1.328   8.360  20.375  0.00  0.00    +0.000 A 
BRANCH  14  20
ATOM     20  S   UNL     1       2.230   5.943  19.451  0.00  0.00    +0.000 S 
ATOM     21  O   UNL     1       2.034   5.313  18.171  0.00  0.00    +0.000 OA
ATOM     22  O   UNL     1       1.627   5.446  20.668  0.00  0.00    +0.000 OA
BRANCH  20  23
ATOM     23  N   UNL     1       3.886   5.921  19.745  0.00  0.00    +0.000 NA
ATOM     24  H   UNL     1       4.379   6.215  18.904  0.00  0.00    +0.000 HD
ATOM     25  H   UNL     1       4.163   4.994  20.074  0.00  0.00    +0.000 HD
ENDBRANCH  20  23
ENDBRANCH  14  20
ENDBRANCH   1  17
BRANCH   3  26
ATOM     26  C   UNL     1       2.677  15.020  18.483  0.00  0.00    +0.000 C 
ATOM     27  F   UNL     1       3.551  14.907  17.450  0.00  0.00    +0.000 F 
ATOM     28  F   UNL     1       1.959  16.157  18.263  0.00  0.00    +0.000 F 
ATOM     29  F   UNL     1       3.413  15.245  19.604  0.00  0.00    +0.000 F 
ENDBRANCH   3  26
TORSDOF 5
ENDMDL
MODEL 7
REMARK VINA RESULT:      -6.6     10.024     11.350
REMARK  Name = 
REMARK  5 active torsions:
REMARK  status: ('A' for Active; 'I' for Inactive)
REMARK    1  A    between atoms: N_1  and  S_2
REMARK    2  A    between atoms: S_2  and  C_5
REMARK    3  A    between atoms: C_8  and  N_9
REMARK    4  A    between atoms: C_11  and  C_12
REMARK    5  A    between atoms: C_17  and  C_18
REMARK                            x       y       z     vdW  Elec       q    Type
REMARK                         _______ _______ _______ _____ _____    ______ ____
ROOT
ATOM      1  N   UNL     1      -0.309  11.797  20.282  0.00  0.00    +0.000 N 
ATOM      2  N   UNL     1       0.062  10.507  20.071  0.00  0.00    +0.000 NA
ATOM      3  C   UNL     1       0.958  10.559  19.071  0.00  0.00    +0.000 A 
ATOM      4  C   UNL     1       1.316  11.900  18.799  0.00  0.00    +0.000 A 
ATOM      5  C   UNL     1       0.545  12.696  19.634  0.00  0.00    +0.000 A 
ENDROOT
BRANCH   5   6
ATOM      6  C   UNL     1       0.608  14.155  19.833  0.00  0.00    +0.000 A 
ATOM      7  C   UNL     1       1.281  14.723  20.926  0.00  0.00    +0.000 A 
ATOM      8  C   UNL     1       1.237  16.099  21.166  0.00  0.00    +0.000 A 
ATOM      9  C   UNL     1       0.582  16.945  20.272  0.00  0.00    +0.000 A 
ATOM     10 CL   UNL     1       0.544  18.631  20.640  0.00  0.00    +0.000 Cl
ATOM     11  C   UNL     1      -0.015  16.407  19.129  0.00  0.00    +0.000 A 
ATOM     12 CL   UNL     1      -0.790  17.396  17.943  0.00  0.00    +0.000 Cl
ATOM     13  C   UNL     1      -0.006  15.021  18.917  0.00  0.00    +0.000 A 
ENDBRANCH   5   6
BRANCH   1  17
ATOM     14  C   UNL     1      -3.712  12.619  22.627  0.00  0.00    +0.000 A 
ATOM     15  C   UNL     1      -2.570  12.073  23.224  0.00  0.00    +0.000 A 
ATOM     16  C   UNL     1      -1.455  11.776  22.436  0.00  0.00    +0.000 A 
ATOM     17  C   UNL     1      -1.474  12.053  21.060  0.00  0.00    +0.000 A 
ATOM     18  C   UNL     1      -2.635  12.566  20.465  0.00  0.00    +0.000 A 
ATOM     19  C   UNL     1      -3.753  12.854  21.250  0.00  0.00    +0.000 A 
BRANCH  14  20
ATOM     20  S   UNL     1      -5.128  12.985  23.617  0.00  0.00    +0.000 S 
ATOM     21  O   UNL     1      -6.292  12.407  22.999  0.00  0.00    +0.000 OA
ATOM     22  O   UNL     1      -5.070  14.368  24.035  0.00  0.00    +0.000 OA
BRANCH  20  23
ATOM     23  N   UNL     1      -4.838  12.095  25.015  0.00  0.00    +0.000 NA
ATOM     24  H   UNL     1      -3.867  11.790  25.022  0.00  0.00    +0.000 HD
ATOM     25  H   UNL     1      -5.505  11.323  25.073  0.00  0.00    +0.000 HD
ENDBRANCH  20  23
ENDBRANCH  14  20
ENDBRANCH   1  17
BRANCH   3  26
ATOM     26  C   UNL     1       1.502   9.335  18.378  0.00  0.00    +0.000 C 
ATOM     27  F   UNL     1       0.672   8.824  17.434  0.00  0.00    +0.000 F 
ATOM     28  F   UNL     1       2.682   9.608  17.754  0.00  0.00    +0.000 F 
ATOM     29  F   UNL     1       1.761   8.334  19.263  0.00  0.00    +0.000 F 
ENDBRANCH   3  26
TORSDOF 5
ENDMDL
MODEL 8
REMARK VINA RESULT:      -6.5      8.597     10.237
REMARK  Name = 
REMARK  5 active torsions:
REMARK  status: ('A' for Active; 'I' for Inactive)
REMARK    1  A    between atoms: N_1  and  S_2
REMARK    2  A    between atoms: S_2  and  C_5
REMARK    3  A    between atoms: C_8  and  N_9
REMARK    4  A    between atoms: C_11  and  C_12
REMARK    5  A    between atoms: C_17  and  C_18
REMARK                            x       y       z     vdW  Elec       q    Type
REMARK                         _______ _______ _______ _____ _____    ______ ____
ROOT
ATOM      1  N   UNL     1       0.047  11.251  20.680  0.00  0.00    +0.000 N 
ATOM      2  N   UNL     1      -1.169  11.034  21.247  0.00  0.00    +0.000 NA
ATOM      3  C   UNL     1      -1.443  12.156  21.932  0.00  0.00    +0.000 A 
ATOM      4  C   UNL     1      -0.502  13.167  21.620  0.00  0.00    +0.000 A 
ATOM      5  C   UNL     1       0.421  12.598  20.755  0.00  0.00    +0.000 A 
ENDROOT
BRANCH   5   6
ATOM      6  C   UNL     1       1.536  13.246  20.040  0.00  0.00    +0.000 A 
ATOM      7  C   UNL     1       1.505  13.448  18.652  0.00  0.00    +0.000 A 
ATOM      8  C   UNL     1       2.614  13.959  17.971  0.00  0.00    +0.000 A 
ATOM      9  C   UNL     1       3.749  14.351  18.678  0.00  0.00    +0.000 A 
ATOM     10 CL   UNL     1       5.093  14.950  17.775  0.00  0.00    +0.000 Cl
ATOM     11  C   UNL     1       3.763  14.243  20.072  0.00  0.00    +0.000 A 
ATOM     12 CL   UNL     1       5.107  14.766  21.023  0.00  0.00    +0.000 Cl
ATOM     13  C   UNL     1       2.665  13.688  20.744  0.00  0.00    +0.000 A 
ENDBRANCH   5   6
BRANCH   1  17
ATOM     14  C   UNL     1       2.087   7.910  19.122  0.00  0.00    +0.000 A 
ATOM     15  C   UNL     1       1.776   7.963  20.485  0.00  0.00    +0.000 A 
ATOM     16  C   UNL     1       1.125   9.086  21.002  0.00  0.00    +0.000 A 
ATOM     17  C   UNL     1       0.760  10.140  20.148  0.00  0.00    +0.000 A 
ATOM     18  C   UNL     1       1.108  10.094  18.791  0.00  0.00    +0.000 A 
ATOM     19  C   UNL     1       1.767   8.977  18.276  0.00  0.00    +0.000 A 
BRANCH  14  20
ATOM     20  S   UNL     1       2.920   6.497  18.467  0.00  0.00    +0.000 S 
ATOM     21  O   UNL     1       4.045   6.940  17.685  0.00  0.00    +0.000 OA
ATOM     22  O   UNL     1       1.941   5.558  17.968  0.00  0.00    +0.000 OA
BRANCH  20  23
ATOM     23  N   UNL     1       3.554   5.774  19.847  0.00  0.00    +0.000 NA
ATOM     24  H   UNL     1       3.461   4.764  19.768  0.00  0.00    +0.000 HD
ATOM     25  H   UNL     1       3.098   6.159  20.676  0.00  0.00    +0.000 HD
ENDBRANCH  20  23
ENDBRANCH  14  20
ENDBRANCH   1  17
BRANCH   3  26
ATOM     26  C   UNL     1      -2.614  12.292  22.873  0.00  0.00    +0.000 C 
ATOM     27  F   UNL     1      -2.586  13.423  23.624  0.00  0.00    +0.000 F 
ATOM     28  F   UNL     1      -3.793  12.305  22.190  0.00  0.00    +0.000 F 
ATOM     29  F   UNL     1      -2.685  11.243  23.736  0.00  0.00    +0.000 F 
ENDBRANCH   3  26
TORSDOF 5
ENDMDL
MODEL 9
REMARK VINA RESULT:      -6.5      8.692     10.298
REMARK  Name = 
REMARK  5 active torsions:
REMARK  status: ('A' for Active; 'I' for Inactive)
REMARK    1  A    between atoms: N_1  and  S_2
REMARK    2  A    between atoms: S_2  and  C_5
REMARK    3  A    between atoms: C_8  and  N_9
REMARK    4  A    between atoms: C_11  and  C_12
REMARK    5  A    between atoms: C_17  and  C_18
REMARK                            x       y       z     vdW  Elec       q    Type
REMARK                         _______ _______ _______ _____ _____    ______ ____
ROOT
ATOM      1  N   UNL     1       1.177  11.729  18.888  0.00  0.00    +0.000 N 
ATOM      2  N   UNL     1       2.200  12.597  19.099  0.00  0.00    +0.000 NA
ATOM      3  C   UNL     1       1.759  13.779  18.636  0.00  0.00    +0.000 A 
ATOM      4  C   UNL     1       0.378  13.706  18.335  0.00  0.00    +0.000 A 
ATOM      5  C   UNL     1      -0.011  12.395  18.566  0.00  0.00    +0.000 A 
ENDROOT
BRANCH   5   6
ATOM      6  C   UNL     1      -1.365  11.813  18.518  0.00  0.00    +0.000 A 
ATOM      7  C   UNL     1      -1.661  10.698  17.719  0.00  0.00    +0.000 A 
ATOM      8  C   UNL     1      -2.972  10.227  17.594  0.00  0.00    +0.000 A 
ATOM      9  C   UNL     1      -4.000  10.817  18.326  0.00  0.00    +0.000 A 
ATOM     10 CL   UNL     1      -5.599  10.203  18.106  0.00  0.00    +0.000 Cl
ATOM     11  C   UNL     1      -3.708  11.870  19.197  0.00  0.00    +0.000 A 
ATOM     12 CL   UNL     1      -4.917  12.611  20.185  0.00  0.00    +0.000 Cl
ATOM     13  C   UNL     1      -2.400  12.367  19.284  0.00  0.00    +0.000 A 
ENDBRANCH   5   6
BRANCH   1  17
ATOM     14  C   UNL     1       2.036   7.612  19.151  0.00  0.00    +0.000 A 
ATOM     15  C   UNL     1       2.268   8.297  17.953  0.00  0.00    +0.000 A 
ATOM     16  C   UNL     1       1.954   9.655  17.863  0.00  0.00    +0.000 A 
ATOM     17  C   UNL     1       1.438  10.332  18.980  0.00  0.00    +0.000 A 
ATOM     18  C   UNL     1       1.175   9.629  20.165  0.00  0.00    +0.000 A 
ATOM     19  C   UNL     1       1.479   8.270  20.252  0.00  0.00    +0.000 A 
BRANCH  14  20
ATOM     20  S   UNL     1       2.420   5.892  19.266  0.00  0.00    +0.000 S 
ATOM     21  O   UNL     1       3.792   5.747  19.680  0.00  0.00    +0.000 OA
ATOM     22  O   UNL     1       1.874   5.206  18.116  0.00  0.00    +0.000 OA
BRANCH  20  23
ATOM     23  N   UNL     1       1.474   5.391  20.564  0.00  0.00    +0.000 NA
ATOM     24  H   UNL     1       1.444   4.374  20.582  0.00  0.00    +0.000 HD
ATOM     25  H   UNL     1       0.551   5.823  20.500  0.00  0.00    +0.000 HD
ENDBRANCH  20  23
ENDBRANCH  14  20
ENDBRANCH   1  17
BRANCH   3  26
ATOM     26  C   UNL     1       2.636  14.997  18.497  0.00  0.00    +0.000 C 
ATOM     27  F   UNL     1       1.952  16.138  18.225  0.00  0.00    +0.000 F 
ATOM     28  F   UNL     1       3.341  15.228  19.639  0.00  0.00    +0.000 F 
ATOM     29  F   UNL     1       3.556  14.840  17.507  0.00  0.00    +0.000 F 
ENDBRANCH   3  26
TORSDOF 5
ENDMDL
