MODEL 1
REMARK VINA RESULT:      -7.8      0.000      0.000
REMARK  Name = 
REMARK  9 active torsions:
REMARK  status: ('A' for Active; 'I' for Inactive)
REMARK    1  A    between atoms: C_1  and  C_2
REMARK    2  A    between atoms: C_2  and  C_3
REMARK    3  A    between atoms: C_3  and  C_4
REMARK    4  A    between atoms: C_4  and  N_5
REMARK    5  A    between atoms: N_5  and  C_6
REMARK    6  A    between atoms: C_6  and  C_7
REMARK    7  A    between atoms: C_8  and  C_10
REMARK    8  A    between atoms: C_13  and  O_14
REMARK    9  A    between atoms: C_19  and  C_20
REMARK                            x       y       z     vdW  Elec       q    Type
REMARK                         _______ _______ _______ _____ _____    ______ ____
ROOT
ATOM      1  C   UNL     1       4.818   3.954  18.654  0.00  0.00    +0.000 A 
ATOM      2  C   UNL     1       5.896   4.814  18.588  0.00  0.00    +0.000 A 
ATOM      3  C   UNL     1       6.357   5.070  17.250  0.00  0.00    +0.000 A 
ATOM      4  C   UNL     1       7.330   5.960  16.762  0.00  0.00    +0.000 A 
ATOM      5  N   UNL     1       7.663   6.007  15.463  0.00  0.00    +0.000 NA
ATOM      6  C   UNL     1       7.086   5.171  14.595  0.00  0.00    +0.000 A 
ATOM      7  C   UNL     1       7.479   5.198  13.266  0.00  0.00    +0.000 A 
ATOM      8  C   UNL     1       6.933   4.332  12.312  0.00  0.00    +0.000 A 
ATOM      9  C   UNL     1       5.952   3.403  12.679  0.00  0.00    +0.000 A 
ATOM     10  C   UNL     1       5.374   2.442  11.685  0.00  0.00    +0.000 C 
ATOM     11  C   UNL     1       5.522   3.373  14.008  0.00  0.00    +0.000 A 
ATOM     12  C   UNL     1       6.091   4.247  14.961  0.00  0.00    +0.000 A 
ATOM     13  C   UNL     1       5.716   4.238  16.332  0.00  0.00    +0.000 A 
ATOM     14  S   UNL     1       4.505   3.285  17.113  0.00  0.00    +0.000 S 
ENDROOT
BRANCH   1  16
ATOM     15  N   UNL     1       3.027   4.398  20.337  0.00  0.00    +0.000 N 
ATOM     16  C   UNL     1       3.984   3.510  19.782  0.00  0.00    +0.000 C 
ATOM     17  O   UNL     1       4.090   2.365  20.229  0.00  0.00    +0.000 OA
BRANCH  15  18
ATOM     18  C   UNL     1       2.666   5.665  19.691  0.00  0.00    +0.000 C 
ATOM     19  C   UNL     1       1.898   6.724  20.461  0.00  0.00    +0.000 C 
ENDBRANCH  15  18
BRANCH  15  20
ATOM     20  C   UNL     1       2.221   3.873  21.452  0.00  0.00    +0.000 C 
BRANCH  20  21
ATOM     21  C   UNL     1       1.104   2.897  21.050  0.00  0.00    +0.000 C 
BRANCH  21  23
ATOM     22  C   UNL     1       0.873   2.165  18.666  0.00  0.00    +0.000 C 
ATOM     23  C   UNL     1       0.449   3.200  19.703  0.00  0.00    +0.000 C 
ENDBRANCH  21  23
ENDBRANCH  20  21
ENDBRANCH  15  20
ENDBRANCH   1  16
BRANCH   4  24
ATOM     24  O   UNL     1       7.998   6.855  17.560  0.00  0.00    +0.000 OA
ATOM     25  H   UNL     1       8.640   7.322  17.008  0.00  0.00    +0.000 HD
ENDBRANCH   4  24
TORSDOF 6
ENDMDL
MODEL 2
REMARK VINA RESULT:      -7.7      2.257      7.415
REMARK  Name = 
REMARK  9 active torsions:
REMARK  status: ('A' for Active; 'I' for Inactive)
REMARK    1  A    between atoms: C_1  and  C_2
REMARK    2  A    between atoms: C_2  and  C_3
REMARK    3  A    between atoms: C_3  and  C_4
REMARK    4  A    between atoms: C_4  and  N_5
REMARK    5  A    between atoms: N_5  and  C_6
REMARK    6  A    between atoms: C_6  and  C_7
REMARK    7  A    between atoms: C_8  and  C_10
REMARK    8  A    between atoms: C_13  and  O_14
REMARK    9  A    between atoms: C_19  and  C_20
REMARK                            x       y       z     vdW  Elec       q    Type
REMARK                         _______ _______ _______ _____ _____    ______ ____
ROOT
ATOM      1  C   UNL     1       6.157   4.867  15.340  0.00  0.00    +0.000 A 
ATOM      2  C   UNL     1       6.131   4.136  16.510  0.00  0.00    +0.000 A 
ATOM      3  C   UNL     1       5.158   4.594  17.464  0.00  0.00    +0.000 A 
ATOM      4  C   UNL     1       4.748   4.058  18.697  0.00  0.00    +0.000 A 
ATOM      5  N   UNL     1       3.852   4.680  19.481  0.00  0.00    +0.000 NA
ATOM      6  C   UNL     1       3.346   5.859  19.109  0.00  0.00    +0.000 A 
ATOM      7  C   UNL     1       2.461   6.511  19.954  0.00  0.00    +0.000 A 
ATOM      8  C   UNL     1       1.914   7.760  19.637  0.00  0.00    +0.000 A 
ATOM      9  C   UNL     1       2.246   8.392  18.433  0.00  0.00    +0.000 A 
ATOM     10  C   UNL     1       1.701   9.744  18.083  0.00  0.00    +0.000 C 
ATOM     11  C   UNL     1       3.117   7.744  17.554  0.00  0.00    +0.000 A 
ATOM     12  C   UNL     1       3.668   6.488  17.894  0.00  0.00    +0.000 A 
ATOM     13  C   UNL     1       4.584   5.798  17.054  0.00  0.00    +0.000 A 
ATOM     14  S   UNL     1       5.155   6.243  15.485  0.00  0.00    +0.000 S 
ENDROOT
BRANCH   1  16
ATOM     15  N   UNL     1       6.355   3.892  13.049  0.00  0.00    +0.000 N 
ATOM     16  C   UNL     1       6.906   4.688  14.086  0.00  0.00    +0.000 C 
ATOM     17  O   UNL     1       7.993   5.246  13.918  0.00  0.00    +0.000 OA
BRANCH  15  18
ATOM     18  C   UNL     1       4.964   3.421  13.076  0.00  0.00    +0.000 C 
ATOM     19  C   UNL     1       4.132   3.424  11.806  0.00  0.00    +0.000 C 
ENDBRANCH  15  18
BRANCH  15  20
ATOM     20  C   UNL     1       7.158   3.774  11.821  0.00  0.00    +0.000 C 
BRANCH  20  21
ATOM     21  C   UNL     1       7.637   2.353  11.485  0.00  0.00    +0.000 C 
BRANCH  21  23
ATOM     22  C   UNL     1       6.340   0.214  11.356  0.00  0.00    +0.000 C 
ATOM     23  C   UNL     1       6.653   1.531  10.654  0.00  0.00    +0.000 C 
ENDBRANCH  21  23
ENDBRANCH  20  21
ENDBRANCH  15  20
ENDBRANCH   1  16
BRANCH   4  24
ATOM     24  O   UNL     1       5.210   2.863  19.188  0.00  0.00    +0.000 OA
ATOM     25  H   UNL     1       6.132   2.987  19.451  0.00  0.00    +0.000 HD
ENDBRANCH   4  24
TORSDOF 6
ENDMDL
MODEL 3
REMARK VINA RESULT:      -7.4      1.084      1.700
REMARK  Name = 
REMARK  9 active torsions:
REMARK  status: ('A' for Active; 'I' for Inactive)
REMARK    1  A    between atoms: C_1  and  C_2
REMARK    2  A    between atoms: C_2  and  C_3
REMARK    3  A    between atoms: C_3  and  C_4
REMARK    4  A    between atoms: C_4  and  N_5
REMARK    5  A    between atoms: N_5  and  C_6
REMARK    6  A    between atoms: C_6  and  C_7
REMARK    7  A    between atoms: C_8  and  C_10
REMARK    8  A    between atoms: C_13  and  O_14
REMARK    9  A    between atoms: C_19  and  C_20
REMARK                            x       y       z     vdW  Elec       q    Type
REMARK                         _______ _______ _______ _____ _____    ______ ____
ROOT
ATOM      1  C   UNL     1       4.361   4.932  18.468  0.00  0.00    +0.000 A 
ATOM      2  C   UNL     1       5.588   5.563  18.408  0.00  0.00    +0.000 A 
ATOM      3  C   UNL     1       6.176   5.575  17.096  0.00  0.00    +0.000 A 
ATOM      4  C   UNL     1       7.333   6.206  16.607  0.00  0.00    +0.000 A 
ATOM      5  N   UNL     1       7.752   6.043  15.343  0.00  0.00    +0.000 NA
ATOM      6  C   UNL     1       7.080   5.236  14.516  0.00  0.00    +0.000 A 
ATOM      7  C   UNL     1       7.556   5.039  13.229  0.00  0.00    +0.000 A 
ATOM      8  C   UNL     1       6.914   4.188  12.322  0.00  0.00    +0.000 A 
ATOM      9  C   UNL     1       5.749   3.507  12.694  0.00  0.00    +0.000 A 
ATOM     10  C   UNL     1       5.060   2.564  11.754  0.00  0.00    +0.000 C 
ATOM     11  C   UNL     1       5.237   3.707  13.978  0.00  0.00    +0.000 A 
ATOM     12  C   UNL     1       5.903   4.563  14.885  0.00  0.00    +0.000 A 
ATOM     13  C   UNL     1       5.445   4.779  16.213  0.00  0.00    +0.000 A 
ATOM     14  S   UNL     1       4.024   4.164  16.979  0.00  0.00    +0.000 S 
ENDROOT
BRANCH   1  16
ATOM     15  N   UNL     1       3.341   3.572  20.297  0.00  0.00    +0.000 N 
ATOM     16  C   UNL     1       3.385   4.782  19.559  0.00  0.00    +0.000 C 
ATOM     17  O   UNL     1       2.627   5.709  19.855  0.00  0.00    +0.000 OA
BRANCH  15  18
ATOM     18  C   UNL     1       4.379   2.540  20.176  0.00  0.00    +0.000 C 
ATOM     19  C   UNL     1       4.162   1.340  19.272  0.00  0.00    +0.000 C 
ENDBRANCH  15  18
BRANCH  15  20
ATOM     20  C   UNL     1       2.348   3.506  21.382  0.00  0.00    +0.000 C 
BRANCH  20  21
ATOM     21  C   UNL     1       1.071   2.717  21.054  0.00  0.00    +0.000 C 
BRANCH  21  23
ATOM     22  C   UNL     1       0.727   2.213  18.625  0.00  0.00    +0.000 C 
ATOM     23  C   UNL     1       0.366   3.153  19.770  0.00  0.00    +0.000 C 
ENDBRANCH  21  23
ENDBRANCH  20  21
ENDBRANCH  15  20
ENDBRANCH   1  16
BRANCH   4  24
ATOM     24  O   UNL     1       8.110   7.044  17.367  0.00  0.00    +0.000 OA
ATOM     25  H   UNL     1       7.648   7.890  17.441  0.00  0.00    +0.000 HD
ENDBRANCH   4  24
TORSDOF 6
ENDMDL
MODEL 4
REMARK VINA RESULT:      -7.1      0.995      1.199
REMARK  Name = 
REMARK  9 active torsions:
REMARK  status: ('A' for Active; 'I' for Inactive)
REMARK    1  A    between atoms: C_1  and  C_2
REMARK    2  A    between atoms: C_2  and  C_3
REMARK    3  A    between atoms: C_3  and  C_4
REMARK    4  A    between atoms: C_4  and  N_5
REMARK    5  A    between atoms: N_5  and  C_6
REMARK    6  A    between atoms: C_6  and  C_7
REMARK    7  A    between atoms: C_8  and  C_10
REMARK    8  A    between atoms: C_13  and  O_14
REMARK    9  A    between atoms: C_19  and  C_20
REMARK                            x       y       z     vdW  Elec       q    Type
REMARK                         _______ _______ _______ _____ _____    ______ ____
ROOT
ATOM      1  C   UNL     1       4.765   4.688  18.104  0.00  0.00    +0.000 A 
ATOM      2  C   UNL     1       5.891   5.473  17.951  0.00  0.00    +0.000 A 
ATOM      3  C   UNL     1       6.405   5.502  16.608  0.00  0.00    +0.000 A 
ATOM      4  C   UNL     1       7.440   6.257  16.030  0.00  0.00    +0.000 A 
ATOM      5  N   UNL     1       7.813   6.092  14.752  0.00  0.00    +0.000 NA
ATOM      6  C   UNL     1       7.215   5.165  13.997  0.00  0.00    +0.000 A 
ATOM      7  C   UNL     1       7.648   4.973  12.694  0.00  0.00    +0.000 A 
ATOM      8  C   UNL     1       7.082   4.002  11.859  0.00  0.00    +0.000 A 
ATOM      9  C   UNL     1       6.040   3.191  12.323  0.00  0.00    +0.000 A 
ATOM     10  C   UNL     1       5.439   2.122  11.461  0.00  0.00    +0.000 C 
ATOM     11  C   UNL     1       5.571   3.382  13.624  0.00  0.00    +0.000 A 
ATOM     12  C   UNL     1       6.160   4.360  14.458  0.00  0.00    +0.000 A 
ATOM     13  C   UNL     1       5.745   4.575  15.800  0.00  0.00    +0.000 A 
ATOM     14  S   UNL     1       4.460   3.813  16.668  0.00  0.00    +0.000 S 
ENDROOT
BRANCH   1  16
ATOM     15  N   UNL     1       2.772   5.329  19.465  0.00  0.00    +0.000 N 
ATOM     16  C   UNL     1       3.874   4.462  19.253  0.00  0.00    +0.000 C 
ATOM     17  O   UNL     1       4.061   3.509  20.014  0.00  0.00    +0.000 OA
BRANCH  15  18
ATOM     18  C   UNL     1       2.340   6.309  18.462  0.00  0.00    +0.000 C 
ATOM     19  C   UNL     1       2.365   7.793  18.783  0.00  0.00    +0.000 C 
ENDBRANCH  15  18
BRANCH  15  20
ATOM     20  C   UNL     1       1.920   5.026  20.628  0.00  0.00    +0.000 C 
BRANCH  20  21
ATOM     21  C   UNL     1       0.699   4.143  20.331  0.00  0.00    +0.000 C 
BRANCH  21  23
ATOM     22  C   UNL     1       1.588   2.444  21.943  0.00  0.00    +0.000 C 
ATOM     23  C   UNL     1       0.914   2.652  20.590  0.00  0.00    +0.000 C 
ENDBRANCH  21  23
ENDBRANCH  20  21
ENDBRANCH  15  20
ENDBRANCH   1  16
BRANCH   4  24
ATOM     24  O   UNL     1       8.134   7.226  16.711  0.00  0.00    +0.000 OA
ATOM     25  H   UNL     1       9.047   6.922  16.808  0.00  0.00    +0.000 HD
ENDBRANCH   4  24
TORSDOF 6
ENDMDL
MODEL 5
REMARK VINA RESULT:      -6.6      4.056      6.649
REMARK  Name = 
REMARK  9 active torsions:
REMARK  status: ('A' for Active; 'I' for Inactive)
REMARK    1  A    between atoms: C_1  and  C_2
REMARK    2  A    between atoms: C_2  and  C_3
REMARK    3  A    between atoms: C_3  and  C_4
REMARK    4  A    between atoms: C_4  and  N_5
REMARK    5  A    between atoms: N_5  and  C_6
REMARK    6  A    between atoms: C_6  and  C_7
REMARK    7  A    between atoms: C_8  and  C_10
REMARK    8  A    between atoms: C_13  and  O_14
REMARK    9  A    between atoms: C_19  and  C_20
REMARK                            x       y       z     vdW  Elec       q    Type
REMARK                         _______ _______ _______ _____ _____    ______ ____
ROOT
ATOM      1  C   UNL     1       1.516   7.795  20.821  0.00  0.00    +0.000 A 
ATOM      2  C   UNL     1       1.067   6.505  21.023  0.00  0.00    +0.000 A 
ATOM      3  C   UNL     1       1.748   5.519  20.228  0.00  0.00    +0.000 A 
ATOM      4  C   UNL     1       1.668   4.115  20.228  0.00  0.00    +0.000 A 
ATOM      5  N   UNL     1       2.353   3.363  19.352  0.00  0.00    +0.000 NA
ATOM      6  C   UNL     1       3.117   3.949  18.424  0.00  0.00    +0.000 A 
ATOM      7  C   UNL     1       3.776   3.159  17.495  0.00  0.00    +0.000 A 
ATOM      8  C   UNL     1       4.571   3.710  16.483  0.00  0.00    +0.000 A 
ATOM      9  C   UNL     1       4.729   5.097  16.384  0.00  0.00    +0.000 A 
ATOM     10  C   UNL     1       5.547   5.715  15.290  0.00  0.00    +0.000 C 
ATOM     11  C   UNL     1       4.093   5.913  17.323  0.00  0.00    +0.000 A 
ATOM     12  C   UNL     1       3.286   5.341  18.333  0.00  0.00    +0.000 A 
ATOM     13  C   UNL     1       2.591   6.124  19.294  0.00  0.00    +0.000 A 
ATOM     14  S   UNL     1       2.611   7.837  19.510  0.00  0.00    +0.000 S 
ENDROOT
BRANCH   1  16
ATOM     15  N   UNL     1       0.310   9.981  20.837  0.00  0.00    +0.000 N 
ATOM     16  C   UNL     1       1.181   9.066  21.482  0.00  0.00    +0.000 C 
ATOM     17  O   UNL     1       1.626   9.329  22.602  0.00  0.00    +0.000 OA
BRANCH  15  18
ATOM     18  C   UNL     1      -0.459   9.622  19.639  0.00  0.00    +0.000 C 
ATOM     19  C   UNL     1      -1.294  10.670  18.925  0.00  0.00    +0.000 C 
ENDBRANCH  15  18
BRANCH  15  20
ATOM     20  C   UNL     1       0.011  11.223  21.570  0.00  0.00    +0.000 C 
BRANCH  20  21
ATOM     21  C   UNL     1      -1.101  11.110  22.624  0.00  0.00    +0.000 C 
BRANCH  21  23
ATOM     22  C   UNL     1      -3.149  12.278  23.470  0.00  0.00    +0.000 C 
ATOM     23  C   UNL     1      -1.684  12.447  23.080  0.00  0.00    +0.000 C 
ENDBRANCH  21  23
ENDBRANCH  20  21
ENDBRANCH  15  20
ENDBRANCH   1  16
BRANCH   4  24
ATOM     24  O   UNL     1       0.908   3.406  21.123  0.00  0.00    +0.000 OA
ATOM     25  H   UNL     1       0.033   3.817  21.160  0.00  0.00    +0.000 HD
ENDBRANCH   4  24
TORSDOF 6
ENDMDL
MODEL 6
REMARK VINA RESULT:      -6.6      2.480      7.654
REMARK  Name = 
REMARK  9 active torsions:
REMARK  status: ('A' for Active; 'I' for Inactive)
REMARK    1  A    between atoms: C_1  and  C_2
REMARK    2  A    between atoms: C_2  and  C_3
REMARK    3  A    between atoms: C_3  and  C_4
REMARK    4  A    between atoms: C_4  and  N_5
REMARK    5  A    between atoms: N_5  and  C_6
REMARK    6  A    between atoms: C_6  and  C_7
REMARK    7  A    between atoms: C_8  and  C_10
REMARK    8  A    between atoms: C_13  and  O_14
REMARK    9  A    between atoms: C_19  and  C_20
REMARK                            x       y       z     vdW  Elec       q    Type
REMARK                         _______ _______ _______ _____ _____    ______ ____
ROOT
ATOM      1  C   UNL     1       4.175   5.344  17.573  0.00  0.00    +0.000 A 
ATOM      2  C   UNL     1       3.787   4.873  18.812  0.00  0.00    +0.000 A 
ATOM      3  C   UNL     1       2.867   5.735  19.503  0.00  0.00    +0.000 A 
ATOM      4  C   UNL     1       2.162   5.560  20.706  0.00  0.00    +0.000 A 
ATOM      5  N   UNL     1       1.384   6.524  21.223  0.00  0.00    +0.000 NA
ATOM      6  C   UNL     1       1.287   7.705  20.604  0.00  0.00    +0.000 A 
ATOM      7  C   UNL     1       0.521   8.708  21.178  0.00  0.00    +0.000 A 
ATOM      8  C   UNL     1       0.398   9.975  20.595  0.00  0.00    +0.000 A 
ATOM      9  C   UNL     1       1.052  10.266  19.392  0.00  0.00    +0.000 A 
ATOM     10  C   UNL     1       0.964  11.624  18.764  0.00  0.00    +0.000 C 
ATOM     11  C   UNL     1       1.811   9.265  18.783  0.00  0.00    +0.000 A 
ATOM     12  C   UNL     1       1.933   7.994  19.389  0.00  0.00    +0.000 A 
ATOM     13  C   UNL     1       2.718   6.949  18.831  0.00  0.00    +0.000 A 
ATOM     14  S   UNL     1       3.594   6.934  17.343  0.00  0.00    +0.000 S 
ENDROOT
BRANCH   1  16
ATOM     15  N   UNL     1       6.386   5.048  16.451  0.00  0.00    +0.000 N 
ATOM     16  C   UNL     1       5.001   4.749  16.510  0.00  0.00    +0.000 C 
ATOM     17  O   UNL     1       4.505   3.972  15.691  0.00  0.00    +0.000 OA
BRANCH  15  18
ATOM     18  C   UNL     1       7.086   5.744  17.538  0.00  0.00    +0.000 C 
ATOM     19  C   UNL     1       7.412   7.222  17.413  0.00  0.00    +0.000 C 
ENDBRANCH  15  18
BRANCH  15  20
ATOM     20  C   UNL     1       7.146   4.402  15.368  0.00  0.00    +0.000 C 
BRANCH  20  21
ATOM     21  C   UNL     1       7.130   5.145  14.023  0.00  0.00    +0.000 C 
BRANCH  21  23
ATOM     22  C   UNL     1       5.903   3.500  12.587  0.00  0.00    +0.000 C 
ATOM     23  C   UNL     1       7.221   4.239  12.796  0.00  0.00    +0.000 C 
ENDBRANCH  21  23
ENDBRANCH  20  21
ENDBRANCH  15  20
ENDBRANCH   1  16
BRANCH   4  24
ATOM     24  O   UNL     1       2.196   4.397  21.436  0.00  0.00    +0.000 OA
ATOM     25  H   UNL     1       1.848   4.590  22.317  0.00  0.00    +0.000 HD
ENDBRANCH   4  24
TORSDOF 6
ENDMDL
MODEL 7
REMARK VINA RESULT:      -6.6      1.001      1.571
REMARK  Name = 
REMARK  9 active torsions:
REMARK  status: ('A' for Active; 'I' for Inactive)
REMARK    1  A    between atoms: C_1  and  C_2
REMARK    2  A    between atoms: C_2  and  C_3
REMARK    3  A    between atoms: C_3  and  C_4
REMARK    4  A    between atoms: C_4  and  N_5
REMARK    5  A    between atoms: N_5  and  C_6
REMARK    6  A    between atoms: C_6  and  C_7
REMARK    7  A    between atoms: C_8  and  C_10
REMARK    8  A    between atoms: C_13  and  O_14
REMARK    9  A    between atoms: C_19  and  C_20
REMARK                            x       y       z     vdW  Elec       q    Type
REMARK                         _______ _______ _______ _____ _____    ______ ____
ROOT
ATOM      1  C   UNL     1       4.871   3.446  18.231  0.00  0.00    +0.000 A 
ATOM      2  C   UNL     1       5.859   4.410  18.243  0.00  0.00    +0.000 A 
ATOM      3  C   UNL     1       6.343   4.767  16.937  0.00  0.00    +0.000 A 
ATOM      4  C   UNL     1       7.240   5.767  16.525  0.00  0.00    +0.000 A 
ATOM      5  N   UNL     1       7.615   5.903  15.244  0.00  0.00    +0.000 NA
ATOM      6  C   UNL     1       7.156   5.052  14.320  0.00  0.00    +0.000 A 
ATOM      7  C   UNL     1       7.594   5.175  13.011  0.00  0.00    +0.000 A 
ATOM      8  C   UNL     1       7.172   4.301  12.001  0.00  0.00    +0.000 A 
ATOM      9  C   UNL     1       6.275   3.267  12.291  0.00  0.00    +0.000 A 
ATOM     10  C   UNL     1       5.833   2.297  11.237  0.00  0.00    +0.000 C 
ATOM     11  C   UNL     1       5.801   3.137  13.599  0.00  0.00    +0.000 A 
ATOM     12  C   UNL     1       6.245   4.021  14.609  0.00  0.00    +0.000 A 
ATOM     13  C   UNL     1       5.822   3.916  15.961  0.00  0.00    +0.000 A 
ATOM     14  S   UNL     1       4.683   2.818  16.653  0.00  0.00    +0.000 S 
ENDROOT
BRANCH   1  16
ATOM     15  N   UNL     1       2.639   2.778  19.130  0.00  0.00    +0.000 N 
ATOM     16  C   UNL     1       4.043   2.874  19.305  0.00  0.00    +0.000 C 
ATOM     17  O   UNL     1       4.562   2.454  20.342  0.00  0.00    +0.000 OA
BRANCH  15  18
ATOM     18  C   UNL     1       1.992   3.010  17.833  0.00  0.00    +0.000 C 
ATOM     19  C   UNL     1       1.459   4.387  17.480  0.00  0.00    +0.000 C 
ENDBRANCH  15  18
BRANCH  15  20
ATOM     20  C   UNL     1       1.883   2.180  20.244  0.00  0.00    +0.000 C 
BRANCH  20  21
ATOM     21  C   UNL     1       1.371   3.176  21.296  0.00  0.00    +0.000 C 
BRANCH  21  23
ATOM     22  C   UNL     1       1.993   5.562  20.855  0.00  0.00    +0.000 C 
ATOM     23  C   UNL     1       0.894   4.512  20.728  0.00  0.00    +0.000 C 
ENDBRANCH  21  23
ENDBRANCH  20  21
ENDBRANCH  15  20
ENDBRANCH   1  16
BRANCH   4  24
ATOM     24  O   UNL     1       7.787   6.687  17.384  0.00  0.00    +0.000 OA
ATOM     25  H   UNL     1       7.639   6.373  18.287  0.00  0.00    +0.000 HD
ENDBRANCH   4  24
TORSDOF 6
ENDMDL
MODEL 8
REMARK VINA RESULT:      -6.6      1.790      2.773
REMARK  Name = 
REMARK  9 active torsions:
REMARK  status: ('A' for Active; 'I' for Inactive)
REMARK    1  A    between atoms: C_1  and  C_2
REMARK    2  A    between atoms: C_2  and  C_3
REMARK    3  A    between atoms: C_3  and  C_4
REMARK    4  A    between atoms: C_4  and  N_5
REMARK    5  A    between atoms: N_5  and  C_6
REMARK    6  A    between atoms: C_6  and  C_7
REMARK    7  A    between atoms: C_8  and  C_10
REMARK    8  A    between atoms: C_13  and  O_14
REMARK    9  A    between atoms: C_19  and  C_20
REMARK                            x       y       z     vdW  Elec       q    Type
REMARK                         _______ _______ _______ _____ _____    ______ ____
ROOT
ATOM      1  C   UNL     1       3.986   5.437  18.410  0.00  0.00    +0.000 A 
ATOM      2  C   UNL     1       5.305   5.842  18.442  0.00  0.00    +0.000 A 
ATOM      3  C   UNL     1       5.984   5.724  17.180  0.00  0.00    +0.000 A 
ATOM      4  C   UNL     1       7.267   6.133  16.778  0.00  0.00    +0.000 A 
ATOM      5  N   UNL     1       7.746   5.873  15.552  0.00  0.00    +0.000 NA
ATOM      6  C   UNL     1       7.006   5.180  14.680  0.00  0.00    +0.000 A 
ATOM      7  C   UNL     1       7.536   4.876  13.436  0.00  0.00    +0.000 A 
ATOM      8  C   UNL     1       6.824   4.132  12.487  0.00  0.00    +0.000 A 
ATOM      9  C   UNL     1       5.533   3.674  12.772  0.00  0.00    +0.000 A 
ATOM     10  C   UNL     1       4.762   2.847  11.787  0.00  0.00    +0.000 C 
ATOM     11  C   UNL     1       4.969   3.987  14.010  0.00  0.00    +0.000 A 
ATOM     12  C   UNL     1       5.704   4.731  14.961  0.00  0.00    +0.000 A 
ATOM     13  C   UNL     1       5.193   5.051  16.248  0.00  0.00    +0.000 A 
ATOM     14  S   UNL     1       3.632   4.710  16.904  0.00  0.00    +0.000 S 
ENDROOT
BRANCH   1  16
ATOM     15  N   UNL     1       2.321   6.726  19.753  0.00  0.00    +0.000 N 
ATOM     16  C   UNL     1       2.919   5.483  19.422  0.00  0.00    +0.000 C 
ATOM     17  O   UNL     1       2.521   4.448  19.963  0.00  0.00    +0.000 OA
BRANCH  15  18
ATOM     18  C   UNL     1       2.556   7.944  18.967  0.00  0.00    +0.000 C 
ATOM     19  C   UNL     1       1.653   8.282  17.794  0.00  0.00    +0.000 C 
ENDBRANCH  15  18
BRANCH  15  20
ATOM     20  C   UNL     1       1.250   6.686  20.763  0.00  0.00    +0.000 C 
BRANCH  20  21
ATOM     21  C   UNL     1       1.062   7.980  21.569  0.00  0.00    +0.000 C 
BRANCH  21  23
ATOM     22  C   UNL     1      -0.065  10.179  21.158  0.00  0.00    +0.000 C 
ATOM     23  C   UNL     1      -0.278   8.680  21.344  0.00  0.00    +0.000 C 
ENDBRANCH  21  23
ENDBRANCH  20  21
ENDBRANCH  15  20
ENDBRANCH   1  16
BRANCH   4  24
ATOM     24  O   UNL     1       8.120   6.837  17.591  0.00  0.00    +0.000 OA
ATOM     25  H   UNL     1       8.678   6.200  18.058  0.00  0.00    +0.000 HD
ENDBRANCH   4  24
TORSDOF 6
ENDMDL
MODEL 9
REMARK VINA RESULT:      -6.5      5.817      8.536
REMARK  Name = 
REMARK  9 active torsions:
REMARK  status: ('A' for Active; 'I' for Inactive)
REMARK    1  A    between atoms: C_1  and  C_2
REMARK    2  A    between atoms: C_2  and  C_3
REMARK    3  A    between atoms: C_3  and  C_4
REMARK    4  A    between atoms: C_4  and  N_5
REMARK    5  A    between atoms: N_5  and  C_6
REMARK    6  A    between atoms: C_6  and  C_7
REMARK    7  A    between atoms: C_8  and  C_10
REMARK    8  A    between atoms: C_13  and  O_14
REMARK    9  A    between atoms: C_19  and  C_20
REMARK                            x       y       z     vdW  Elec       q    Type
REMARK                         _______ _______ _______ _____ _____    ______ ____
ROOT
ATOM      1  C   UNL     1       0.297  10.133  21.314  0.00  0.00    +0.000 A 
ATOM      2  C   UNL     1       0.912  10.427  20.113  0.00  0.00    +0.000 A 
ATOM      3  C   UNL     1       1.434   9.276  19.427  0.00  0.00    +0.000 A 
ATOM      4  C   UNL     1       2.011   9.141  18.153  0.00  0.00    +0.000 A 
ATOM      5  N   UNL     1       2.499   7.971  17.712  0.00  0.00    +0.000 NA
ATOM      6  C   UNL     1       2.472   6.896  18.505  0.00  0.00    +0.000 A 
ATOM      7  C   UNL     1       3.027   5.709  18.053  0.00  0.00    +0.000 A 
ATOM      8  C   UNL     1       3.054   4.553  18.843  0.00  0.00    +0.000 A 
ATOM      9  C   UNL     1       2.505   4.564  20.131  0.00  0.00    +0.000 A 
ATOM     10  C   UNL     1       2.550   3.351  21.011  0.00  0.00    +0.000 C 
ATOM     11  C   UNL     1       1.919   5.742  20.600  0.00  0.00    +0.000 A 
ATOM     12  C   UNL     1       1.909   6.903  19.793  0.00  0.00    +0.000 A 
ATOM     13  C   UNL     1       1.356   8.137  20.231  0.00  0.00    +0.000 A 
ATOM     14  S   UNL     1       0.545   8.490  21.714  0.00  0.00    +0.000 S 
ENDROOT
BRANCH   1  16
ATOM     15  N   UNL     1      -1.258  12.030  21.784  0.00  0.00    +0.000 N 
ATOM     16  C   UNL     1      -0.446  10.972  22.268  0.00  0.00    +0.000 C 
ATOM     17  O   UNL     1      -0.391  10.745  23.479  0.00  0.00    +0.000 OA
BRANCH  15  18
ATOM     18  C   UNL     1      -1.576  12.187  20.360  0.00  0.00    +0.000 C 
ATOM     19  C   UNL     1      -1.186  13.457  19.625  0.00  0.00    +0.000 C 
ENDBRANCH  15  18
BRANCH  15  20
ATOM     20  C   UNL     1      -1.981  12.813  22.801  0.00  0.00    +0.000 C 
BRANCH  20  21
ATOM     21  C   UNL     1      -3.442  12.398  23.029  0.00  0.00    +0.000 C 
BRANCH  21  23
ATOM     22  C   UNL     1      -3.467  14.214  24.753  0.00  0.00    +0.000 C 
ATOM     23  C   UNL     1      -4.031  12.852  24.365  0.00  0.00    +0.000 C 
ENDBRANCH  21  23
ENDBRANCH  20  21
ENDBRANCH  15  20
ENDBRANCH   1  16
BRANCH   4  24
ATOM     24  O   UNL     1       2.107  10.178  17.258  0.00  0.00    +0.000 OA
ATOM     25  H   UNL     1       3.008  10.524  17.302  0.00  0.00    +0.000 HD
ENDBRANCH   4  24
TORSDOF 6
ENDMDL
