MODEL 1
REMARK VINA RESULT:      -8.4      0.000      0.000
REMARK  Name = 
REMARK  10 active torsions:
REMARK  status: ('A' for Active; 'I' for Inactive)
REMARK    1  A    between atoms: C_1  and  C_2
REMARK    2  A    between atoms: C_2  and  C_3
REMARK    3  A    between atoms: C_2  and  C_4
REMARK    4  A    between atoms: C_9  and  C_10
REMARK    5  A    between atoms: C_16  and  C_17
REMARK    6  A    between atoms: N_19  and  C_20
REMARK    7  A    between atoms: C_20  and  CA_21
REMARK    8  A    between atoms: CA_21  and  N_22
REMARK    9  A    between atoms: CA_21  and  C_23
REMARK   10  A    between atoms: C_23  and  OXT_25
REMARK                            x       y       z     vdW  Elec       q    Type
REMARK                         _______ _______ _______ _____ _____    ______ ____
ROOT
ATOM      1  C   UNL     1       4.030   5.298  18.182  0.00  0.00    +0.000 A 
ATOM      2  C   UNL     1       3.668   4.230  19.050  0.00  0.00    +0.000 A 
ATOM      3  C   UNL     1       2.770   4.313  20.106  0.00  0.00    +0.000 A 
ATOM      4  C   UNL     1       2.102   5.487  20.339  0.00  0.00    +0.000 A 
ATOM      5  C   UNL     1       2.366   6.542  19.473  0.00  0.00    +0.000 A 
ATOM      6  N   UNL     1       1.764   7.762  19.499  0.00  0.00    +0.000 N 
ATOM      7  C   UNL     1       2.192   8.579  18.490  0.00  0.00    +0.000 A 
ATOM      8  C   UNL     1       3.189   7.862  17.833  0.00  0.00    +0.000 A 
ATOM      9  C   UNL     1       3.290   6.522  18.416  0.00  0.00    +0.000 A 
ATOM     10  H   UNL     1       1.045   8.035  20.157  0.00  0.00    +0.000 HD
ENDROOT
BRANCH   1  16
ATOM     11  C   UNL     1       6.363   5.705  17.009  0.00  0.00    +0.000 A 
ATOM     12  C   UNL     1       7.217   5.398  15.915  0.00  0.00    +0.000 A 
ATOM     13  C   UNL     1       6.834   4.543  14.892  0.00  0.00    +0.000 A 
ATOM     14  C   UNL     1       5.597   3.934  14.954  0.00  0.00    +0.000 A 
ATOM     15  C   UNL     1       4.742   4.190  16.036  0.00  0.00    +0.000 A 
ATOM     16  C   UNL     1       5.052   5.096  17.079  0.00  0.00    +0.000 A 
BRANCH  11  18
ATOM     17  C   UNL     1       7.900   5.857  19.017  0.00  0.00    +0.000 C 
ATOM     18  C   UNL     1       6.963   6.638  18.074  0.00  0.00    +0.000 C 
ATOM     19  C   UNL     1       7.760   7.845  17.541  0.00  0.00    +0.000 C 
ENDBRANCH  11  18
ENDBRANCH   1  16
BRANCH   7  20
ATOM     20  C   UNL     1       1.528   9.859  18.394  0.00  0.00    +0.000 C 
ATOM     21  O   UNL     1       2.131  10.839  17.945  0.00  0.00    +0.000 OA
ATOM     22  N   UNL     1       0.236   9.989  18.834  0.00  0.00    +0.000 N 
ATOM     23  H   UNL     1      -0.275   9.166  19.123  0.00  0.00    +0.000 HD
BRANCH  22  24
ATOM     24  C   UNL     1      -0.474  11.256  18.624  0.00  0.00    +0.000 C 
BRANCH  24  25
ATOM     25  CA  UNL     1      -2.009  11.108  18.525  0.00  0.00    +0.000 C 
BRANCH  25  26
ATOM     26  N   UNL     1      -2.793  12.340  18.863  0.00  0.00    +0.000 NA
ATOM     27  H1  UNL     1      -2.263  12.844  19.591  0.00  0.00    +0.000 HD
ATOM     28  H2  UNL     1      -3.609  12.031  19.402  0.00  0.00    +0.000 HD
ENDBRANCH  25  26
BRANCH  25  29
ATOM     29  C   UNL     1      -2.410  10.688  17.103  0.00  0.00    +0.000 C 
ATOM     30  O   UNL     1      -2.882   9.607  16.786  0.00  0.00    +0.000 OA
BRANCH  29  31
ATOM     31  OXT UNL     1      -2.207  11.704  16.220  0.00  0.00    +0.000 OA
ATOM     32  HXT UNL     1      -1.589  11.348  15.530  0.00  0.00    +0.000 HD
ENDBRANCH  29  31
ENDBRANCH  25  29
ENDBRANCH  24  25
ENDBRANCH  22  24
ENDBRANCH   7  20
TORSDOF 8
ENDMDL
MODEL 2
REMARK VINA RESULT:      -8.4      2.246      2.755
REMARK  Name = 
REMARK  10 active torsions:
REMARK  status: ('A' for Active; 'I' for Inactive)
REMARK    1  A    between atoms: C_1  and  C_2
REMARK    2  A    between atoms: C_2  and  C_3
REMARK    3  A    between atoms: C_2  and  C_4
REMARK    4  A    between atoms: C_9  and  C_10
REMARK    5  A    between atoms: C_16  and  C_17
REMARK    6  A    between atoms: N_19  and  C_20
REMARK    7  A    between atoms: C_20  and  CA_21
REMARK    8  A    between atoms: CA_21  and  N_22
REMARK    9  A    between atoms: CA_21  and  C_23
REMARK   10  A    between atoms: C_23  and  OXT_25
REMARK                            x       y       z     vdW  Elec       q    Type
REMARK                         _______ _______ _______ _____ _____    ______ ____
ROOT
ATOM      1  C   UNL     1       4.273   4.756  18.067  0.00  0.00    +0.000 A 
ATOM      2  C   UNL     1       4.034   3.532  18.750  0.00  0.00    +0.000 A 
ATOM      3  C   UNL     1       3.191   3.362  19.841  0.00  0.00    +0.000 A 
ATOM      4  C   UNL     1       2.456   4.424  20.301  0.00  0.00    +0.000 A 
ATOM      5  C   UNL     1       2.599   5.628  19.621  0.00  0.00    +0.000 A 
ATOM      6  N   UNL     1       1.915   6.775  19.884  0.00  0.00    +0.000 N 
ATOM      7  C   UNL     1       2.230   7.783  19.016  0.00  0.00    +0.000 A 
ATOM      8  C   UNL     1       3.237   7.269  18.204  0.00  0.00    +0.000 A 
ATOM      9  C   UNL     1       3.463   5.861  18.540  0.00  0.00    +0.000 A 
ATOM     10  H   UNL     1       1.215   6.875  20.608  0.00  0.00    +0.000 HD
ENDROOT
BRANCH   1  16
ATOM     11  C   UNL     1       6.440   5.640  16.838  0.00  0.00    +0.000 A 
ATOM     12  C   UNL     1       7.263   5.579  15.681  0.00  0.00    +0.000 A 
ATOM     13  C   UNL     1       6.956   4.774  14.594  0.00  0.00    +0.000 A 
ATOM     14  C   UNL     1       5.835   3.971  14.648  0.00  0.00    +0.000 A 
ATOM     15  C   UNL     1       5.018   3.984  15.788  0.00  0.00    +0.000 A 
ATOM     16  C   UNL     1       5.246   4.825  16.904  0.00  0.00    +0.000 A 
BRANCH  11  18
ATOM     17  C   UNL     1       7.847   5.764  18.942  0.00  0.00    +0.000 C 
ATOM     18  C   UNL     1       6.951   6.553  17.966  0.00  0.00    +0.000 C 
ATOM     19  C   UNL     1       7.751   7.793  17.519  0.00  0.00    +0.000 C 
ENDBRANCH  11  18
ENDBRANCH   1  16
BRANCH   7  20
ATOM     20  C   UNL     1       1.474   9.004  19.171  0.00  0.00    +0.000 C 
ATOM     21  O   UNL     1       1.410   9.818  18.242  0.00  0.00    +0.000 OA
ATOM     22  N   UNL     1       0.853   9.274  20.364  0.00  0.00    +0.000 N 
ATOM     23  H   UNL     1       0.842   8.568  21.088  0.00  0.00    +0.000 HD
BRANCH  22  24
ATOM     24  C   UNL     1      -0.012  10.454  20.478  0.00  0.00    +0.000 C 
BRANCH  24  25
ATOM     25  CA  UNL     1      -0.197  10.961  21.925  0.00  0.00    +0.000 C 
BRANCH  25  26
ATOM     26  N   UNL     1      -1.551  11.521  22.238  0.00  0.00    +0.000 NA
ATOM     27  H1  UNL     1      -2.200  10.722  22.302  0.00  0.00    +0.000 HD
ATOM     28  H2  UNL     1      -1.888  11.973  21.382  0.00  0.00    +0.000 HD
ENDBRANCH  25  26
BRANCH  25  29
ATOM     29  C   UNL     1       0.069   9.824  22.924  0.00  0.00    +0.000 C 
ATOM     30  O   UNL     1       1.106   9.647  23.544  0.00  0.00    +0.000 OA
BRANCH  29  31
ATOM     31  OXT UNL     1      -1.033   9.037  23.068  0.00  0.00    +0.000 OA
ATOM     32  HXT UNL     1      -1.589   9.470  23.766  0.00  0.00    +0.000 HD
ENDBRANCH  29  31
ENDBRANCH  25  29
ENDBRANCH  24  25
ENDBRANCH  22  24
ENDBRANCH   7  20
TORSDOF 8
ENDMDL
MODEL 3
REMARK VINA RESULT:      -8.2      1.905      2.326
REMARK  Name = 
REMARK  10 active torsions:
REMARK  status: ('A' for Active; 'I' for Inactive)
REMARK    1  A    between atoms: C_1  and  C_2
REMARK    2  A    between atoms: C_2  and  C_3
REMARK    3  A    between atoms: C_2  and  C_4
REMARK    4  A    between atoms: C_9  and  C_10
REMARK    5  A    between atoms: C_16  and  C_17
REMARK    6  A    between atoms: N_19  and  C_20
REMARK    7  A    between atoms: C_20  and  CA_21
REMARK    8  A    between atoms: CA_21  and  N_22
REMARK    9  A    between atoms: CA_21  and  C_23
REMARK   10  A    between atoms: C_23  and  OXT_25
REMARK                            x       y       z     vdW  Elec       q    Type
REMARK                         _______ _______ _______ _____ _____    ______ ____
ROOT
ATOM      1  C   UNL     1       4.350   4.567  18.301  0.00  0.00    +0.000 A 
ATOM      2  C   UNL     1       4.199   3.319  18.965  0.00  0.00    +0.000 A 
ATOM      3  C   UNL     1       3.426   3.091  20.097  0.00  0.00    +0.000 A 
ATOM      4  C   UNL     1       2.678   4.112  20.624  0.00  0.00    +0.000 A 
ATOM      5  C   UNL     1       2.734   5.336  19.967  0.00  0.00    +0.000 A 
ATOM      6  N   UNL     1       2.022   6.449  20.296  0.00  0.00    +0.000 N 
ATOM      7  C   UNL     1       2.248   7.488  19.437  0.00  0.00    +0.000 A 
ATOM      8  C   UNL     1       3.227   7.032  18.557  0.00  0.00    +0.000 A 
ATOM      9  C   UNL     1       3.526   5.628  18.846  0.00  0.00    +0.000 A 
ATOM     10  H   UNL     1       1.362   6.504  21.061  0.00  0.00    +0.000 HD
ENDROOT
BRANCH   1  16
ATOM     11  C   UNL     1       6.401   5.574  16.971  0.00  0.00    +0.000 A 
ATOM     12  C   UNL     1       7.160   5.570  15.770  0.00  0.00    +0.000 A 
ATOM     13  C   UNL     1       6.831   4.770  14.686  0.00  0.00    +0.000 A 
ATOM     14  C   UNL     1       5.753   3.914  14.787  0.00  0.00    +0.000 A 
ATOM     15  C   UNL     1       5.001   3.869  15.970  0.00  0.00    +0.000 A 
ATOM     16  C   UNL     1       5.252   4.702  17.088  0.00  0.00    +0.000 A 
BRANCH  11  18
ATOM     17  C   UNL     1       7.845   5.705  19.050  0.00  0.00    +0.000 C 
ATOM     18  C   UNL     1       6.932   6.491  18.087  0.00  0.00    +0.000 C 
ATOM     19  C   UNL     1       7.724   7.729  17.621  0.00  0.00    +0.000 C 
ENDBRANCH  11  18
ENDBRANCH   1  16
BRANCH   7  20
ATOM     20  C   UNL     1       1.455   8.673  19.664  0.00  0.00    +0.000 C 
ATOM     21  O   UNL     1       0.796   8.790  20.703  0.00  0.00    +0.000 OA
ATOM     22  N   UNL     1       1.410   9.656  18.708  0.00  0.00    +0.000 N 
ATOM     23  H   UNL     1       2.015   9.589  17.900  0.00  0.00    +0.000 HD
BRANCH  22  24
ATOM     24  C   UNL     1       0.702  10.909  18.992  0.00  0.00    +0.000 C 
BRANCH  24  25
ATOM     25  CA  UNL     1       1.542  12.179  18.733  0.00  0.00    +0.000 C 
BRANCH  25  26
ATOM     26  N   UNL     1       2.501  12.088  17.585  0.00  0.00    +0.000 NA
ATOM     27  H1  UNL     1       2.411  11.138  17.192  0.00  0.00    +0.000 HD
ATOM     28  H2  UNL     1       3.442  12.038  17.990  0.00  0.00    +0.000 HD
ENDBRANCH  25  26
BRANCH  25  29
ATOM     29  C   UNL     1       0.621  13.379  18.465  0.00  0.00    +0.000 C 
ATOM     30  O   UNL     1       0.861  14.541  18.753  0.00  0.00    +0.000 OA
BRANCH  29  31
ATOM     31  OXT UNL     1      -0.510  12.988  17.816  0.00  0.00    +0.000 OA
ATOM     32  HXT UNL     1      -1.223  12.953  18.505  0.00  0.00    +0.000 HD
ENDBRANCH  29  31
ENDBRANCH  25  29
ENDBRANCH  24  25
ENDBRANCH  22  24
ENDBRANCH   7  20
TORSDOF 8
ENDMDL
MODEL 4
REMARK VINA RESULT:      -8.1      2.233      2.646
REMARK  Name = 
REMARK  10 active torsions:
REMARK  status: ('A' for Active; 'I' for Inactive)
REMARK    1  A    between atoms: C_1  and  C_2
REMARK    2  A    between atoms: C_2  and  C_3
REMARK    3  A    between atoms: C_2  and  C_4
REMARK    4  A    between atoms: C_9  and  C_10
REMARK    5  A    between atoms: C_16  and  C_17
REMARK    6  A    between atoms: N_19  and  C_20
REMARK    7  A    between atoms: C_20  and  CA_21
REMARK    8  A    between atoms: CA_21  and  N_22
REMARK    9  A    between atoms: CA_21  and  C_23
REMARK   10  A    between atoms: C_23  and  OXT_25
REMARK                            x       y       z     vdW  Elec       q    Type
REMARK                         _______ _______ _______ _____ _____    ______ ____
ROOT
ATOM      1  C   UNL     1       4.359   4.486  18.330  0.00  0.00    +0.000 A 
ATOM      2  C   UNL     1       4.222   3.227  18.978  0.00  0.00    +0.000 A 
ATOM      3  C   UNL     1       3.462   2.979  20.114  0.00  0.00    +0.000 A 
ATOM      4  C   UNL     1       2.714   3.987  20.664  0.00  0.00    +0.000 A 
ATOM      5  C   UNL     1       2.757   5.221  20.024  0.00  0.00    +0.000 A 
ATOM      6  N   UNL     1       2.042   6.324  20.377  0.00  0.00    +0.000 N 
ATOM      7  C   UNL     1       2.252   7.377  19.531  0.00  0.00    +0.000 A 
ATOM      8  C   UNL     1       3.225   6.940  18.634  0.00  0.00    +0.000 A 
ATOM      9  C   UNL     1       3.535   5.533  18.899  0.00  0.00    +0.000 A 
ATOM     10  H   UNL     1       1.389   6.365  21.149  0.00  0.00    +0.000 HD
ENDROOT
BRANCH   1  16
ATOM     11  C   UNL     1       6.384   5.531  16.990  0.00  0.00    +0.000 A 
ATOM     12  C   UNL     1       7.131   5.549  15.781  0.00  0.00    +0.000 A 
ATOM     13  C   UNL     1       6.802   4.754  14.693  0.00  0.00    +0.000 A 
ATOM     14  C   UNL     1       5.736   3.884  14.796  0.00  0.00    +0.000 A 
ATOM     15  C   UNL     1       4.996   3.818  15.986  0.00  0.00    +0.000 A 
ATOM     16  C   UNL     1       5.248   4.643  17.109  0.00  0.00    +0.000 A 
BRANCH  11  18
ATOM     17  C   UNL     1       7.824   5.655  19.072  0.00  0.00    +0.000 C 
ATOM     18  C   UNL     1       6.914   6.445  18.109  0.00  0.00    +0.000 C 
ATOM     19  C   UNL     1       7.709   7.683  17.648  0.00  0.00    +0.000 C 
ENDBRANCH  11  18
ENDBRANCH   1  16
BRANCH   7  20
ATOM     20  C   UNL     1       1.455   8.555  19.783  0.00  0.00    +0.000 C 
ATOM     21  O   UNL     1       0.978   8.753  20.906  0.00  0.00    +0.000 OA
ATOM     22  N   UNL     1       1.201   9.436  18.764  0.00  0.00    +0.000 N 
ATOM     23  H   UNL     1       1.662   9.310  17.873  0.00  0.00    +0.000 HD
BRANCH  22  24
ATOM     24  C   UNL     1       0.494  10.690  19.052  0.00  0.00    +0.000 C 
BRANCH  24  25
ATOM     25  CA  UNL     1       1.402  11.939  19.051  0.00  0.00    +0.000 C 
BRANCH  25  26
ATOM     26  N   UNL     1       0.969  13.043  18.135  0.00  0.00    +0.000 NA
ATOM     27  H1  UNL     1       1.281  12.787  17.185  0.00  0.00    +0.000 HD
ATOM     28  H2  UNL     1       1.582  13.843  18.327  0.00  0.00    +0.000 HD
ENDBRANCH  25  26
BRANCH  25  29
ATOM     29  C   UNL     1       1.494  12.529  20.466  0.00  0.00    +0.000 C 
ATOM     30  O   UNL     1       1.772  13.686  20.739  0.00  0.00    +0.000 OA
BRANCH  29  31
ATOM     31  OXT UNL     1       1.182  11.593  21.404  0.00  0.00    +0.000 OA
ATOM     32  HXT UNL     1       0.192  11.590  21.469  0.00  0.00    +0.000 HD
ENDBRANCH  29  31
ENDBRANCH  25  29
ENDBRANCH  24  25
ENDBRANCH  22  24
ENDBRANCH   7  20
TORSDOF 8
ENDMDL
MODEL 5
REMARK VINA RESULT:      -8.1      1.568      1.905
REMARK  Name = 
REMARK  10 active torsions:
REMARK  status: ('A' for Active; 'I' for Inactive)
REMARK    1  A    between atoms: C_1  and  C_2
REMARK    2  A    between atoms: C_2  and  C_3
REMARK    3  A    between atoms: C_2  and  C_4
REMARK    4  A    between atoms: C_9  and  C_10
REMARK    5  A    between atoms: C_16  and  C_17
REMARK    6  A    between atoms: N_19  and  C_20
REMARK    7  A    between atoms: C_20  and  CA_21
REMARK    8  A    between atoms: CA_21  and  N_22
REMARK    9  A    between atoms: CA_21  and  C_23
REMARK   10  A    between atoms: C_23  and  OXT_25
REMARK                            x       y       z     vdW  Elec       q    Type
REMARK                         _______ _______ _______ _____ _____    ______ ____
ROOT
ATOM      1  C   UNL     1       4.285   4.371  18.362  0.00  0.00    +0.000 A 
ATOM      2  C   UNL     1       4.188   3.051  18.881  0.00  0.00    +0.000 A 
ATOM      3  C   UNL     1       3.494   2.678  20.025  0.00  0.00    +0.000 A 
ATOM      4  C   UNL     1       2.774   3.616  20.717  0.00  0.00    +0.000 A 
ATOM      5  C   UNL     1       2.777   4.910  20.209  0.00  0.00    +0.000 A 
ATOM      6  N   UNL     1       2.078   5.964  20.715  0.00  0.00    +0.000 N 
ATOM      7  C   UNL     1       2.238   7.101  19.974  0.00  0.00    +0.000 A 
ATOM      8  C   UNL     1       3.160   6.770  18.984  0.00  0.00    +0.000 A 
ATOM      9  C   UNL     1       3.489   5.346  19.082  0.00  0.00    +0.000 A 
ATOM     10  H   UNL     1       1.470   5.917  21.522  0.00  0.00    +0.000 HD
ENDROOT
BRANCH   1  16
ATOM     11  C   UNL     1       6.234   5.563  17.032  0.00  0.00    +0.000 A 
ATOM     12  C   UNL     1       6.912   5.714  15.792  0.00  0.00    +0.000 A 
ATOM     13  C   UNL     1       6.518   5.042  14.644  0.00  0.00    +0.000 A 
ATOM     14  C   UNL     1       5.457   4.163  14.711  0.00  0.00    +0.000 A 
ATOM     15  C   UNL     1       4.786   3.966  15.927  0.00  0.00    +0.000 A 
ATOM     16  C   UNL     1       5.103   4.664  17.117  0.00  0.00    +0.000 A 
BRANCH  11  18
ATOM     17  C   UNL     1       7.722   5.439  19.080  0.00  0.00    +0.000 C 
ATOM     18  C   UNL     1       6.829   6.350  18.212  0.00  0.00    +0.000 C 
ATOM     19  C   UNL     1       7.671   7.587  17.840  0.00  0.00    +0.000 C 
ENDBRANCH  11  18
ENDBRANCH   1  16
BRANCH   7  20
ATOM     20  C   UNL     1       1.452   8.239  20.392  0.00  0.00    +0.000 C 
ATOM     21  O   UNL     1       0.945   8.263  21.519  0.00  0.00    +0.000 OA
ATOM     22  N   UNL     1       1.242   9.278  19.523  0.00  0.00    +0.000 N 
ATOM     23  H   UNL     1       1.727   9.287  18.635  0.00  0.00    +0.000 HD
BRANCH  22  24
ATOM     24  C   UNL     1       0.546  10.482  19.990  0.00  0.00    +0.000 C 
BRANCH  24  25
ATOM     25  CA  UNL     1       0.387  11.576  18.911  0.00  0.00    +0.000 C 
BRANCH  25  26
ATOM     26  N   UNL     1       1.540  11.711  17.963  0.00  0.00    +0.000 NA
ATOM     27  H1  UNL     1       2.029  12.587  18.207  0.00  0.00    +0.000 HD
ATOM     28  H2  UNL     1       1.144  11.963  17.051  0.00  0.00    +0.000 HD
ENDBRANCH  25  26
BRANCH  25  29
ATOM     29  C   UNL     1      -0.869  11.311  18.067  0.00  0.00    +0.000 C 
ATOM     30  O   UNL     1      -1.443  10.238  17.961  0.00  0.00    +0.000 OA
BRANCH  29  31
ATOM     31  OXT UNL     1      -1.301  12.453  17.466  0.00  0.00    +0.000 OA
ATOM     32  HXT UNL     1      -1.100  12.347  16.500  0.00  0.00    +0.000 HD
ENDBRANCH  29  31
ENDBRANCH  25  29
ENDBRANCH  24  25
ENDBRANCH  22  24
ENDBRANCH   7  20
TORSDOF 8
ENDMDL
MODEL 6
REMARK VINA RESULT:      -8.1      1.554      2.403
REMARK  Name = 
REMARK  10 active torsions:
REMARK  status: ('A' for Active; 'I' for Inactive)
REMARK    1  A    between atoms: C_1  and  C_2
REMARK    2  A    between atoms: C_2  and  C_3
REMARK    3  A    between atoms: C_2  and  C_4
REMARK    4  A    between atoms: C_9  and  C_10
REMARK    5  A    between atoms: C_16  and  C_17
REMARK    6  A    between atoms: N_19  and  C_20
REMARK    7  A    between atoms: C_20  and  CA_21
REMARK    8  A    between atoms: CA_21  and  N_22
REMARK    9  A    between atoms: CA_21  and  C_23
REMARK   10  A    between atoms: C_23  and  OXT_25
REMARK                            x       y       z     vdW  Elec       q    Type
REMARK                         _______ _______ _______ _____ _____    ______ ____
ROOT
ATOM      1  C   UNL     1       4.007   5.478  18.282  0.00  0.00    +0.000 A 
ATOM      2  C   UNL     1       3.739   4.471  19.251  0.00  0.00    +0.000 A 
ATOM      3  C   UNL     1       2.872   4.594  20.329  0.00  0.00    +0.000 A 
ATOM      4  C   UNL     1       2.142   5.744  20.486  0.00  0.00    +0.000 A 
ATOM      5  C   UNL     1       2.314   6.732  19.523  0.00  0.00    +0.000 A 
ATOM      6  N   UNL     1       1.640   7.914  19.468  0.00  0.00    +0.000 N 
ATOM      7  C   UNL     1       1.986   8.663  18.378  0.00  0.00    +0.000 A 
ATOM      8  C   UNL     1       3.002   7.950  17.748  0.00  0.00    +0.000 A 
ATOM      9  C   UNL     1       3.202   6.674  18.438  0.00  0.00    +0.000 A 
ATOM     10  H   UNL     1       0.928   8.202  20.127  0.00  0.00    +0.000 HD
ENDROOT
BRANCH   1  16
ATOM     11  C   UNL     1       6.331   5.806  17.067  0.00  0.00    +0.000 A 
ATOM     12  C   UNL     1       7.156   5.468  15.960  0.00  0.00    +0.000 A 
ATOM     13  C   UNL     1       6.728   4.622  14.948  0.00  0.00    +0.000 A 
ATOM     14  C   UNL     1       5.474   4.052  15.033  0.00  0.00    +0.000 A 
ATOM     15  C   UNL     1       4.647   4.340  16.129  0.00  0.00    +0.000 A 
ATOM     16  C   UNL     1       5.003   5.239  17.163  0.00  0.00    +0.000 A 
BRANCH  11  18
ATOM     17  C   UNL     1       7.916   5.920  19.041  0.00  0.00    +0.000 C 
ATOM     18  C   UNL     1       6.979   6.725  18.118  0.00  0.00    +0.000 C 
ATOM     19  C   UNL     1       7.795   7.910  17.566  0.00  0.00    +0.000 C 
ENDBRANCH  11  18
ENDBRANCH   1  16
BRANCH   7  20
ATOM     20  C   UNL     1       1.243   9.889  18.198  0.00  0.00    +0.000 C 
ATOM     21  O   UNL     1       0.052   9.851  17.871  0.00  0.00    +0.000 OA
ATOM     22  N   UNL     1       1.873  11.097  18.359  0.00  0.00    +0.000 N 
ATOM     23  H   UNL     1       2.823  11.118  18.706  0.00  0.00    +0.000 HD
BRANCH  22  24
ATOM     24  C   UNL     1       1.089  12.335  18.295  0.00  0.00    +0.000 C 
BRANCH  24  25
ATOM     25  CA  UNL     1       0.452  12.748  19.640  0.00  0.00    +0.000 C 
BRANCH  25  26
ATOM     26  N   UNL     1      -0.877  12.121  19.937  0.00  0.00    +0.000 NA
ATOM     27  H1  UNL     1      -1.486  12.868  20.307  0.00  0.00    +0.000 HD
ATOM     28  H2  UNL     1      -0.750  11.546  20.777  0.00  0.00    +0.000 HD
ENDBRANCH  25  26
BRANCH  25  29
ATOM     29  C   UNL     1       1.393  12.397  20.802  0.00  0.00    +0.000 C 
ATOM     30  O   UNL     1       2.384  13.028  21.132  0.00  0.00    +0.000 OA
BRANCH  29  31
ATOM     31  OXT UNL     1       0.956  11.290  21.464  0.00  0.00    +0.000 OA
ATOM     32  HXT UNL     1       1.093  10.529  20.843  0.00  0.00    +0.000 HD
ENDBRANCH  29  31
ENDBRANCH  25  29
ENDBRANCH  24  25
ENDBRANCH  22  24
ENDBRANCH   7  20
TORSDOF 8
ENDMDL
MODEL 7
REMARK VINA RESULT:      -8.0      1.552      1.905
REMARK  Name = 
REMARK  10 active torsions:
REMARK  status: ('A' for Active; 'I' for Inactive)
REMARK    1  A    between atoms: C_1  and  C_2
REMARK    2  A    between atoms: C_2  and  C_3
REMARK    3  A    between atoms: C_2  and  C_4
REMARK    4  A    between atoms: C_9  and  C_10
REMARK    5  A    between atoms: C_16  and  C_17
REMARK    6  A    between atoms: N_19  and  C_20
REMARK    7  A    between atoms: C_20  and  CA_21
REMARK    8  A    between atoms: CA_21  and  N_22
REMARK    9  A    between atoms: CA_21  and  C_23
REMARK   10  A    between atoms: C_23  and  OXT_25
REMARK                            x       y       z     vdW  Elec       q    Type
REMARK                         _______ _______ _______ _____ _____    ______ ____
ROOT
ATOM      1  C   UNL     1       4.444   4.335  18.336  0.00  0.00    +0.000 A 
ATOM      2  C   UNL     1       4.345   3.046  18.930  0.00  0.00    +0.000 A 
ATOM      3  C   UNL     1       3.617   2.731  20.070  0.00  0.00    +0.000 A 
ATOM      4  C   UNL     1       2.863   3.699  20.682  0.00  0.00    +0.000 A 
ATOM      5  C   UNL     1       2.867   4.961  20.098  0.00  0.00    +0.000 A 
ATOM      6  N   UNL     1       2.140   6.033  20.516  0.00  0.00    +0.000 N 
ATOM      7  C   UNL     1       2.311   7.126  19.714  0.00  0.00    +0.000 A 
ATOM      8  C   UNL     1       3.270   6.750  18.777  0.00  0.00    +0.000 A 
ATOM      9  C   UNL     1       3.613   5.339  18.971  0.00  0.00    +0.000 A 
ATOM     10  H   UNL     1       1.504   6.025  21.303  0.00  0.00    +0.000 HD
ENDROOT
BRANCH   1  16
ATOM     11  C   UNL     1       6.400   5.497  16.993  0.00  0.00    +0.000 A 
ATOM     12  C   UNL     1       7.122   5.582  15.771  0.00  0.00    +0.000 A 
ATOM     13  C   UNL     1       6.799   4.810  14.664  0.00  0.00    +0.000 A 
ATOM     14  C   UNL     1       5.768   3.898  14.759  0.00  0.00    +0.000 A 
ATOM     15  C   UNL     1       5.057   3.767  15.960  0.00  0.00    +0.000 A 
ATOM     16  C   UNL     1       5.300   4.564  17.105  0.00  0.00    +0.000 A 
BRANCH  11  18
ATOM     17  C   UNL     1       7.854   5.600  19.067  0.00  0.00    +0.000 C 
ATOM     18  C   UNL     1       6.919   6.394  18.131  0.00  0.00    +0.000 C 
ATOM     19  C   UNL     1       7.683   7.661  17.695  0.00  0.00    +0.000 C 
ENDBRANCH  11  18
ENDBRANCH   1  16
BRANCH   7  20
ATOM     20  C   UNL     1       1.497   8.275  20.037  0.00  0.00    +0.000 C 
ATOM     21  O   UNL     1       0.940   8.352  21.137  0.00  0.00    +0.000 OA
ATOM     22  N   UNL     1       1.317   9.266  19.106  0.00  0.00    +0.000 N 
ATOM     23  H   UNL     1       1.841   9.235  18.241  0.00  0.00    +0.000 HD
BRANCH  22  24
ATOM     24  C   UNL     1       0.592  10.485  19.479  0.00  0.00    +0.000 C 
BRANCH  24  25
ATOM     25  CA  UNL     1      -0.492  10.908  18.463  0.00  0.00    +0.000 C 
BRANCH  25  26
ATOM     26  N   UNL     1      -1.795  10.177  18.576  0.00  0.00    +0.000 NA
ATOM     27  H1  UNL     1      -1.647   9.235  18.181  0.00  0.00    +0.000 HD
ATOM     28  H2  UNL     1      -2.423  10.582  17.873  0.00  0.00    +0.000 HD
ENDBRANCH  25  26
BRANCH  25  29
ATOM     29  C   UNL     1      -0.796  12.407  18.605  0.00  0.00    +0.000 C 
ATOM     30  O   UNL     1      -0.796  13.039  19.649  0.00  0.00    +0.000 OA
BRANCH  29  31
ATOM     31  OXT UNL     1      -1.034  12.973  17.389  0.00  0.00    +0.000 OA
ATOM     32  HXT UNL     1      -0.579  13.854  17.403  0.00  0.00    +0.000 HD
ENDBRANCH  29  31
ENDBRANCH  25  29
ENDBRANCH  24  25
ENDBRANCH  22  24
ENDBRANCH   7  20
TORSDOF 8
ENDMDL
MODEL 8
REMARK VINA RESULT:      -8.0      1.519      1.935
REMARK  Name = 
REMARK  10 active torsions:
REMARK  status: ('A' for Active; 'I' for Inactive)
REMARK    1  A    between atoms: C_1  and  C_2
REMARK    2  A    between atoms: C_2  and  C_3
REMARK    3  A    between atoms: C_2  and  C_4
REMARK    4  A    between atoms: C_9  and  C_10
REMARK    5  A    between atoms: C_16  and  C_17
REMARK    6  A    between atoms: N_19  and  C_20
REMARK    7  A    between atoms: C_20  and  CA_21
REMARK    8  A    between atoms: CA_21  and  N_22
REMARK    9  A    between atoms: CA_21  and  C_23
REMARK   10  A    between atoms: C_23  and  OXT_25
REMARK                            x       y       z     vdW  Elec       q    Type
REMARK                         _______ _______ _______ _____ _____    ______ ____
ROOT
ATOM      1  C   UNL     1       4.092   5.262  18.158  0.00  0.00    +0.000 A 
ATOM      2  C   UNL     1       3.741   4.192  19.026  0.00  0.00    +0.000 A 
ATOM      3  C   UNL     1       2.842   4.266  20.083  0.00  0.00    +0.000 A 
ATOM      4  C   UNL     1       2.165   5.435  20.316  0.00  0.00    +0.000 A 
ATOM      5  C   UNL     1       2.418   6.491  19.449  0.00  0.00    +0.000 A 
ATOM      6  N   UNL     1       1.805   7.706  19.475  0.00  0.00    +0.000 N 
ATOM      7  C   UNL     1       2.225   8.527  18.466  0.00  0.00    +0.000 A 
ATOM      8  C   UNL     1       3.228   7.818  17.808  0.00  0.00    +0.000 A 
ATOM      9  C   UNL     1       3.341   6.479  18.392  0.00  0.00    +0.000 A 
ATOM     10  H   UNL     1       1.084   7.973  20.134  0.00  0.00    +0.000 HD
ENDROOT
BRANCH   1  16
ATOM     11  C   UNL     1       6.405   5.718  16.963  0.00  0.00    +0.000 A 
ATOM     12  C   UNL     1       7.264   5.415  15.872  0.00  0.00    +0.000 A 
ATOM     13  C   UNL     1       6.904   4.525  14.870  0.00  0.00    +0.000 A 
ATOM     14  C   UNL     1       5.687   3.879  14.951  0.00  0.00    +0.000 A 
ATOM     15  C   UNL     1       4.830   4.131  16.032  0.00  0.00    +0.000 A 
ATOM     16  C   UNL     1       5.115   5.069  17.054  0.00  0.00    +0.000 A 
BRANCH  11  18
ATOM     17  C   UNL     1       7.912   5.954  18.987  0.00  0.00    +0.000 C 
ATOM     18  C   UNL     1       6.980   6.693  18.006  0.00  0.00    +0.000 C 
ATOM     19  C   UNL     1       7.772   7.890  17.443  0.00  0.00    +0.000 C 
ENDBRANCH  11  18
ENDBRANCH   1  16
BRANCH   7  20
ATOM     20  C   UNL     1       1.549   9.800  18.370  0.00  0.00    +0.000 C 
ATOM     21  O   UNL     1       2.123  10.772  17.867  0.00  0.00    +0.000 OA
ATOM     22  N   UNL     1       0.279   9.936  18.869  0.00  0.00    +0.000 N 
ATOM     23  H   UNL     1      -0.212   9.117  19.203  0.00  0.00    +0.000 HD
BRANCH  22  24
ATOM     24  C   UNL     1      -0.448  11.193  18.662  0.00  0.00    +0.000 C 
BRANCH  24  25
ATOM     25  CA  UNL     1      -0.399  12.155  19.869  0.00  0.00    +0.000 C 
BRANCH  25  26
ATOM     26  N   UNL     1      -1.653  12.937  20.115  0.00  0.00    +0.000 NA
ATOM     27  H1  UNL     1      -1.563  13.363  21.051  0.00  0.00    +0.000 HD
ATOM     28  H2  UNL     1      -2.398  12.253  20.289  0.00  0.00    +0.000 HD
ENDBRANCH  25  26
BRANCH  25  29
ATOM     29  C   UNL     1      -0.087  11.376  21.156  0.00  0.00    +0.000 C 
ATOM     30  O   UNL     1      -0.882  10.702  21.792  0.00  0.00    +0.000 OA
BRANCH  29  31
ATOM     31  OXT UNL     1       1.228  11.498  21.491  0.00  0.00    +0.000 OA
ATOM     32  HXT UNL     1       1.460  10.673  21.991  0.00  0.00    +0.000 HD
ENDBRANCH  29  31
ENDBRANCH  25  29
ENDBRANCH  24  25
ENDBRANCH  22  24
ENDBRANCH   7  20
TORSDOF 8
ENDMDL
MODEL 9
REMARK VINA RESULT:      -8.0      1.268      1.504
REMARK  Name = 
REMARK  10 active torsions:
REMARK  status: ('A' for Active; 'I' for Inactive)
REMARK    1  A    between atoms: C_1  and  C_2
REMARK    2  A    between atoms: C_2  and  C_3
REMARK    3  A    between atoms: C_2  and  C_4
REMARK    4  A    between atoms: C_9  and  C_10
REMARK    5  A    between atoms: C_16  and  C_17
REMARK    6  A    between atoms: N_19  and  C_20
REMARK    7  A    between atoms: C_20  and  CA_21
REMARK    8  A    between atoms: CA_21  and  N_22
REMARK    9  A    between atoms: CA_21  and  C_23
REMARK   10  A    between atoms: C_23  and  OXT_25
REMARK                            x       y       z     vdW  Elec       q    Type
REMARK                         _______ _______ _______ _____ _____    ______ ____
ROOT
ATOM      1  C   UNL     1       4.236   4.465  18.272  0.00  0.00    +0.000 A 
ATOM      2  C   UNL     1       4.042   3.173  18.835  0.00  0.00    +0.000 A 
ATOM      3  C   UNL     1       3.291   2.886  19.968  0.00  0.00    +0.000 A 
ATOM      4  C   UNL     1       2.608   3.892  20.601  0.00  0.00    +0.000 A 
ATOM      5  C   UNL     1       2.705   5.163  20.046  0.00  0.00    +0.000 A 
ATOM      6  N   UNL     1       2.057   6.275  20.489  0.00  0.00    +0.000 N 
ATOM      7  C   UNL     1       2.309   7.372  19.713  0.00  0.00    +0.000 A 
ATOM      8  C   UNL     1       3.240   6.948  18.768  0.00  0.00    +0.000 A 
ATOM      9  C   UNL     1       3.479   5.512  18.929  0.00  0.00    +0.000 A 
ATOM     10  H   UNL     1       1.421   6.296  21.276  0.00  0.00    +0.000 HD
ENDROOT
BRANCH   1  16
ATOM     11  C   UNL     1       6.260   5.532  16.949  0.00  0.00    +0.000 A 
ATOM     12  C   UNL     1       6.990   5.589  15.731  0.00  0.00    +0.000 A 
ATOM     13  C   UNL     1       6.630   4.849  14.614  0.00  0.00    +0.000 A 
ATOM     14  C   UNL     1       5.550   3.994  14.695  0.00  0.00    +0.000 A 
ATOM     15  C   UNL     1       4.827   3.889  15.892  0.00  0.00    +0.000 A 
ATOM     16  C   UNL     1       5.109   4.660  17.046  0.00  0.00    +0.000 A 
BRANCH  11  18
ATOM     17  C   UNL     1       7.732   5.540  19.011  0.00  0.00    +0.000 C 
ATOM     18  C   UNL     1       6.822   6.386  18.098  0.00  0.00    +0.000 C 
ATOM     19  C   UNL     1       7.631   7.630  17.679  0.00  0.00    +0.000 C 
ENDBRANCH  11  18
ENDBRANCH   1  16
BRANCH   7  20
ATOM     20  C   UNL     1       1.580   8.569  20.062  0.00  0.00    +0.000 C 
ATOM     21  O   UNL     1       1.334   8.823  21.246  0.00  0.00    +0.000 OA
ATOM     22  N   UNL     1       1.133   9.407  19.073  0.00  0.00    +0.000 N 
ATOM     23  H   UNL     1       1.409   9.235  18.115  0.00  0.00    +0.000 HD
BRANCH  22  24
ATOM     24  C   UNL     1       0.500  10.680  19.436  0.00  0.00    +0.000 C 
BRANCH  24  25
ATOM     25  CA  UNL     1      -1.042  10.660  19.362  0.00  0.00    +0.000 C 
BRANCH  25  26
ATOM     26  N   UNL     1      -1.734  11.718  20.167  0.00  0.00    +0.000 NA
ATOM     27  H1  UNL     1      -2.734  11.683  19.914  0.00  0.00    +0.000 HD
ATOM     28  H2  UNL     1      -1.467  12.621  19.759  0.00  0.00    +0.000 HD
ENDBRANCH  25  26
BRANCH  25  29
ATOM     29  C   UNL     1      -1.506  10.817  17.906  0.00  0.00    +0.000 C 
ATOM     30  O   UNL     1      -2.158  11.749  17.462  0.00  0.00    +0.000 OA
BRANCH  29  31
ATOM     31  OXT UNL     1      -1.059   9.784  17.140  0.00  0.00    +0.000 OA
ATOM     32  HXT UNL     1      -0.976  10.143  16.218  0.00  0.00    +0.000 HD
ENDBRANCH  29  31
ENDBRANCH  25  29
ENDBRANCH  24  25
ENDBRANCH  22  24
ENDBRANCH   7  20
TORSDOF 8
ENDMDL
