MODEL 1
REMARK VINA RESULT:      -6.8      0.000      0.000
REMARK  Name = 
REMARK  8 active torsions:
REMARK  status: ('A' for Active; 'I' for Inactive)
REMARK    1  A    between atoms: C_1  and  C_2
REMARK    2  A    between atoms: C_2  and  N_3
REMARK    3  A    between atoms: C_2  and  C_14
REMARK    4  A    between atoms: N_3  and  S_4
REMARK    5  A    between atoms: S_4  and  C_7
REMARK    6  A    between atoms: C_14  and  C_15
REMARK    7  A    between atoms: C_14  and  N_20
REMARK    8  A    between atoms: N_23  and  C_24
REMARK                            x       y       z     vdW  Elec       q    Type
REMARK                         _______ _______ _______ _____ _____    ______ ____
ROOT
ATOM      1  C   UNL     1       2.162   8.583  17.844  0.00  0.00    +0.000 C 
ATOM      2  C   UNL     1       2.337   7.651  19.036  0.00  0.00    +0.000 C 
ENDROOT
BRANCH   2   3
ATOM      3  N   UNL     1       1.108   7.529  19.873  0.00  0.00    +0.000 NA
ATOM      4  H   UNL     1       0.898   6.580  20.186  0.00  0.00    +0.000 HD
BRANCH   3   5
ATOM      5  S   UNL     1       0.722   8.696  21.025  0.00  0.00    +0.000 S 
ATOM      6  O   UNL     1      -0.510   8.269  21.649  0.00  0.00    +0.000 OA
ATOM      7  O   UNL     1       1.910   8.969  21.795  0.00  0.00    +0.000 OA
BRANCH   5   8
ATOM      8  C   UNL     1       0.335  10.117  20.023  0.00  0.00    +0.000 A 
ATOM      9  C   UNL     1       1.139  11.259  20.108  0.00  0.00    +0.000 A 
ATOM     10  C   UNL     1       0.769  12.409  19.408  0.00  0.00    +0.000 A 
ATOM     11  C   UNL     1      -0.388  12.403  18.633  0.00  0.00    +0.000 A 
ATOM     12  F   UNL     1      -0.758  13.520  17.993  0.00  0.00    +0.000 F 
ATOM     13  C   UNL     1      -1.172  11.261  18.519  0.00  0.00    +0.000 A 
ATOM     14  C   UNL     1      -0.798  10.100  19.197  0.00  0.00    +0.000 A 
ENDBRANCH   5   8
ENDBRANCH   3   5
ENDBRANCH   2   3
BRANCH   2  15
ATOM     15  C   UNL     1       2.855   6.221  18.578  0.00  0.00    +0.000 C 
BRANCH  15  16
ATOM     16  N   UNL     1       4.357   6.158  18.526  0.00  0.00    +0.000 NA
ATOM     17  C   UNL     1       4.887   6.776  17.282  0.00  0.00    +0.000 C 
ATOM     18  C   UNL     1       6.426   6.660  17.153  0.00  0.00    +0.000 C 
ATOM     19  N   UNL     1       6.960   5.291  17.259  0.00  0.00    +0.000 NA
ATOM     20  C   UNL     1       6.688   4.503  16.059  0.00  0.00    +0.000 C 
ATOM     21  C   UNL     1       6.393   4.659  18.462  0.00  0.00    +0.000 C 
ATOM     22  C   UNL     1       4.856   4.757  18.573  0.00  0.00    +0.000 C 
ENDBRANCH  15  16
BRANCH  15  23
ATOM     23  C   UNL     1       2.276   5.103  19.465  0.00  0.00    +0.000 A 
ATOM     24  C   UNL     1       2.337   4.927  20.837  0.00  0.00    +0.000 A 
ATOM     25  C   UNL     1       1.776   3.691  21.268  0.00  0.00    +0.000 A 
ATOM     26  C   UNL     1       1.286   2.955  20.217  0.00  0.00    +0.000 A 
ATOM     27  S   UNL     1       1.376   3.813  18.742  0.00  0.00    +0.000 S 
ENDBRANCH  15  23
ENDBRANCH   2  15
TORSDOF 6
ENDMDL
MODEL 2
REMARK VINA RESULT:      -6.7      0.686      1.282
REMARK  Name = 
REMARK  8 active torsions:
REMARK  status: ('A' for Active; 'I' for Inactive)
REMARK    1  A    between atoms: C_1  and  C_2
REMARK    2  A    between atoms: C_2  and  N_3
REMARK    3  A    between atoms: C_2  and  C_14
REMARK    4  A    between atoms: N_3  and  S_4
REMARK    5  A    between atoms: S_4  and  C_7
REMARK    6  A    between atoms: C_14  and  C_15
REMARK    7  A    between atoms: C_14  and  N_20
REMARK    8  A    between atoms: N_23  and  C_24
REMARK                            x       y       z     vdW  Elec       q    Type
REMARK                         _______ _______ _______ _____ _____    ______ ____
ROOT
ATOM      1  C   UNL     1       2.375   8.811  18.115  0.00  0.00    +0.000 C 
ATOM      2  C   UNL     1       2.337   7.660  19.114  0.00  0.00    +0.000 C 
ENDROOT
BRANCH   2   3
ATOM      3  N   UNL     1       1.025   7.531  19.813  0.00  0.00    +0.000 NA
ATOM      4  H   UNL     1       0.727   6.570  19.986  0.00  0.00    +0.000 HD
BRANCH   3   5
ATOM      5  S   UNL     1       0.601   8.580  21.062  0.00  0.00    +0.000 S 
ATOM      6  O   UNL     1      -0.607   8.050  21.654  0.00  0.00    +0.000 OA
ATOM      7  O   UNL     1       1.783   8.840  21.845  0.00  0.00    +0.000 OA
BRANCH   5   8
ATOM      8  C   UNL     1       0.144  10.062  20.183  0.00  0.00    +0.000 A 
ATOM      9  C   UNL     1      -0.880  10.009  19.231  0.00  0.00    +0.000 A 
ATOM     10  C   UNL     1      -1.159  11.142  18.464  0.00  0.00    +0.000 A 
ATOM     11  C   UNL     1      -0.422  12.307  18.660  0.00  0.00    +0.000 A 
ATOM     12  F   UNL     1      -0.669  13.380  17.897  0.00  0.00    +0.000 F 
ATOM     13  C   UNL     1       0.574  12.374  19.629  0.00  0.00    +0.000 A 
ATOM     14  C   UNL     1       0.845  11.254  20.414  0.00  0.00    +0.000 A 
ENDBRANCH   5   8
ENDBRANCH   3   5
ENDBRANCH   2   3
BRANCH   2  15
ATOM     15  C   UNL     1       2.750   6.288  18.427  0.00  0.00    +0.000 C 
BRANCH  15  16
ATOM     16  N   UNL     1       4.242   6.149  18.305  0.00  0.00    +0.000 NA
ATOM     17  C   UNL     1       4.730   6.637  16.988  0.00  0.00    +0.000 C 
ATOM     18  C   UNL     1       6.254   6.437  16.791  0.00  0.00    +0.000 C 
ATOM     19  N   UNL     1       6.732   5.057  16.985  0.00  0.00    +0.000 NA
ATOM     20  C   UNL     1       6.360   4.187  15.871  0.00  0.00    +0.000 C 
ATOM     21  C   UNL     1       6.204   4.553  18.263  0.00  0.00    +0.000 C 
ATOM     22  C   UNL     1       4.681   4.734  18.443  0.00  0.00    +0.000 C 
ENDBRANCH  15  16
BRANCH  15  23
ATOM     23  C   UNL     1       2.131   5.084  19.161  0.00  0.00    +0.000 A 
ATOM     24  C   UNL     1       1.388   4.023  18.670  0.00  0.00    +0.000 A 
ATOM     25  C   UNL     1       0.888   3.169  19.693  0.00  0.00    +0.000 A 
ATOM     26  C   UNL     1       1.270   3.589  20.944  0.00  0.00    +0.000 A 
ATOM     27  S   UNL     1       2.339   4.920  20.870  0.00  0.00    +0.000 S 
ENDBRANCH  15  23
ENDBRANCH   2  15
TORSDOF 6
ENDMDL
MODEL 3
REMARK VINA RESULT:      -6.7      4.467      7.744
REMARK  Name = 
REMARK  8 active torsions:
REMARK  status: ('A' for Active; 'I' for Inactive)
REMARK    1  A    between atoms: C_1  and  C_2
REMARK    2  A    between atoms: C_2  and  N_3
REMARK    3  A    between atoms: C_2  and  C_14
REMARK    4  A    between atoms: N_3  and  S_4
REMARK    5  A    between atoms: S_4  and  C_7
REMARK    6  A    between atoms: C_14  and  C_15
REMARK    7  A    between atoms: C_14  and  N_20
REMARK    8  A    between atoms: N_23  and  C_24
REMARK                            x       y       z     vdW  Elec       q    Type
REMARK                         _______ _______ _______ _____ _____    ______ ____
ROOT
ATOM      1  C   UNL     1       5.129   5.467  19.441  0.00  0.00    +0.000 C 
ATOM      2  C   UNL     1       4.662   5.956  18.075  0.00  0.00    +0.000 C 
ENDROOT
BRANCH   2   3
ATOM      3  N   UNL     1       5.266   5.198  16.941  0.00  0.00    +0.000 NA
ATOM      4  H   UNL     1       4.640   5.048  16.148  0.00  0.00    +0.000 HD
BRANCH   3   5
ATOM      5  S   UNL     1       6.861   5.464  16.470  0.00  0.00    +0.000 S 
ATOM      6  O   UNL     1       7.062   6.896  16.479  0.00  0.00    +0.000 OA
ATOM      7  O   UNL     1       7.702   4.572  17.229  0.00  0.00    +0.000 OA
BRANCH   5   8
ATOM      8  C   UNL     1       6.853   4.949  14.764  0.00  0.00    +0.000 A 
ATOM      9  C   UNL     1       5.985   3.929  14.358  0.00  0.00    +0.000 A 
ATOM     10  C   UNL     1       6.059   3.450  13.048  0.00  0.00    +0.000 A 
ATOM     11  C   UNL     1       6.989   3.994  12.166  0.00  0.00    +0.000 A 
ATOM     12  F   UNL     1       7.081   3.506  10.922  0.00  0.00    +0.000 F 
ATOM     13  C   UNL     1       7.830   5.031  12.555  0.00  0.00    +0.000 A 
ATOM     14  C   UNL     1       7.748   5.531  13.855  0.00  0.00    +0.000 A 
ENDBRANCH   5   8
ENDBRANCH   3   5
ENDBRANCH   2   3
BRANCH   2  15
ATOM     15  C   UNL     1       3.077   5.960  17.975  0.00  0.00    +0.000 C 
BRANCH  15  16
ATOM     16  N   UNL     1       2.481   4.667  18.460  0.00  0.00    +0.000 NA
ATOM     17  C   UNL     1       3.251   4.104  19.601  0.00  0.00    +0.000 C 
ATOM     18  C   UNL     1       2.715   2.731  20.078  0.00  0.00    +0.000 C 
ATOM     19  N   UNL     1       2.614   1.702  19.029  0.00  0.00    +0.000 NA
ATOM     20  C   UNL     1       3.924   1.183  18.643  0.00  0.00    +0.000 C 
ATOM     21  C   UNL     1       1.899   2.276  17.878  0.00  0.00    +0.000 C 
ATOM     22  C   UNL     1       2.452   3.633  17.391  0.00  0.00    +0.000 C 
ENDBRANCH  15  16
BRANCH  15  23
ATOM     23  C   UNL     1       2.470   7.169  18.710  0.00  0.00    +0.000 A 
ATOM     24  C   UNL     1       2.106   7.320  20.038  0.00  0.00    +0.000 A 
ATOM     25  C   UNL     1       1.462   8.560  20.305  0.00  0.00    +0.000 A 
ATOM     26  C   UNL     1       1.358   9.338  19.177  0.00  0.00    +0.000 A 
ATOM     27  S   UNL     1       2.159   8.634  17.842  0.00  0.00    +0.000 S 
ENDBRANCH  15  23
ENDBRANCH   2  15
TORSDOF 6
ENDMDL
MODEL 4
REMARK VINA RESULT:      -6.5      1.717      3.550
REMARK  Name = 
REMARK  8 active torsions:
REMARK  status: ('A' for Active; 'I' for Inactive)
REMARK    1  A    between atoms: C_1  and  C_2
REMARK    2  A    between atoms: C_2  and  N_3
REMARK    3  A    between atoms: C_2  and  C_14
REMARK    4  A    between atoms: N_3  and  S_4
REMARK    5  A    between atoms: S_4  and  C_7
REMARK    6  A    between atoms: C_14  and  C_15
REMARK    7  A    between atoms: C_14  and  N_20
REMARK    8  A    between atoms: N_23  and  C_24
REMARK                            x       y       z     vdW  Elec       q    Type
REMARK                         _______ _______ _______ _____ _____    ______ ____
ROOT
ATOM      1  C   UNL     1       1.865   8.206  18.345  0.00  0.00    +0.000 C 
ATOM      2  C   UNL     1       2.203   7.773  19.767  0.00  0.00    +0.000 C 
ENDROOT
BRANCH   2   3
ATOM      3  N   UNL     1       1.019   7.764  20.675  0.00  0.00    +0.000 NA
ATOM      4  H   UNL     1       0.860   6.879  21.159  0.00  0.00    +0.000 HD
BRANCH   3   5
ATOM      5  S   UNL     1       0.645   9.104  21.627  0.00  0.00    +0.000 S 
ATOM      6  O   UNL     1      -0.606   8.804  22.287  0.00  0.00    +0.000 OA
ATOM      7  O   UNL     1       1.827   9.469  22.365  0.00  0.00    +0.000 OA
BRANCH   5   8
ATOM      8  C   UNL     1       0.305  10.360  20.409  0.00  0.00    +0.000 A 
ATOM      9  C   UNL     1       1.129  11.488  20.336  0.00  0.00    +0.000 A 
ATOM     10  C   UNL     1       0.796  12.523  19.460  0.00  0.00    +0.000 A 
ATOM     11  C   UNL     1      -0.347  12.417  18.670  0.00  0.00    +0.000 A 
ATOM     12  F   UNL     1      -0.682  13.428  17.858  0.00  0.00    +0.000 F 
ATOM     13  C   UNL     1      -1.150  11.283  18.715  0.00  0.00    +0.000 A 
ATOM     14  C   UNL     1      -0.813  10.235  19.572  0.00  0.00    +0.000 A 
ENDBRANCH   5   8
ENDBRANCH   3   5
ENDBRANCH   2   3
BRANCH   2  15
ATOM     15  C   UNL     1       2.939   6.366  19.781  0.00  0.00    +0.000 C 
BRANCH  15  16
ATOM     16  N   UNL     1       1.970   5.224  19.653  0.00  0.00    +0.000 NA
ATOM     17  C   UNL     1       2.219   4.178  20.681  0.00  0.00    +0.000 C 
ATOM     18  C   UNL     1       1.291   2.946  20.532  0.00  0.00    +0.000 C 
ATOM     19  N   UNL     1       1.306   2.310  19.204  0.00  0.00    +0.000 NA
ATOM     20  C   UNL     1       2.535   1.553  18.974  0.00  0.00    +0.000 C 
ATOM     21  C   UNL     1       1.113   3.352  18.183  0.00  0.00    +0.000 C 
ATOM     22  C   UNL     1       2.057   4.567  18.322  0.00  0.00    +0.000 C 
ENDBRANCH  15  16
BRANCH  15  23
ATOM     23  C   UNL     1       4.037   6.295  18.704  0.00  0.00    +0.000 A 
ATOM     24  C   UNL     1       4.115   6.909  17.464  0.00  0.00    +0.000 A 
ATOM     25  C   UNL     1       5.244   6.492  16.704  0.00  0.00    +0.000 A 
ATOM     26  C   UNL     1       6.012   5.579  17.384  0.00  0.00    +0.000 A 
ATOM     27  S   UNL     1       5.450   5.336  18.979  0.00  0.00    +0.000 S 
ENDBRANCH  15  23
ENDBRANCH   2  15
TORSDOF 6
ENDMDL
MODEL 5
REMARK VINA RESULT:      -6.4      2.948      5.020
REMARK  Name = 
REMARK  8 active torsions:
REMARK  status: ('A' for Active; 'I' for Inactive)
REMARK    1  A    between atoms: C_1  and  C_2
REMARK    2  A    between atoms: C_2  and  N_3
REMARK    3  A    between atoms: C_2  and  C_14
REMARK    4  A    between atoms: N_3  and  S_4
REMARK    5  A    between atoms: S_4  and  C_7
REMARK    6  A    between atoms: C_14  and  C_15
REMARK    7  A    between atoms: C_14  and  N_20
REMARK    8  A    between atoms: N_23  and  C_24
REMARK                            x       y       z     vdW  Elec       q    Type
REMARK                         _______ _______ _______ _____ _____    ______ ____
ROOT
ATOM      1  C   UNL     1       4.155   3.103  17.473  0.00  0.00    +0.000 C 
ATOM      2  C   UNL     1       4.368   4.449  16.791  0.00  0.00    +0.000 C 
ENDROOT
BRANCH   2   3
ATOM      3  N   UNL     1       3.980   5.609  17.645  0.00  0.00    +0.000 NA
ATOM      4  H   UNL     1       3.973   6.509  17.163  0.00  0.00    +0.000 HD
BRANCH   3   5
ATOM      5  S   UNL     1       2.749   5.473  18.788  0.00  0.00    +0.000 S 
ATOM      6  O   UNL     1       1.665   4.765  18.145  0.00  0.00    +0.000 OA
ATOM      7  O   UNL     1       3.338   5.009  20.020  0.00  0.00    +0.000 OA
BRANCH   5   8
ATOM      8  C   UNL     1       2.221   7.163  18.991  0.00  0.00    +0.000 A 
ATOM      9  C   UNL     1       1.756   7.592  20.239  0.00  0.00    +0.000 A 
ATOM     10  C   UNL     1       1.237   8.882  20.368  0.00  0.00    +0.000 A 
ATOM     11  C   UNL     1       1.194   9.723  19.258  0.00  0.00    +0.000 A 
ATOM     12  F   UNL     1       0.662  10.946  19.378  0.00  0.00    +0.000 F 
ATOM     13  C   UNL     1       1.686   9.312  18.024  0.00  0.00    +0.000 A 
ATOM     14  C   UNL     1       2.226   8.032  17.892  0.00  0.00    +0.000 A 
ENDBRANCH   5   8
ENDBRANCH   3   5
ENDBRANCH   2   3
BRANCH   2  15
ATOM     15  C   UNL     1       5.862   4.601  16.272  0.00  0.00    +0.000 C 
BRANCH  15  16
ATOM     16  N   UNL     1       5.920   4.836  14.788  0.00  0.00    +0.000 NA
ATOM     17  C   UNL     1       5.113   3.832  14.045  0.00  0.00    +0.000 C 
ATOM     18  C   UNL     1       5.212   3.991  12.507  0.00  0.00    +0.000 C 
ATOM     19  N   UNL     1       6.581   3.985  11.965  0.00  0.00    +0.000 NA
ATOM     20  C   UNL     1       7.169   2.647  11.977  0.00  0.00    +0.000 C 
ATOM     21  C   UNL     1       7.395   4.939  12.736  0.00  0.00    +0.000 C 
ATOM     22  C   UNL     1       7.311   4.760  14.268  0.00  0.00    +0.000 C 
ENDBRANCH  15  16
BRANCH  15  23
ATOM     23  C   UNL     1       6.615   5.700  17.045  0.00  0.00    +0.000 A 
ATOM     24  C   UNL     1       6.748   7.052  16.777  0.00  0.00    +0.000 A 
ATOM     25  C   UNL     1       7.634   7.715  17.672  0.00  0.00    +0.000 A 
ATOM     26  C   UNL     1       8.150   6.858  18.614  0.00  0.00    +0.000 A 
ATOM     27  S   UNL     1       7.459   5.300  18.502  0.00  0.00    +0.000 S 
ENDBRANCH  15  23
ENDBRANCH   2  15
TORSDOF 6
ENDMDL
MODEL 6
REMARK VINA RESULT:      -6.4      2.201      2.569
REMARK  Name = 
REMARK  8 active torsions:
REMARK  status: ('A' for Active; 'I' for Inactive)
REMARK    1  A    between atoms: C_1  and  C_2
REMARK    2  A    between atoms: C_2  and  N_3
REMARK    3  A    between atoms: C_2  and  C_14
REMARK    4  A    between atoms: N_3  and  S_4
REMARK    5  A    between atoms: S_4  and  C_7
REMARK    6  A    between atoms: C_14  and  C_15
REMARK    7  A    between atoms: C_14  and  N_20
REMARK    8  A    between atoms: N_23  and  C_24
REMARK                            x       y       z     vdW  Elec       q    Type
REMARK                         _______ _______ _______ _____ _____    ______ ____
ROOT
ATOM      1  C   UNL     1       1.828   6.552  20.533  0.00  0.00    +0.000 C 
ATOM      2  C   UNL     1       1.879   7.108  19.115  0.00  0.00    +0.000 C 
ENDROOT
BRANCH   2   3
ATOM      3  N   UNL     1       2.334   8.527  19.056  0.00  0.00    +0.000 NA
ATOM      4  H   UNL     1       3.304   8.652  18.762  0.00  0.00    +0.000 HD
BRANCH   3   5
ATOM      5  S   UNL     1       1.318   9.743  18.482  0.00  0.00    +0.000 S 
ATOM      6  O   UNL     1       2.173  10.813  18.022  0.00  0.00    +0.000 OA
ATOM      7  O   UNL     1       0.335   9.130  17.623  0.00  0.00    +0.000 OA
BRANCH   5   8
ATOM      8  C   UNL     1       0.520  10.314  19.969  0.00  0.00    +0.000 A 
ATOM      9  C   UNL     1       0.851   9.729  21.196  0.00  0.00    +0.000 A 
ATOM     10  C   UNL     1       0.145  10.099  22.343  0.00  0.00    +0.000 A 
ATOM     11  C   UNL     1      -0.874  11.045  22.251  0.00  0.00    +0.000 A 
ATOM     12  F   UNL     1      -1.573  11.369  23.346  0.00  0.00    +0.000 F 
ATOM     13  C   UNL     1      -1.184  11.653  21.039  0.00  0.00    +0.000 A 
ATOM     14  C   UNL     1      -0.469  11.306  19.893  0.00  0.00    +0.000 A 
ENDBRANCH   5   8
ENDBRANCH   3   5
ENDBRANCH   2   3
BRANCH   2  15
ATOM     15  C   UNL     1       2.762   6.189  18.168  0.00  0.00    +0.000 C 
BRANCH  15  16
ATOM     16  N   UNL     1       4.234   6.401  18.392  0.00  0.00    +0.000 NA
ATOM     17  C   UNL     1       4.947   6.676  17.117  0.00  0.00    +0.000 C 
ATOM     18  C   UNL     1       6.479   6.822  17.296  0.00  0.00    +0.000 C 
ATOM     19  N   UNL     1       7.139   5.689  17.967  0.00  0.00    +0.000 NA
ATOM     20  C   UNL     1       7.240   4.520  17.096  0.00  0.00    +0.000 C 
ATOM     21  C   UNL     1       6.402   5.382  19.203  0.00  0.00    +0.000 C 
ATOM     22  C   UNL     1       4.878   5.214  19.014  0.00  0.00    +0.000 C 
ENDBRANCH  15  16
BRANCH  15  23
ATOM     23  C   UNL     1       2.380   4.704  18.310  0.00  0.00    +0.000 A 
ATOM     24  C   UNL     1       1.650   4.058  19.294  0.00  0.00    +0.000 A 
ATOM     25  C   UNL     1       1.618   2.645  19.129  0.00  0.00    +0.000 A 
ATOM     26  C   UNL     1       2.313   2.241  18.015  0.00  0.00    +0.000 A 
ATOM     27  S   UNL     1       2.877   3.570  17.102  0.00  0.00    +0.000 S 
ENDBRANCH  15  23
ENDBRANCH   2  15
TORSDOF 6
ENDMDL
MODEL 7
REMARK VINA RESULT:      -6.4      4.417      7.760
REMARK  Name = 
REMARK  8 active torsions:
REMARK  status: ('A' for Active; 'I' for Inactive)
REMARK    1  A    between atoms: C_1  and  C_2
REMARK    2  A    between atoms: C_2  and  N_3
REMARK    3  A    between atoms: C_2  and  C_14
REMARK    4  A    between atoms: N_3  and  S_4
REMARK    5  A    between atoms: S_4  and  C_7
REMARK    6  A    between atoms: C_14  and  C_15
REMARK    7  A    between atoms: C_14  and  N_20
REMARK    8  A    between atoms: N_23  and  C_24
REMARK                            x       y       z     vdW  Elec       q    Type
REMARK                         _______ _______ _______ _____ _____    ______ ____
ROOT
ATOM      1  C   UNL     1       5.154   7.528  17.789  0.00  0.00    +0.000 C 
ATOM      2  C   UNL     1       4.700   6.267  17.064  0.00  0.00    +0.000 C 
ENDROOT
BRANCH   2   3
ATOM      3  N   UNL     1       5.660   5.133  17.202  0.00  0.00    +0.000 NA
ATOM      4  H   UNL     1       5.241   4.206  17.105  0.00  0.00    +0.000 HD
BRANCH   3   5
ATOM      5  S   UNL     1       7.208   5.220  16.544  0.00  0.00    +0.000 S 
ATOM      6  O   UNL     1       7.582   6.617  16.550  0.00  0.00    +0.000 OA
ATOM      7  O   UNL     1       8.018   4.212  17.179  0.00  0.00    +0.000 OA
BRANCH   5   8
ATOM      8  C   UNL     1       6.932   4.762  14.844  0.00  0.00    +0.000 A 
ATOM      9  C   UNL     1       5.955   3.809  14.538  0.00  0.00    +0.000 A 
ATOM     10  C   UNL     1       5.818   3.369  13.220  0.00  0.00    +0.000 A 
ATOM     11  C   UNL     1       6.650   3.886  12.229  0.00  0.00    +0.000 A 
ATOM     12  F   UNL     1       6.539   3.433  10.974  0.00  0.00    +0.000 F 
ATOM     13  C   UNL     1       7.600   4.858  12.523  0.00  0.00    +0.000 A 
ATOM     14  C   UNL     1       7.729   5.319  13.833  0.00  0.00    +0.000 A 
ENDBRANCH   5   8
ENDBRANCH   3   5
ENDBRANCH   2   3
BRANCH   2  15
ATOM     15  C   UNL     1       3.241   5.834  17.520  0.00  0.00    +0.000 C 
BRANCH  15  16
ATOM     16  N   UNL     1       3.222   4.445  18.096  0.00  0.00    +0.000 NA
ATOM     17  C   UNL     1       1.876   3.824  17.980  0.00  0.00    +0.000 C 
ATOM     18  C   UNL     1       1.794   2.422  18.635  0.00  0.00    +0.000 C 
ATOM     19  N   UNL     1       2.215   2.367  20.044  0.00  0.00    +0.000 NA
ATOM     20  C   UNL     1       1.223   2.964  20.936  0.00  0.00    +0.000 C 
ATOM     21  C   UNL     1       3.524   3.029  20.170  0.00  0.00    +0.000 C 
ATOM     22  C   UNL     1       3.592   4.436  19.536  0.00  0.00    +0.000 C 
ENDBRANCH  15  16
BRANCH  15  23
ATOM     23  C   UNL     1       2.631   6.856  18.496  0.00  0.00    +0.000 A 
ATOM     24  C   UNL     1       2.415   6.772  19.861  0.00  0.00    +0.000 A 
ATOM     25  C   UNL     1       1.710   7.891  20.387  0.00  0.00    +0.000 A 
ATOM     26  C   UNL     1       1.412   8.813  19.413  0.00  0.00    +0.000 A 
ATOM     27  S   UNL     1       2.103   8.396  17.908  0.00  0.00    +0.000 S 
ENDBRANCH  15  23
ENDBRANCH   2  15
TORSDOF 6
ENDMDL
MODEL 8
REMARK VINA RESULT:      -6.3      4.554      7.856
REMARK  Name = 
REMARK  8 active torsions:
REMARK  status: ('A' for Active; 'I' for Inactive)
REMARK    1  A    between atoms: C_1  and  C_2
REMARK    2  A    between atoms: C_2  and  N_3
REMARK    3  A    between atoms: C_2  and  C_14
REMARK    4  A    between atoms: N_3  and  S_4
REMARK    5  A    between atoms: S_4  and  C_7
REMARK    6  A    between atoms: C_14  and  C_15
REMARK    7  A    between atoms: C_14  and  N_20
REMARK    8  A    between atoms: N_23  and  C_24
REMARK                            x       y       z     vdW  Elec       q    Type
REMARK                         _______ _______ _______ _____ _____    ______ ____
ROOT
ATOM      1  C   UNL     1       5.611   5.247  19.284  0.00  0.00    +0.000 C 
ATOM      2  C   UNL     1       5.068   5.681  17.927  0.00  0.00    +0.000 C 
ENDROOT
BRANCH   2   3
ATOM      3  N   UNL     1       5.715   4.976  16.782  0.00  0.00    +0.000 NA
ATOM      4  H   UNL     1       5.265   4.101  16.512  0.00  0.00    +0.000 HD
BRANCH   3   5
ATOM      5  S   UNL     1       6.318   5.834  15.463  0.00  0.00    +0.000 S 
ATOM      6  O   UNL     1       5.380   6.902  15.202  0.00  0.00    +0.000 OA
ATOM      7  O   UNL     1       7.716   6.089  15.701  0.00  0.00    +0.000 OA
BRANCH   5   8
ATOM      8  C   UNL     1       6.156   4.660  14.132  0.00  0.00    +0.000 A 
ATOM      9  C   UNL     1       7.217   4.483  13.238  0.00  0.00    +0.000 A 
ATOM     10  C   UNL     1       7.047   3.648  12.132  0.00  0.00    +0.000 A 
ATOM     11  C   UNL     1       5.829   3.002  11.935  0.00  0.00    +0.000 A 
ATOM     12  F   UNL     1       5.659   2.231  10.853  0.00  0.00    +0.000 F 
ATOM     13  C   UNL     1       4.783   3.149  12.839  0.00  0.00    +0.000 A 
ATOM     14  C   UNL     1       4.951   3.963  13.959  0.00  0.00    +0.000 A 
ENDBRANCH   5   8
ENDBRANCH   3   5
ENDBRANCH   2   3
BRANCH   2  15
ATOM     15  C   UNL     1       3.488   5.533  17.865  0.00  0.00    +0.000 C 
BRANCH  15  16
ATOM     16  N   UNL     1       3.038   4.150  18.246  0.00  0.00    +0.000 NA
ATOM     17  C   UNL     1       1.556   4.057  18.314  0.00  0.00    +0.000 C 
ATOM     18  C   UNL     1       1.054   2.668  18.783  0.00  0.00    +0.000 C 
ATOM     19  N   UNL     1       1.611   2.203  20.064  0.00  0.00    +0.000 NA
ATOM     20  C   UNL     1       1.038   2.918  21.202  0.00  0.00    +0.000 C 
ATOM     21  C   UNL     1       3.076   2.345  20.018  0.00  0.00    +0.000 C 
ATOM     22  C   UNL     1       3.569   3.740  19.574  0.00  0.00    +0.000 C 
ENDBRANCH  15  16
BRANCH  15  23
ATOM     23  C   UNL     1       2.789   6.608  18.718  0.00  0.00    +0.000 A 
ATOM     24  C   UNL     1       2.321   6.551  20.020  0.00  0.00    +0.000 A 
ATOM     25  C   UNL     1       1.618   7.725  20.414  0.00  0.00    +0.000 A 
ATOM     26  C   UNL     1       1.576   8.660  19.407  0.00  0.00    +0.000 A 
ATOM     27  S   UNL     1       2.498   8.178  18.052  0.00  0.00    +0.000 S 
ENDBRANCH  15  23
ENDBRANCH   2  15
TORSDOF 6
ENDMDL
MODEL 9
REMARK VINA RESULT:      -6.3      3.723      7.160
REMARK  Name = 
REMARK  8 active torsions:
REMARK  status: ('A' for Active; 'I' for Inactive)
REMARK    1  A    between atoms: C_1  and  C_2
REMARK    2  A    between atoms: C_2  and  N_3
REMARK    3  A    between atoms: C_2  and  C_14
REMARK    4  A    between atoms: N_3  and  S_4
REMARK    5  A    between atoms: S_4  and  C_7
REMARK    6  A    between atoms: C_14  and  C_15
REMARK    7  A    between atoms: C_14  and  N_20
REMARK    8  A    between atoms: N_23  and  C_24
REMARK                            x       y       z     vdW  Elec       q    Type
REMARK                         _______ _______ _______ _____ _____    ______ ____
ROOT
ATOM      1  C   UNL     1       3.236   7.268  17.601  0.00  0.00    +0.000 C 
ATOM      2  C   UNL     1       3.610   6.169  18.587  0.00  0.00    +0.000 C 
ENDROOT
BRANCH   2   3
ATOM      3  N   UNL     1       5.068   6.133  18.902  0.00  0.00    +0.000 NA
ATOM      4  H   UNL     1       5.334   6.640  19.748  0.00  0.00    +0.000 HD
BRANCH   3   5
ATOM      5  S   UNL     1       5.973   4.730  18.672  0.00  0.00    +0.000 S 
ATOM      6  O   UNL     1       7.306   5.015  19.153  0.00  0.00    +0.000 OA
ATOM      7  O   UNL     1       5.203   3.619  19.172  0.00  0.00    +0.000 OA
BRANCH   5   8
ATOM      8  C   UNL     1       6.072   4.621  16.896  0.00  0.00    +0.000 A 
ATOM      9  C   UNL     1       5.093   3.908  16.195  0.00  0.00    +0.000 A 
ATOM     10  C   UNL     1       5.233   3.727  14.818  0.00  0.00    +0.000 A 
ATOM     11  C   UNL     1       6.339   4.261  14.161  0.00  0.00    +0.000 A 
ATOM     12  F   UNL     1       6.488   4.054  12.846  0.00  0.00    +0.000 F 
ATOM     13  C   UNL     1       7.297   4.999  14.848  0.00  0.00    +0.000 A 
ATOM     14  C   UNL     1       7.154   5.203  16.220  0.00  0.00    +0.000 A 
ENDBRANCH   5   8
ENDBRANCH   3   5
ENDBRANCH   2   3
BRANCH   2  15
ATOM     15  C   UNL     1       2.746   6.268  19.916  0.00  0.00    +0.000 C 
BRANCH  15  16
ATOM     16  N   UNL     1       1.615   7.250  19.779  0.00  0.00    +0.000 NA
ATOM     17  C   UNL     1       2.083   8.546  19.220  0.00  0.00    +0.000 C 
ATOM     18  C   UNL     1       0.961   9.612  19.138  0.00  0.00    +0.000 C 
ATOM     19  N   UNL     1       0.256   9.875  20.403  0.00  0.00    +0.000 NA
ATOM     20  C   UNL     1       1.074  10.646  21.337  0.00  0.00    +0.000 C 
ATOM     21  C   UNL     1      -0.160   8.588  20.985  0.00  0.00    +0.000 C 
ATOM     22  C   UNL     1       0.968   7.538  21.086  0.00  0.00    +0.000 C 
ENDBRANCH  15  16
BRANCH  15  23
ATOM     23  C   UNL     1       2.238   4.884  20.361  0.00  0.00    +0.000 A 
ATOM     24  C   UNL     1       2.328   4.250  21.589  0.00  0.00    +0.000 A 
ATOM     25  C   UNL     1       1.839   2.913  21.566  0.00  0.00    +0.000 A 
ATOM     26  C   UNL     1       1.373   2.558  20.323  0.00  0.00    +0.000 A 
ATOM     27  S   UNL     1       1.397   3.875  19.235  0.00  0.00    +0.000 S 
ENDBRANCH  15  23
ENDBRANCH   2  15
TORSDOF 6
ENDMDL
