MODEL 1
REMARK VINA RESULT:      -7.4      0.000      0.000
REMARK  Name = 
REMARK  5 active torsions:
REMARK  status: ('A' for Active; 'I' for Inactive)
REMARK    1  A    between atoms: C_1  and  C_2
REMARK    2  A    between atoms: C_3  and  C_4
REMARK    3  A    between atoms: C_4  and  O_5
REMARK    4  A    between atoms: O_5  and  C_6
REMARK    5  A    between atoms: C_8  and  N_9
REMARK                            x       y       z     vdW  Elec       q    Type
REMARK                         _______ _______ _______ _____ _____    ______ ____
ROOT
ATOM      1  C   UNL     1       6.976   5.617  16.346  0.00  0.00    +0.000 A 
ATOM      2  C   UNL     1       6.384   5.091  17.516  0.00  0.00    +0.000 A 
ATOM      3  C   UNL     1       5.543   3.965  17.481  0.00  0.00    +0.000 A 
ATOM      4  C   UNL     1       5.347   3.350  16.239  0.00  0.00    +0.000 A 
ATOM      5  C   UNL     1       5.945   3.836  15.081  0.00  0.00    +0.000 A 
ATOM      6  C   UNL     1       6.774   4.955  15.125  0.00  0.00    +0.000 A 
ATOM      7 CL   UNL     1       7.536   5.358  13.625  0.00  0.00    +0.000 Cl
ENDROOT
BRANCH   3   8
ATOM      8  N   UNL     1       4.919   3.506  18.658  0.00  0.00    +0.000 N 
ATOM      9  C   UNL     1       3.578   3.506  19.041  0.00  0.00    +0.000 A 
ATOM     10  N   UNL     1       2.609   3.808  18.162  0.00  0.00    +0.000 NA
ATOM     11  C   UNL     1       1.341   3.860  18.599  0.00  0.00    +0.000 A 
ATOM     12  C   UNL     1       0.989   3.618  19.899  0.00  0.00    +0.000 A 
ATOM     13  C   UNL     1       2.035   3.300  20.729  0.00  0.00    +0.000 A 
ATOM     14  N   UNL     1       3.324   3.231  20.330  0.00  0.00    +0.000 NA
ATOM     15  H   UNL     1       5.506   3.327  19.457  0.00  0.00    +0.000 HD
ENDBRANCH   3   8
BRANCH   1  16
ATOM     16  O   UNL     1       7.723   6.749  16.572  0.00  0.00    +0.000 OA
BRANCH  16  17
ATOM     17  C   UNL     1       7.406   7.479  17.757  0.00  0.00    +0.000 C 
BRANCH  17  20
ATOM     18  C   UNL     1       9.258  10.802  18.593  0.00  0.00    +0.000 C 
ATOM     19  C   UNL     1       8.772   9.391  18.614  0.00  0.00    +0.000 C 
ATOM     20  C   UNL     1       7.984   8.861  17.667  0.00  0.00    +0.000 C 
ENDBRANCH  17  20
ENDBRANCH  16  17
ENDBRANCH   1  16
TORSDOF 4
ENDMDL
MODEL 2
REMARK VINA RESULT:      -7.3      1.224      1.635
REMARK  Name = 
REMARK  5 active torsions:
REMARK  status: ('A' for Active; 'I' for Inactive)
REMARK    1  A    between atoms: C_1  and  C_2
REMARK    2  A    between atoms: C_3  and  C_4
REMARK    3  A    between atoms: C_4  and  O_5
REMARK    4  A    between atoms: O_5  and  C_6
REMARK    5  A    between atoms: C_8  and  N_9
REMARK                            x       y       z     vdW  Elec       q    Type
REMARK                         _______ _______ _______ _____ _____    ______ ____
ROOT
ATOM      1  C   UNL     1       5.809   6.233  16.521  0.00  0.00    +0.000 A 
ATOM      2  C   UNL     1       4.722   6.122  17.417  0.00  0.00    +0.000 A 
ATOM      3  C   UNL     1       3.878   4.999  17.425  0.00  0.00    +0.000 A 
ATOM      4  C   UNL     1       4.182   3.962  16.536  0.00  0.00    +0.000 A 
ATOM      5  C   UNL     1       5.266   4.039  15.668  0.00  0.00    +0.000 A 
ATOM      6  C   UNL     1       6.096   5.158  15.665  0.00  0.00    +0.000 A 
ATOM      7 CL   UNL     1       7.467   5.048  14.615  0.00  0.00    +0.000 Cl
ENDROOT
BRANCH   3   8
ATOM      8  N   UNL     1       2.765   4.952  18.288  0.00  0.00    +0.000 N 
ATOM      9  C   UNL     1       2.513   4.168  19.414  0.00  0.00    +0.000 A 
ATOM     10  N   UNL     1       3.483   3.421  19.966  0.00  0.00    +0.000 NA
ATOM     11  C   UNL     1       3.171   2.633  21.006  0.00  0.00    +0.000 A 
ATOM     12  C   UNL     1       1.909   2.556  21.532  0.00  0.00    +0.000 A 
ATOM     13  C   UNL     1       0.981   3.363  20.922  0.00  0.00    +0.000 A 
ATOM     14  N   UNL     1       1.253   4.174  19.877  0.00  0.00    +0.000 NA
ATOM     15  H   UNL     1       1.912   5.386  17.972  0.00  0.00    +0.000 HD
ENDBRANCH   3   8
BRANCH   1  16
ATOM     16  O   UNL     1       6.488   7.424  16.627  0.00  0.00    +0.000 OA
BRANCH  16  17
ATOM     17  C   UNL     1       7.559   7.449  17.571  0.00  0.00    +0.000 C 
BRANCH  17  20
ATOM     18  C   UNL     1       9.242  10.701  18.899  0.00  0.00    +0.000 C 
ATOM     19  C   UNL     1       8.790   9.287  18.737  0.00  0.00    +0.000 C 
ATOM     20  C   UNL     1       8.108   8.841  17.671  0.00  0.00    +0.000 C 
ENDBRANCH  17  20
ENDBRANCH  16  17
ENDBRANCH   1  16
TORSDOF 4
ENDMDL
MODEL 3
REMARK VINA RESULT:      -7.1      2.107      4.237
REMARK  Name = 
REMARK  5 active torsions:
REMARK  status: ('A' for Active; 'I' for Inactive)
REMARK    1  A    between atoms: C_1  and  C_2
REMARK    2  A    between atoms: C_3  and  C_4
REMARK    3  A    between atoms: C_4  and  O_5
REMARK    4  A    between atoms: O_5  and  C_6
REMARK    5  A    between atoms: C_8  and  N_9
REMARK                            x       y       z     vdW  Elec       q    Type
REMARK                         _______ _______ _______ _____ _____    ______ ____
ROOT
ATOM      1  C   UNL     1       6.735   5.727  16.579  0.00  0.00    +0.000 A 
ATOM      2  C   UNL     1       5.899   4.639  16.914  0.00  0.00    +0.000 A 
ATOM      3  C   UNL     1       5.609   4.308  18.250  0.00  0.00    +0.000 A 
ATOM      4  C   UNL     1       6.147   5.132  19.244  0.00  0.00    +0.000 A 
ATOM      5  C   UNL     1       6.948   6.226  18.933  0.00  0.00    +0.000 A 
ATOM      6  C   UNL     1       7.232   6.544  17.606  0.00  0.00    +0.000 A 
ATOM      7 CL   UNL     1       8.138   8.000  17.383  0.00  0.00    +0.000 Cl
ENDROOT
BRANCH   3   8
ATOM      8  N   UNL     1       4.825   3.177  18.548  0.00  0.00    +0.000 N 
ATOM      9  C   UNL     1       3.441   3.008  18.587  0.00  0.00    +0.000 A 
ATOM     10  N   UNL     1       2.616   3.959  18.116  0.00  0.00    +0.000 NA
ATOM     11  C   UNL     1       1.292   3.777  18.240  0.00  0.00    +0.000 A 
ATOM     12  C   UNL     1       0.743   2.666  18.822  0.00  0.00    +0.000 A 
ATOM     13  C   UNL     1       1.652   1.737  19.261  0.00  0.00    +0.000 A 
ATOM     14  N   UNL     1       2.991   1.877  19.152  0.00  0.00    +0.000 NA
ATOM     15  H   UNL     1       5.280   2.402  19.004  0.00  0.00    +0.000 HD
ENDBRANCH   3   8
BRANCH   1  16
ATOM     16  O   UNL     1       6.943   5.862  15.226  0.00  0.00    +0.000 OA
BRANCH  16  17
ATOM     17  C   UNL     1       7.144   4.648  14.502  0.00  0.00    +0.000 C 
BRANCH  17  20
ATOM     18  C   UNL     1       4.794   3.304  11.702  0.00  0.00    +0.000 C 
ATOM     19  C   UNL     1       5.684   3.406  12.896  0.00  0.00    +0.000 C 
ATOM     20  C   UNL     1       6.157   4.566  13.375  0.00  0.00    +0.000 C 
ENDBRANCH  17  20
ENDBRANCH  16  17
ENDBRANCH   1  16
TORSDOF 4
ENDMDL
MODEL 4
REMARK VINA RESULT:      -7.1      3.229      3.473
REMARK  Name = 
REMARK  5 active torsions:
REMARK  status: ('A' for Active; 'I' for Inactive)
REMARK    1  A    between atoms: C_1  and  C_2
REMARK    2  A    between atoms: C_3  and  C_4
REMARK    3  A    between atoms: C_4  and  O_5
REMARK    4  A    between atoms: O_5  and  C_6
REMARK    5  A    between atoms: C_8  and  N_9
REMARK                            x       y       z     vdW  Elec       q    Type
REMARK                         _______ _______ _______ _____ _____    ______ ____
ROOT
ATOM      1  C   UNL     1       5.738   5.916  16.883  0.00  0.00    +0.000 A 
ATOM      2  C   UNL     1       4.901   6.466  17.878  0.00  0.00    +0.000 A 
ATOM      3  C   UNL     1       3.693   5.854  18.255  0.00  0.00    +0.000 A 
ATOM      4  C   UNL     1       3.368   4.643  17.635  0.00  0.00    +0.000 A 
ATOM      5  C   UNL     1       4.195   4.069  16.675  0.00  0.00    +0.000 A 
ATOM      6  C   UNL     1       5.388   4.685  16.305  0.00  0.00    +0.000 A 
ATOM      7 CL   UNL     1       6.359   3.786  15.191  0.00  0.00    +0.000 Cl
ENDROOT
BRANCH   3   8
ATOM      8  N   UNL     1       2.851   6.466  19.205  0.00  0.00    +0.000 N 
ATOM      9  C   UNL     1       2.123   7.654  19.151  0.00  0.00    +0.000 A 
ATOM     10  N   UNL     1       1.984   8.327  17.996  0.00  0.00    +0.000 NA
ATOM     11  C   UNL     1       1.331   9.499  18.012  0.00  0.00    +0.000 A 
ATOM     12  C   UNL     1       0.799  10.042  19.150  0.00  0.00    +0.000 A 
ATOM     13  C   UNL     1       0.970   9.285  20.283  0.00  0.00    +0.000 A 
ATOM     14  N   UNL     1       1.614   8.098  20.311  0.00  0.00    +0.000 NA
ATOM     15  H   UNL     1       2.909   6.140  20.157  0.00  0.00    +0.000 HD
ENDBRANCH   3   8
BRANCH   1  16
ATOM     16  O   UNL     1       6.848   6.682  16.615  0.00  0.00    +0.000 OA
BRANCH  16  17
ATOM     17  C   UNL     1       7.602   7.106  17.751  0.00  0.00    +0.000 C 
BRANCH  17  20
ATOM     18  C   UNL     1       9.003  10.682  18.397  0.00  0.00    +0.000 C 
ATOM     19  C   UNL     1       8.695   9.226  18.504  0.00  0.00    +0.000 C 
ATOM     20  C   UNL     1       8.005   8.541  17.579  0.00  0.00    +0.000 C 
ENDBRANCH  17  20
ENDBRANCH  16  17
ENDBRANCH   1  16
TORSDOF 4
ENDMDL
MODEL 5
REMARK VINA RESULT:      -7.1      3.968      4.817
REMARK  Name = 
REMARK  5 active torsions:
REMARK  status: ('A' for Active; 'I' for Inactive)
REMARK    1  A    between atoms: C_1  and  C_2
REMARK    2  A    between atoms: C_3  and  C_4
REMARK    3  A    between atoms: C_4  and  O_5
REMARK    4  A    between atoms: O_5  and  C_6
REMARK    5  A    between atoms: C_8  and  N_9
REMARK                            x       y       z     vdW  Elec       q    Type
REMARK                         _______ _______ _______ _____ _____    ______ ____
ROOT
ATOM      1  C   UNL     1       4.791   4.528  18.834  0.00  0.00    +0.000 A 
ATOM      2  C   UNL     1       4.343   5.841  18.567  0.00  0.00    +0.000 A 
ATOM      3  C   UNL     1       3.016   6.110  18.187  0.00  0.00    +0.000 A 
ATOM      4  C   UNL     1       2.135   5.026  18.126  0.00  0.00    +0.000 A 
ATOM      5  C   UNL     1       2.550   3.730  18.415  0.00  0.00    +0.000 A 
ATOM      6  C   UNL     1       3.868   3.472  18.788  0.00  0.00    +0.000 A 
ATOM      7 CL   UNL     1       4.194   1.832  19.231  0.00  0.00    +0.000 Cl
ENDROOT
BRANCH   3   8
ATOM      8  N   UNL     1       2.621   7.423  17.865  0.00  0.00    +0.000 N 
ATOM      9  C   UNL     1       1.925   8.377  18.608  0.00  0.00    +0.000 A 
ATOM     10  N   UNL     1       1.687   8.193  19.917  0.00  0.00    +0.000 NA
ATOM     11  C   UNL     1       0.954   9.108  20.570  0.00  0.00    +0.000 A 
ATOM     12  C   UNL     1       0.437  10.221  19.963  0.00  0.00    +0.000 A 
ATOM     13  C   UNL     1       0.739  10.343  18.630  0.00  0.00    +0.000 A 
ATOM     14  N   UNL     1       1.478   9.450  17.936  0.00  0.00    +0.000 NA
ATOM     15  H   UNL     1       2.644   7.693  16.894  0.00  0.00    +0.000 HD
ENDBRANCH   3   8
BRANCH   1  16
ATOM     16  O   UNL     1       6.130   4.458  19.140  0.00  0.00    +0.000 OA
BRANCH  16  17
ATOM     17  C   UNL     1       7.028   4.858  18.105  0.00  0.00    +0.000 C 
BRANCH  17  20
ATOM     18  C   UNL     1       8.235   8.556  17.934  0.00  0.00    +0.000 C 
ATOM     19  C   UNL     1       7.540   7.265  17.659  0.00  0.00    +0.000 C 
ATOM     20  C   UNL     1       7.635   6.185  18.450  0.00  0.00    +0.000 C 
ENDBRANCH  17  20
ENDBRANCH  16  17
ENDBRANCH   1  16
TORSDOF 4
ENDMDL
MODEL 6
REMARK VINA RESULT:      -7.0      2.919      5.305
REMARK  Name = 
REMARK  5 active torsions:
REMARK  status: ('A' for Active; 'I' for Inactive)
REMARK    1  A    between atoms: C_1  and  C_2
REMARK    2  A    between atoms: C_3  and  C_4
REMARK    3  A    between atoms: C_4  and  O_5
REMARK    4  A    between atoms: O_5  and  C_6
REMARK    5  A    between atoms: C_8  and  N_9
REMARK                            x       y       z     vdW  Elec       q    Type
REMARK                         _______ _______ _______ _____ _____    ______ ____
ROOT
ATOM      1  C   UNL     1       6.416   3.896  13.565  0.00  0.00    +0.000 A 
ATOM      2  C   UNL     1       5.619   3.354  14.598  0.00  0.00    +0.000 A 
ATOM      3  C   UNL     1       5.757   3.763  15.936  0.00  0.00    +0.000 A 
ATOM      4  C   UNL     1       6.690   4.770  16.204  0.00  0.00    +0.000 A 
ATOM      5  C   UNL     1       7.463   5.338  15.197  0.00  0.00    +0.000 A 
ATOM      6  C   UNL     1       7.322   4.923  13.874  0.00  0.00    +0.000 A 
ATOM      7 CL   UNL     1       8.266   5.810  12.726  0.00  0.00    +0.000 Cl
ENDROOT
BRANCH   3   8
ATOM      8  N   UNL     1       4.990   3.154  16.948  0.00  0.00    +0.000 N 
ATOM      9  C   UNL     1       3.922   3.638  17.703  0.00  0.00    +0.000 A 
ATOM     10  N   UNL     1       3.326   4.801  17.390  0.00  0.00    +0.000 NA
ATOM     11  C   UNL     1       2.349   5.256  18.189  0.00  0.00    +0.000 A 
ATOM     12  C   UNL     1       1.930   4.589  19.309  0.00  0.00    +0.000 A 
ATOM     13  C   UNL     1       2.578   3.404  19.550  0.00  0.00    +0.000 A 
ATOM     14  N   UNL     1       3.562   2.906  18.770  0.00  0.00    +0.000 NA
ATOM     15  H   UNL     1       5.355   2.313  17.367  0.00  0.00    +0.000 HD
ENDBRANCH   3   8
BRANCH   1  16
ATOM     16  O   UNL     1       6.174   3.335  12.333  0.00  0.00    +0.000 OA
BRANCH  16  17
ATOM     17  C   UNL     1       4.822   2.953  12.078  0.00  0.00    +0.000 C 
BRANCH  17  20
ATOM     18  C   UNL     1       2.674   4.444   9.191  0.00  0.00    +0.000 C 
ATOM     19  C   UNL     1       3.212   3.552  10.260  0.00  0.00    +0.000 C 
ATOM     20  C   UNL     1       4.211   3.898  11.086  0.00  0.00    +0.000 C 
ENDBRANCH  17  20
ENDBRANCH  16  17
ENDBRANCH   1  16
TORSDOF 4
ENDMDL
MODEL 7
REMARK VINA RESULT:      -7.0      3.834      5.199
REMARK  Name = 
REMARK  5 active torsions:
REMARK  status: ('A' for Active; 'I' for Inactive)
REMARK    1  A    between atoms: C_1  and  C_2
REMARK    2  A    between atoms: C_3  and  C_4
REMARK    3  A    between atoms: C_4  and  O_5
REMARK    4  A    between atoms: O_5  and  C_6
REMARK    5  A    between atoms: C_8  and  N_9
REMARK                            x       y       z     vdW  Elec       q    Type
REMARK                         _______ _______ _______ _____ _____    ______ ____
ROOT
ATOM      1  C   UNL     1       4.473   4.229  18.512  0.00  0.00    +0.000 A 
ATOM      2  C   UNL     1       4.081   5.585  18.554  0.00  0.00    +0.000 A 
ATOM      3  C   UNL     1       2.780   5.994  18.210  0.00  0.00    +0.000 A 
ATOM      4  C   UNL     1       1.865   4.993  17.863  0.00  0.00    +0.000 A 
ATOM      5  C   UNL     1       2.224   3.650  17.846  0.00  0.00    +0.000 A 
ATOM      6  C   UNL     1       3.517   3.255  18.185  0.00  0.00    +0.000 A 
ATOM      7 CL   UNL     1       3.768   1.544  18.232  0.00  0.00    +0.000 Cl
ENDROOT
BRANCH   3   8
ATOM      8  N   UNL     1       2.444   7.361  18.201  0.00  0.00    +0.000 N 
ATOM      9  C   UNL     1       1.882   8.172  19.187  0.00  0.00    +0.000 A 
ATOM     10  N   UNL     1       1.754   7.733  20.450  0.00  0.00    +0.000 NA
ATOM     11  C   UNL     1       1.145   8.526  21.345  0.00  0.00    +0.000 A 
ATOM     12  C   UNL     1       0.648   9.762  21.031  0.00  0.00    +0.000 A 
ATOM     13  C   UNL     1       0.833  10.142  19.725  0.00  0.00    +0.000 A 
ATOM     14  N   UNL     1       1.445   9.379  18.794  0.00  0.00    +0.000 NA
ATOM     15  H   UNL     1       2.395   7.824  17.306  0.00  0.00    +0.000 HD
ENDBRANCH   3   8
BRANCH   1  16
ATOM     16  O   UNL     1       5.795   4.030  18.833  0.00  0.00    +0.000 OA
BRANCH  16  17
ATOM     17  C   UNL     1       6.737   4.833  18.122  0.00  0.00    +0.000 C 
BRANCH  17  20
ATOM     18  C   UNL     1       6.722   4.631  14.232  0.00  0.00    +0.000 C 
ATOM     19  C   UNL     1       6.719   5.131  15.638  0.00  0.00    +0.000 C 
ATOM     20  C   UNL     1       6.857   4.337  16.711  0.00  0.00    +0.000 C 
ENDBRANCH  17  20
ENDBRANCH  16  17
ENDBRANCH   1  16
TORSDOF 4
ENDMDL
MODEL 8
REMARK VINA RESULT:      -7.0      2.079      4.239
REMARK  Name = 
REMARK  5 active torsions:
REMARK  status: ('A' for Active; 'I' for Inactive)
REMARK    1  A    between atoms: C_1  and  C_2
REMARK    2  A    between atoms: C_3  and  C_4
REMARK    3  A    between atoms: C_4  and  O_5
REMARK    4  A    between atoms: O_5  and  C_6
REMARK    5  A    between atoms: C_8  and  N_9
REMARK                            x       y       z     vdW  Elec       q    Type
REMARK                         _______ _______ _______ _____ _____    ______ ____
ROOT
ATOM      1  C   UNL     1       6.460   5.797  16.735  0.00  0.00    +0.000 A 
ATOM      2  C   UNL     1       5.670   4.789  17.332  0.00  0.00    +0.000 A 
ATOM      3  C   UNL     1       5.744   4.505  18.707  0.00  0.00    +0.000 A 
ATOM      4  C   UNL     1       6.603   5.295  19.480  0.00  0.00    +0.000 A 
ATOM      5  C   UNL     1       7.366   6.311  18.915  0.00  0.00    +0.000 A 
ATOM      6  C   UNL     1       7.289   6.583  17.550  0.00  0.00    +0.000 A 
ATOM      7 CL   UNL     1       8.206   7.954  17.026  0.00  0.00    +0.000 Cl
ENDROOT
BRANCH   3   8
ATOM      8  N   UNL     1       4.989   3.450  19.257  0.00  0.00    +0.000 N 
ATOM      9  C   UNL     1       3.712   3.434  19.816  0.00  0.00    +0.000 A 
ATOM     10  N   UNL     1       2.902   4.500  19.718  0.00  0.00    +0.000 NA
ATOM     11  C   UNL     1       1.709   4.459  20.332  0.00  0.00    +0.000 A 
ATOM     12  C   UNL     1       1.280   3.378  21.055  0.00  0.00    +0.000 A 
ATOM     13  C   UNL     1       2.159   2.324  21.093  0.00  0.00    +0.000 A 
ATOM     14  N   UNL     1       3.365   2.322  20.484  0.00  0.00    +0.000 NA
ATOM     15  H   UNL     1       5.477   2.599  19.487  0.00  0.00    +0.000 HD
ENDBRANCH   3   8
BRANCH   1  16
ATOM     16  O   UNL     1       6.288   5.893  15.374  0.00  0.00    +0.000 OA
BRANCH  16  17
ATOM     17  C   UNL     1       5.511   4.860  14.769  0.00  0.00    +0.000 C 
BRANCH  17  20
ATOM     18  C   UNL     1       6.644   2.721  11.718  0.00  0.00    +0.000 C 
ATOM     19  C   UNL     1       5.844   3.556  12.661  0.00  0.00    +0.000 C 
ATOM     20  C   UNL     1       6.349   4.120  13.768  0.00  0.00    +0.000 C 
ENDBRANCH  17  20
ENDBRANCH  16  17
ENDBRANCH   1  16
TORSDOF 4
ENDMDL
MODEL 9
REMARK VINA RESULT:      -6.9      2.755      5.059
REMARK  Name = 
REMARK  5 active torsions:
REMARK  status: ('A' for Active; 'I' for Inactive)
REMARK    1  A    between atoms: C_1  and  C_2
REMARK    2  A    between atoms: C_3  and  C_4
REMARK    3  A    between atoms: C_4  and  O_5
REMARK    4  A    between atoms: O_5  and  C_6
REMARK    5  A    between atoms: C_8  and  N_9
REMARK                            x       y       z     vdW  Elec       q    Type
REMARK                         _______ _______ _______ _____ _____    ______ ____
ROOT
ATOM      1  C   UNL     1       5.680   4.307  14.536  0.00  0.00    +0.000 A 
ATOM      2  C   UNL     1       4.937   3.945  15.682  0.00  0.00    +0.000 A 
ATOM      3  C   UNL     1       5.472   4.047  16.978  0.00  0.00    +0.000 A 
ATOM      4  C   UNL     1       6.765   4.570  17.097  0.00  0.00    +0.000 A 
ATOM      5  C   UNL     1       7.500   4.961  15.983  0.00  0.00    +0.000 A 
ATOM      6  C   UNL     1       6.963   4.852  14.702  0.00  0.00    +0.000 A 
ATOM      7 CL   UNL     1       7.954   5.492  13.437  0.00  0.00    +0.000 Cl
ENDROOT
BRANCH   3   8
ATOM      8  N   UNL     1       4.726   3.616  18.092  0.00  0.00    +0.000 N 
ATOM      9  C   UNL     1       3.775   4.277  18.867  0.00  0.00    +0.000 A 
ATOM     10  N   UNL     1       3.278   5.466  18.486  0.00  0.00    +0.000 NA
ATOM     11  C   UNL     1       2.417   6.093  19.301  0.00  0.00    +0.000 A 
ATOM     12  C   UNL     1       2.019   5.576  20.505  0.00  0.00    +0.000 A 
ATOM     13  C   UNL     1       2.558   4.352  20.813  0.00  0.00    +0.000 A 
ATOM     14  N   UNL     1       3.423   3.684  20.019  0.00  0.00    +0.000 NA
ATOM     15  H   UNL     1       5.034   2.779  18.563  0.00  0.00    +0.000 HD
ENDBRANCH   3   8
BRANCH   1  16
ATOM     16  O   UNL     1       5.008   4.089  13.356  0.00  0.00    +0.000 OA
BRANCH  16  17
ATOM     17  C   UNL     1       5.581   3.115  12.484  0.00  0.00    +0.000 C 
BRANCH  17  20
ATOM     18  C   UNL     1       2.873   3.694   9.746  0.00  0.00    +0.000 C 
ATOM     19  C   UNL     1       3.806   3.878  10.896  0.00  0.00    +0.000 C 
ATOM     20  C   UNL     1       4.728   2.973  11.259  0.00  0.00    +0.000 C 
ENDBRANCH  17  20
ENDBRANCH  16  17
ENDBRANCH   1  16
TORSDOF 4
ENDMDL
