MODEL 1
REMARK VINA RESULT:      -8.1      0.000      0.000
REMARK  Name = 
REMARK  6 active torsions:
REMARK  status: ('A' for Active; 'I' for Inactive)
REMARK    1  A    between atoms: C_2  and  C_10
REMARK    2  A    between atoms: N_3  and  C_4
REMARK    3  A    between atoms: N_17  and  C_18
REMARK    4  A    between atoms: C_18  and  C_19
REMARK    5  A    between atoms: C_25  and  C_26
REMARK    6  A    between atoms: C_26  and  C_27
REMARK                            x       y       z     vdW  Elec       q    Type
REMARK                         _______ _______ _______ _____ _____    ______ ____
ROOT
ATOM      1  C   UNL     1       6.048   4.529  15.774  0.00  0.00    +0.000 C 
ATOM      2  O   UNL     1       4.675   4.942  15.601  0.00  0.00    +0.000 OA
ATOM      3  C   UNL     1       4.634   6.297  16.084  0.00  0.00    +0.000 C 
ATOM      4  O   UNL     1       5.982   6.776  16.158  0.00  0.00    +0.000 OA
ATOM      5  C   UNL     1       6.647   5.607  16.650  0.00  0.00    +0.000 C 
ATOM      6  C   UNL     1       6.278   5.289  18.110  0.00  0.00    +0.000 C 
ATOM      7  O   UNL     1       7.085   4.778  18.886  0.00  0.00    +0.000 OA
ATOM      8  N   UNL     1       4.938   5.528  18.443  0.00  0.00    +0.000 N 
ATOM      9  C   UNL     1       4.069   6.349  17.535  0.00  0.00    +0.000 C 
ENDROOT
BRANCH   1  11
ATOM     10  O   UNL     1       7.769   5.234  14.208  0.00  0.00    +0.000 OA
ATOM     11  C   UNL     1       6.810   4.503  14.436  0.00  0.00    +0.000 C 
ATOM     12  N   UNL     1       6.288   3.610  13.521  0.00  0.00    +0.000 N 
ATOM     13  H   UNL     1       5.421   3.159  13.800  0.00  0.00    +0.000 HD
BRANCH  12  14
ATOM     14  C   UNL     1       6.650   3.640  12.112  0.00  0.00    +0.000 C 
ATOM     15  C   UNL     1       7.120   2.262  11.628  0.00  0.00    +0.000 C 
ATOM     16  C   UNL     1       5.992   1.236  11.505  0.00  0.00    +0.000 C 
ATOM     17  C   UNL     1       4.758   1.763  10.774  0.00  0.00    +0.000 C 
ATOM     18  C   UNL     1       4.317   3.138  11.263  0.00  0.00    +0.000 C 
ATOM     19  C   UNL     1       5.479   4.128  11.246  0.00  0.00    +0.000 C 
ENDBRANCH  12  14
ENDBRANCH   1  11
BRANCH   8  20
ATOM     20  C   UNL     1       4.442   5.113  19.753  0.00  0.00    +0.000 C 
BRANCH  20  21
ATOM     21  C   UNL     1       3.211   4.232  19.705  0.00  0.00    +0.000 A 
ATOM     22  C   UNL     1       2.139   4.448  20.588  0.00  0.00    +0.000 A 
ATOM     23  C   UNL     1       0.944   3.737  20.452  0.00  0.00    +0.000 A 
ATOM     24  C   UNL     1       0.804   2.788  19.441  0.00  0.00    +0.000 A 
ATOM     25  C   UNL     1       1.875   2.528  18.589  0.00  0.00    +0.000 A 
ATOM     26  C   UNL     1       3.073   3.239  18.724  0.00  0.00    +0.000 A 
ENDBRANCH  20  21
ENDBRANCH   8  20
BRANCH   9  27
ATOM     27  C   UNL     1       4.013   7.834  18.001  0.00  0.00    +0.000 C 
BRANCH  27  28
ATOM     28  C   UNL     1       2.656   8.314  18.488  0.00  0.00    +0.000 A 
ATOM     29  C   UNL     1       2.154   7.914  19.734  0.00  0.00    +0.000 A 
ATOM     30  C   UNL     1       0.919   8.393  20.186  0.00  0.00    +0.000 A 
ATOM     31  C   UNL     1       0.173   9.276  19.407  0.00  0.00    +0.000 A 
ATOM     32  C   UNL     1       0.659   9.675  18.166  0.00  0.00    +0.000 A 
ATOM     33  C   UNL     1       1.889   9.195  17.706  0.00  0.00    +0.000 A 
ENDBRANCH  27  28
ENDBRANCH   9  27
TORSDOF 6
ENDMDL
MODEL 2
REMARK VINA RESULT:      -7.2      4.476      8.046
REMARK  Name = 
REMARK  6 active torsions:
REMARK  status: ('A' for Active; 'I' for Inactive)
REMARK    1  A    between atoms: C_2  and  C_10
REMARK    2  A    between atoms: N_3  and  C_4
REMARK    3  A    between atoms: N_17  and  C_18
REMARK    4  A    between atoms: C_18  and  C_19
REMARK    5  A    between atoms: C_25  and  C_26
REMARK    6  A    between atoms: C_26  and  C_27
REMARK                            x       y       z     vdW  Elec       q    Type
REMARK                         _______ _______ _______ _____ _____    ______ ____
ROOT
ATOM      1  C   UNL     1       1.349   8.822  18.385  0.00  0.00    +0.000 C 
ATOM      2  O   UNL     1       1.632   9.967  17.550  0.00  0.00    +0.000 OA
ATOM      3  C   UNL     1       1.948  11.026  18.474  0.00  0.00    +0.000 C 
ATOM      4  O   UNL     1       2.225  10.428  19.746  0.00  0.00    +0.000 OA
ATOM      5  C   UNL     1       1.225   9.403  19.775  0.00  0.00    +0.000 C 
ATOM      6  C   UNL     1      -0.198   9.972  19.926  0.00  0.00    +0.000 C 
ATOM      7  O   UNL     1      -1.075   9.367  20.540  0.00  0.00    +0.000 OA
ATOM      8  N   UNL     1      -0.432  11.163  19.226  0.00  0.00    +0.000 N 
ATOM      9  C   UNL     1       0.720  11.959  18.685  0.00  0.00    +0.000 C 
ENDROOT
BRANCH   1  11
ATOM     10  O   UNL     1       3.472   7.916  17.625  0.00  0.00    +0.000 OA
ATOM     11  C   UNL     1       2.508   7.809  18.376  0.00  0.00    +0.000 C 
ATOM     12  N   UNL     1       2.335   6.766  19.264  0.00  0.00    +0.000 N 
ATOM     13  H   UNL     1       1.435   6.740  19.735  0.00  0.00    +0.000 HD
BRANCH  12  14
ATOM     14  C   UNL     1       3.140   5.554  19.206  0.00  0.00    +0.000 C 
ATOM     15  C   UNL     1       2.874   4.650  20.416  0.00  0.00    +0.000 C 
ATOM     16  C   UNL     1       1.506   3.964  20.383  0.00  0.00    +0.000 C 
ATOM     17  C   UNL     1       1.176   3.315  19.040  0.00  0.00    +0.000 C 
ATOM     18  C   UNL     1       1.459   4.227  17.852  0.00  0.00    +0.000 C 
ATOM     19  C   UNL     1       2.882   4.777  17.906  0.00  0.00    +0.000 C 
ENDBRANCH  12  14
ENDBRANCH   1  11
BRANCH   8  20
ATOM     20  C   UNL     1      -1.787  11.703  19.169  0.00  0.00    +0.000 C 
BRANCH  20  21
ATOM     21  C   UNL     1      -2.604  11.223  17.986  0.00  0.00    +0.000 A 
ATOM     22  C   UNL     1      -3.909  11.701  17.773  0.00  0.00    +0.000 A 
ATOM     23  C   UNL     1      -4.609  11.376  16.608  0.00  0.00    +0.000 A 
ATOM     24  C   UNL     1      -4.024  10.558  15.643  0.00  0.00    +0.000 A 
ATOM     25  C   UNL     1      -2.750  10.037  15.864  0.00  0.00    +0.000 A 
ATOM     26  C   UNL     1      -2.047  10.361  17.030  0.00  0.00    +0.000 A 
ENDBRANCH  20  21
ENDBRANCH   8  20
BRANCH   9  27
ATOM     27  C   UNL     1       1.120  13.105  19.662  0.00  0.00    +0.000 C 
BRANCH  27  28
ATOM     28  C   UNL     1       1.013  14.512  19.098  0.00  0.00    +0.000 A 
ATOM     29  C   UNL     1      -0.234  15.125  18.919  0.00  0.00    +0.000 A 
ATOM     30  C   UNL     1      -0.314  16.435  18.432  0.00  0.00    +0.000 A 
ATOM     31  C   UNL     1       0.842  17.148  18.122  0.00  0.00    +0.000 A 
ATOM     32  C   UNL     1       2.085  16.547  18.289  0.00  0.00    +0.000 A 
ATOM     33  C   UNL     1       2.172  15.236  18.769  0.00  0.00    +0.000 A 
ENDBRANCH  27  28
ENDBRANCH   9  27
TORSDOF 6
ENDMDL
MODEL 3
REMARK VINA RESULT:      -7.2      4.462      8.039
REMARK  Name = 
REMARK  6 active torsions:
REMARK  status: ('A' for Active; 'I' for Inactive)
REMARK    1  A    between atoms: C_2  and  C_10
REMARK    2  A    between atoms: N_3  and  C_4
REMARK    3  A    between atoms: N_17  and  C_18
REMARK    4  A    between atoms: C_18  and  C_19
REMARK    5  A    between atoms: C_25  and  C_26
REMARK    6  A    between atoms: C_26  and  C_27
REMARK                            x       y       z     vdW  Elec       q    Type
REMARK                         _______ _______ _______ _____ _____    ______ ____
ROOT
ATOM      1  C   UNL     1       1.372   8.866  18.349  0.00  0.00    +0.000 C 
ATOM      2  O   UNL     1       1.695   9.986  17.495  0.00  0.00    +0.000 OA
ATOM      3  C   UNL     1       2.018  11.057  18.402  0.00  0.00    +0.000 C 
ATOM      4  O   UNL     1       2.259  10.482  19.691  0.00  0.00    +0.000 OA
ATOM      5  C   UNL     1       1.236   9.480  19.724  0.00  0.00    +0.000 C 
ATOM      6  C   UNL     1      -0.176  10.082  19.837  0.00  0.00    +0.000 C 
ATOM      7  O   UNL     1      -1.078   9.510  20.447  0.00  0.00    +0.000 OA
ATOM      8  N   UNL     1      -0.372  11.262  19.107  0.00  0.00    +0.000 N 
ATOM      9  C   UNL     1       0.807  12.022  18.570  0.00  0.00    +0.000 C 
ENDROOT
BRANCH   1  11
ATOM     10  O   UNL     1       3.481   7.889  17.638  0.00  0.00    +0.000 OA
ATOM     11  C   UNL     1       2.508   7.828  18.383  0.00  0.00    +0.000 C 
ATOM     12  N   UNL     1       2.305   6.817  19.303  0.00  0.00    +0.000 N 
ATOM     13  H   UNL     1       1.400   6.826  19.765  0.00  0.00    +0.000 HD
BRANCH  12  14
ATOM     14  C   UNL     1       3.083   5.587  19.290  0.00  0.00    +0.000 C 
ATOM     15  C   UNL     1       2.697   4.673  20.460  0.00  0.00    +0.000 C 
ATOM     16  C   UNL     1       1.321   4.021  20.304  0.00  0.00    +0.000 C 
ATOM     17  C   UNL     1       1.087   3.400  18.928  0.00  0.00    +0.000 C 
ATOM     18  C   UNL     1       1.488   4.322  17.782  0.00  0.00    +0.000 C 
ATOM     19  C   UNL     1       2.915   4.836  17.961  0.00  0.00    +0.000 C 
ENDBRANCH  12  14
ENDBRANCH   1  11
BRANCH   8  20
ATOM     20  C   UNL     1      -1.713  11.831  19.013  0.00  0.00    +0.000 C 
BRANCH  20  21
ATOM     21  C   UNL     1      -2.538  11.302  17.858  0.00  0.00    +0.000 A 
ATOM     22  C   UNL     1      -3.886  11.673  17.708  0.00  0.00    +0.000 A 
ATOM     23  C   UNL     1      -4.607  11.308  16.569  0.00  0.00    +0.000 A 
ATOM     24  C   UNL     1      -4.000  10.555  15.566  0.00  0.00    +0.000 A 
ATOM     25  C   UNL     1      -2.680  10.138  15.723  0.00  0.00    +0.000 A 
ATOM     26  C   UNL     1      -1.956  10.502  16.864  0.00  0.00    +0.000 A 
ENDBRANCH  20  21
ENDBRANCH   8  20
BRANCH   9  27
ATOM     27  C   UNL     1       1.215  13.179  19.530  0.00  0.00    +0.000 C 
BRANCH  27  28
ATOM     28  C   UNL     1       1.791  14.414  18.856  0.00  0.00    +0.000 A 
ATOM     29  C   UNL     1       3.013  14.359  18.173  0.00  0.00    +0.000 A 
ATOM     30  C   UNL     1       3.513  15.496  17.527  0.00  0.00    +0.000 A 
ATOM     31  C   UNL     1       2.804  16.694  17.550  0.00  0.00    +0.000 A 
ATOM     32  C   UNL     1       1.593  16.762  18.231  0.00  0.00    +0.000 A 
ATOM     33  C   UNL     1       1.090  15.632  18.884  0.00  0.00    +0.000 A 
ENDBRANCH  27  28
ENDBRANCH   9  27
TORSDOF 6
ENDMDL
MODEL 4
REMARK VINA RESULT:      -7.2      5.146      8.937
REMARK  Name = 
REMARK  6 active torsions:
REMARK  status: ('A' for Active; 'I' for Inactive)
REMARK    1  A    between atoms: C_2  and  C_10
REMARK    2  A    between atoms: N_3  and  C_4
REMARK    3  A    between atoms: N_17  and  C_18
REMARK    4  A    between atoms: C_18  and  C_19
REMARK    5  A    between atoms: C_25  and  C_26
REMARK    6  A    between atoms: C_26  and  C_27
REMARK                            x       y       z     vdW  Elec       q    Type
REMARK                         _______ _______ _______ _____ _____    ______ ____
ROOT
ATOM      1  C   UNL     1       1.217   9.733  19.678  0.00  0.00    +0.000 C 
ATOM      2  O   UNL     1      -0.165   9.379  19.903  0.00  0.00    +0.000 OA
ATOM      3  C   UNL     1      -0.921  10.436  19.284  0.00  0.00    +0.000 C 
ATOM      4  O   UNL     1      -0.041  11.148  18.406  0.00  0.00    +0.000 OA
ATOM      5  C   UNL     1       1.155  11.165  19.196  0.00  0.00    +0.000 C 
ATOM      6  C   UNL     1       1.033  12.076  20.430  0.00  0.00    +0.000 C 
ATOM      7  O   UNL     1       1.998  12.696  20.876  0.00  0.00    +0.000 OA
ATOM      8  N   UNL     1      -0.221  12.055  21.055  0.00  0.00    +0.000 N 
ATOM      9  C   UNL     1      -1.406  11.464  20.348  0.00  0.00    +0.000 C 
ENDROOT
BRANCH   1  11
ATOM     10  O   UNL     1       2.007   9.273  17.426  0.00  0.00    +0.000 OA
ATOM     11  C   UNL     1       1.856   8.870  18.576  0.00  0.00    +0.000 C 
ATOM     12  N   UNL     1       2.206   7.603  18.999  0.00  0.00    +0.000 N 
ATOM     13  H   UNL     1       1.913   7.364  19.943  0.00  0.00    +0.000 HD
BRANCH  12  14
ATOM     14  C   UNL     1       2.534   6.534  18.067  0.00  0.00    +0.000 C 
ATOM     15  C   UNL     1       4.040   6.239  18.066  0.00  0.00    +0.000 C 
ATOM     16  C   UNL     1       4.529   5.534  19.333  0.00  0.00    +0.000 C 
ATOM     17  C   UNL     1       3.664   4.345  19.748  0.00  0.00    +0.000 C 
ATOM     18  C   UNL     1       2.172   4.658  19.730  0.00  0.00    +0.000 C 
ATOM     19  C   UNL     1       1.750   5.254  18.389  0.00  0.00    +0.000 C 
ENDBRANCH  12  14
ENDBRANCH   1  11
BRANCH   8  20
ATOM     20  C   UNL     1      -0.400  12.756  22.324  0.00  0.00    +0.000 C 
BRANCH  20  21
ATOM     21  C   UNL     1      -1.844  13.022  22.695  0.00  0.00    +0.000 A 
ATOM     22  C   UNL     1      -2.614  12.035  23.335  0.00  0.00    +0.000 A 
ATOM     23  C   UNL     1      -3.896  12.323  23.810  0.00  0.00    +0.000 A 
ATOM     24  C   UNL     1      -4.436  13.597  23.642  0.00  0.00    +0.000 A 
ATOM     25  C   UNL     1      -3.704  14.570  22.966  0.00  0.00    +0.000 A 
ATOM     26  C   UNL     1      -2.420  14.284  22.489  0.00  0.00    +0.000 A 
ENDBRANCH  20  21
ENDBRANCH   8  20
BRANCH   9  27
ATOM     27  C   UNL     1      -2.246  12.566  19.638  0.00  0.00    +0.000 C 
BRANCH  27  28
ATOM     28  C   UNL     1      -3.670  12.174  19.279  0.00  0.00    +0.000 A 
ATOM     29  C   UNL     1      -3.958  11.535  18.066  0.00  0.00    +0.000 A 
ATOM     30  C   UNL     1      -5.269  11.147  17.765  0.00  0.00    +0.000 A 
ATOM     31  C   UNL     1      -6.304  11.386  18.667  0.00  0.00    +0.000 A 
ATOM     32  C   UNL     1      -6.030  12.025  19.872  0.00  0.00    +0.000 A 
ATOM     33  C   UNL     1      -4.724  12.421  20.176  0.00  0.00    +0.000 A 
ENDBRANCH  27  28
ENDBRANCH   9  27
TORSDOF 6
ENDMDL
MODEL 5
REMARK VINA RESULT:      -7.1      4.523      8.127
REMARK  Name = 
REMARK  6 active torsions:
REMARK  status: ('A' for Active; 'I' for Inactive)
REMARK    1  A    between atoms: C_2  and  C_10
REMARK    2  A    between atoms: N_3  and  C_4
REMARK    3  A    between atoms: N_17  and  C_18
REMARK    4  A    between atoms: C_18  and  C_19
REMARK    5  A    between atoms: C_25  and  C_26
REMARK    6  A    between atoms: C_26  and  C_27
REMARK                            x       y       z     vdW  Elec       q    Type
REMARK                         _______ _______ _______ _____ _____    ______ ____
ROOT
ATOM      1  C   UNL     1       1.329   8.913  18.379  0.00  0.00    +0.000 C 
ATOM      2  O   UNL     1       1.611  10.071  17.562  0.00  0.00    +0.000 OA
ATOM      3  C   UNL     1       1.918  11.118  18.501  0.00  0.00    +0.000 C 
ATOM      4  O   UNL     1       2.191  10.505  19.767  0.00  0.00    +0.000 OA
ATOM      5  C   UNL     1       1.195   9.475  19.777  0.00  0.00    +0.000 C 
ATOM      6  C   UNL     1      -0.231  10.035  19.928  0.00  0.00    +0.000 C 
ATOM      7  O   UNL     1      -1.109   9.418  20.529  0.00  0.00    +0.000 OA
ATOM      8  N   UNL     1      -0.467  11.235  19.242  0.00  0.00    +0.000 N 
ATOM      9  C   UNL     1       0.685  12.043  18.718  0.00  0.00    +0.000 C 
ENDROOT
BRANCH   1  11
ATOM     10  O   UNL     1       3.453   8.018  17.609  0.00  0.00    +0.000 OA
ATOM     11  C   UNL     1       2.492   7.906  18.364  0.00  0.00    +0.000 C 
ATOM     12  N   UNL     1       2.328   6.859  19.250  0.00  0.00    +0.000 N 
ATOM     13  H   UNL     1       1.430   6.828  19.724  0.00  0.00    +0.000 HD
BRANCH  12  14
ATOM     14  C   UNL     1       3.138   5.651  19.185  0.00  0.00    +0.000 C 
ATOM     15  C   UNL     1       2.834   4.713  20.360  0.00  0.00    +0.000 C 
ATOM     16  C   UNL     1       1.470   4.025  20.261  0.00  0.00    +0.000 C 
ATOM     17  C   UNL     1       1.187   3.413  18.890  0.00  0.00    +0.000 C 
ATOM     18  C   UNL     1       1.508   4.359  17.738  0.00  0.00    +0.000 C 
ATOM     19  C   UNL     1       2.927   4.911  17.856  0.00  0.00    +0.000 C 
ENDBRANCH  12  14
ENDBRANCH   1  11
BRANCH   8  20
ATOM     20  C   UNL     1      -1.824  11.770  19.185  0.00  0.00    +0.000 C 
BRANCH  20  21
ATOM     21  C   UNL     1      -2.579  11.428  17.917  0.00  0.00    +0.000 A 
ATOM     22  C   UNL     1      -1.966  10.682  16.895  0.00  0.00    +0.000 A 
ATOM     23  C   UNL     1      -2.701  10.239  15.792  0.00  0.00    +0.000 A 
ATOM     24  C   UNL     1      -4.056  10.544  15.684  0.00  0.00    +0.000 A 
ATOM     25  C   UNL     1      -4.665  11.325  16.665  0.00  0.00    +0.000 A 
ATOM     26  C   UNL     1      -3.932  11.770  17.770  0.00  0.00    +0.000 A 
ENDBRANCH  20  21
ENDBRANCH   8  20
BRANCH   9  27
ATOM     27  C   UNL     1       1.074  13.177  19.712  0.00  0.00    +0.000 C 
BRANCH  27  28
ATOM     28  C   UNL     1       0.982  14.590  19.160  0.00  0.00    +0.000 A 
ATOM     29  C   UNL     1       2.134  15.295  18.786  0.00  0.00    +0.000 A 
ATOM     30  C   UNL     1       2.031  16.582  18.245  0.00  0.00    +0.000 A 
ATOM     31  C   UNL     1       0.784  17.179  18.068  0.00  0.00    +0.000 A 
ATOM     32  C   UNL     1      -0.365  16.491  18.442  0.00  0.00    +0.000 A 
ATOM     33  C   UNL     1      -0.269  15.207  18.989  0.00  0.00    +0.000 A 
ENDBRANCH  27  28
ENDBRANCH   9  27
TORSDOF 6
ENDMDL
MODEL 6
REMARK VINA RESULT:      -7.1      6.086     11.320
REMARK  Name = 
REMARK  6 active torsions:
REMARK  status: ('A' for Active; 'I' for Inactive)
REMARK    1  A    between atoms: C_2  and  C_10
REMARK    2  A    between atoms: N_3  and  C_4
REMARK    3  A    between atoms: N_17  and  C_18
REMARK    4  A    between atoms: C_18  and  C_19
REMARK    5  A    between atoms: C_25  and  C_26
REMARK    6  A    between atoms: C_26  and  C_27
REMARK                            x       y       z     vdW  Elec       q    Type
REMARK                         _______ _______ _______ _____ _____    ______ ____
ROOT
ATOM      1  C   UNL     1      -2.210  11.861  17.923  0.00  0.00    +0.000 C 
ATOM      2  O   UNL     1      -1.094  11.214  17.271  0.00  0.00    +0.000 OA
ATOM      3  C   UNL     1      -0.661  10.203  18.201  0.00  0.00    +0.000 C 
ATOM      4  O   UNL     1      -1.711  10.008  19.156  0.00  0.00    +0.000 OA
ATOM      5  C   UNL     1      -2.142  11.361  19.348  0.00  0.00    +0.000 C 
ATOM      6  C   UNL     1      -1.101  12.210  20.099  0.00  0.00    +0.000 C 
ATOM      7  O   UNL     1      -1.433  13.117  20.862  0.00  0.00    +0.000 OA
ATOM      8  N   UNL     1       0.232  11.939  19.763  0.00  0.00    +0.000 N 
ATOM      9  C   UNL     1       0.580  10.690  19.006  0.00  0.00    +0.000 C 
ENDROOT
BRANCH   1  11
ATOM     10  O   UNL     1      -3.710  11.259  16.108  0.00  0.00    +0.000 OA
ATOM     11  C   UNL     1      -3.555  11.429  17.314  0.00  0.00    +0.000 C 
ATOM     12  N   UNL     1      -4.564  11.286  18.247  0.00  0.00    +0.000 N 
ATOM     13  H   UNL     1      -4.326  11.576  19.191  0.00  0.00    +0.000 HD
BRANCH  12  14
ATOM     14  C   UNL     1      -5.966  11.189  17.867  0.00  0.00    +0.000 C 
ATOM     15  C   UNL     1      -6.769  10.395  18.905  0.00  0.00    +0.000 C 
ATOM     16  C   UNL     1      -6.987  11.147  20.221  0.00  0.00    +0.000 C 
ATOM     17  C   UNL     1      -7.465  12.586  20.034  0.00  0.00    +0.000 C 
ATOM     18  C   UNL     1      -6.660  13.351  18.990  0.00  0.00    +0.000 C 
ATOM     19  C   UNL     1      -6.589  12.579  17.674  0.00  0.00    +0.000 C 
ENDBRANCH  12  14
ENDBRANCH   1  11
BRANCH   8  20
ATOM     20  C   UNL     1       1.291  12.792  20.295  0.00  0.00    +0.000 C 
BRANCH  20  21
ATOM     21  C   UNL     1       1.728  13.903  19.361  0.00  0.00    +0.000 A 
ATOM     22  C   UNL     1       1.035  15.126  19.327  0.00  0.00    +0.000 A 
ATOM     23  C   UNL     1       1.519  16.203  18.579  0.00  0.00    +0.000 A 
ATOM     24  C   UNL     1       2.695  16.073  17.843  0.00  0.00    +0.000 A 
ATOM     25  C   UNL     1       3.365  14.851  17.828  0.00  0.00    +0.000 A 
ATOM     26  C   UNL     1       2.882  13.772  18.576  0.00  0.00    +0.000 A 
ENDBRANCH  20  21
ENDBRANCH   8  20
BRANCH   9  27
ATOM     27  C   UNL     1       1.032   9.554  19.971  0.00  0.00    +0.000 C 
BRANCH  27  28
ATOM     28  C   UNL     1       1.819   8.425  19.328  0.00  0.00    +0.000 A 
ATOM     29  C   UNL     1       2.395   8.578  18.059  0.00  0.00    +0.000 A 
ATOM     30  C   UNL     1       3.147   7.541  17.494  0.00  0.00    +0.000 A 
ATOM     31  C   UNL     1       3.339   6.347  18.185  0.00  0.00    +0.000 A 
ATOM     32  C   UNL     1       2.768   6.181  19.442  0.00  0.00    +0.000 A 
ATOM     33  C   UNL     1       2.009   7.211  20.010  0.00  0.00    +0.000 A 
ENDBRANCH  27  28
ENDBRANCH   9  27
TORSDOF 6
ENDMDL
MODEL 7
REMARK VINA RESULT:      -6.9      5.732     10.496
REMARK  Name = 
REMARK  6 active torsions:
REMARK  status: ('A' for Active; 'I' for Inactive)
REMARK    1  A    between atoms: C_2  and  C_10
REMARK    2  A    between atoms: N_3  and  C_4
REMARK    3  A    between atoms: N_17  and  C_18
REMARK    4  A    between atoms: C_18  and  C_19
REMARK    5  A    between atoms: C_25  and  C_26
REMARK    6  A    between atoms: C_26  and  C_27
REMARK                            x       y       z     vdW  Elec       q    Type
REMARK                         _______ _______ _______ _____ _____    ______ ____
ROOT
ATOM      1  C   UNL     1       0.910  13.123  20.676  0.00  0.00    +0.000 C 
ATOM      2  O   UNL     1       1.430  11.846  21.107  0.00  0.00    +0.000 OA
ATOM      3  C   UNL     1       1.810  11.174  19.891  0.00  0.00    +0.000 C 
ATOM      4  O   UNL     1       1.880  12.158  18.851  0.00  0.00    +0.000 OA
ATOM      5  C   UNL     1       0.744  12.966  19.181  0.00  0.00    +0.000 C 
ATOM      6  C   UNL     1      -0.590  12.242  18.926  0.00  0.00    +0.000 C 
ATOM      7  O   UNL     1      -1.598  12.848  18.566  0.00  0.00    +0.000 OA
ATOM      8  N   UNL     1      -0.585  10.875  19.238  0.00  0.00    +0.000 N 
ATOM      9  C   UNL     1       0.714  10.156  19.458  0.00  0.00    +0.000 C 
ENDROOT
BRANCH   1  11
ATOM     10  O   UNL     1       2.274  14.570  22.073  0.00  0.00    +0.000 OA
ATOM     11  C   UNL     1       1.908  14.265  20.943  0.00  0.00    +0.000 C 
ATOM     12  N   UNL     1       2.315  14.922  19.798  0.00  0.00    +0.000 N 
ATOM     13  H   UNL     1       1.839  14.642  18.944  0.00  0.00    +0.000 HD
BRANCH  12  14
ATOM     14  C   UNL     1       3.000  16.205  19.840  0.00  0.00    +0.000 C 
ATOM     15  C   UNL     1       3.942  16.373  18.641  0.00  0.00    +0.000 C 
ATOM     16  C   UNL     1       3.213  16.598  17.313  0.00  0.00    +0.000 C 
ATOM     17  C   UNL     1       2.109  17.652  17.388  0.00  0.00    +0.000 C 
ATOM     18  C   UNL     1       1.194  17.472  18.595  0.00  0.00    +0.000 C 
ATOM     19  C   UNL     1       2.000  17.369  19.888  0.00  0.00    +0.000 C 
ENDBRANCH  12  14
ENDBRANCH   1  11
BRANCH   8  20
ATOM     20  C   UNL     1      -1.838  10.126  19.187  0.00  0.00    +0.000 C 
BRANCH  20  21
ATOM     21  C   UNL     1      -2.588  10.250  17.877  0.00  0.00    +0.000 A 
ATOM     22  C   UNL     1      -3.850  10.867  17.827  0.00  0.00    +0.000 A 
ATOM     23  C   UNL     1      -4.479  11.115  16.604  0.00  0.00    +0.000 A 
ATOM     24  C   UNL     1      -3.864  10.739  15.411  0.00  0.00    +0.000 A 
ATOM     25  C   UNL     1      -2.636  10.081  15.447  0.00  0.00    +0.000 A 
ATOM     26  C   UNL     1      -2.005   9.832  16.671  0.00  0.00    +0.000 A 
ENDBRANCH  20  21
ENDBRANCH   8  20
BRANCH   9  27
ATOM     27  C   UNL     1       1.183   9.432  18.161  0.00  0.00    +0.000 C 
BRANCH  27  28
ATOM     28  C   UNL     1       2.068   8.215  18.375  0.00  0.00    +0.000 A 
ATOM     29  C   UNL     1       3.050   7.863  17.440  0.00  0.00    +0.000 A 
ATOM     30  C   UNL     1       3.881   6.761  17.668  0.00  0.00    +0.000 A 
ATOM     31  C   UNL     1       3.749   6.001  18.828  0.00  0.00    +0.000 A 
ATOM     32  C   UNL     1       2.774   6.337  19.761  0.00  0.00    +0.000 A 
ATOM     33  C   UNL     1       1.935   7.434  19.536  0.00  0.00    +0.000 A 
ENDBRANCH  27  28
ENDBRANCH   9  27
TORSDOF 6
ENDMDL
MODEL 8
REMARK VINA RESULT:      -6.9      6.128     10.674
REMARK  Name = 
REMARK  6 active torsions:
REMARK  status: ('A' for Active; 'I' for Inactive)
REMARK    1  A    between atoms: C_2  and  C_10
REMARK    2  A    between atoms: N_3  and  C_4
REMARK    3  A    between atoms: N_17  and  C_18
REMARK    4  A    between atoms: C_18  and  C_19
REMARK    5  A    between atoms: C_25  and  C_26
REMARK    6  A    between atoms: C_26  and  C_27
REMARK                            x       y       z     vdW  Elec       q    Type
REMARK                         _______ _______ _______ _____ _____    ______ ____
ROOT
ATOM      1  C   UNL     1       0.900  12.993  21.204  0.00  0.00    +0.000 C 
ATOM      2  O   UNL     1       0.810  12.676  19.797  0.00  0.00    +0.000 OA
ATOM      3  C   UNL     1      -0.534  12.195  19.613  0.00  0.00    +0.000 C 
ATOM      4  O   UNL     1      -1.300  12.587  20.759  0.00  0.00    +0.000 OA
ATOM      5  C   UNL     1      -0.341  12.367  21.800  0.00  0.00    +0.000 C 
ATOM      6  C   UNL     1      -0.054  10.873  22.032  0.00  0.00    +0.000 C 
ATOM      7  O   UNL     1       0.213  10.430  23.148  0.00  0.00    +0.000 OA
ATOM      8  N   UNL     1      -0.018  10.094  20.867  0.00  0.00    +0.000 N 
ATOM      9  C   UNL     1      -0.563  10.638  19.578  0.00  0.00    +0.000 C 
ENDROOT
BRANCH   1  11
ATOM     10  O   UNL     1       1.106  15.010  22.543  0.00  0.00    +0.000 OA
ATOM     11  C   UNL     1       0.853  14.511  21.451  0.00  0.00    +0.000 C 
ATOM     12  N   UNL     1       0.471  15.240  20.342  0.00  0.00    +0.000 N 
ATOM     13  H   UNL     1       0.176  14.688  19.540  0.00  0.00    +0.000 HD
BRANCH  12  14
ATOM     14  C   UNL     1       0.067  16.636  20.430  0.00  0.00    +0.000 C 
ATOM     15  C   UNL     1       1.266  17.575  20.241  0.00  0.00    +0.000 C 
ATOM     16  C   UNL     1       1.787  17.625  18.802  0.00  0.00    +0.000 C 
ATOM     17  C   UNL     1       0.688  17.803  17.756  0.00  0.00    +0.000 C 
ATOM     18  C   UNL     1      -0.497  16.868  17.971  0.00  0.00    +0.000 C 
ATOM     19  C   UNL     1      -1.024  16.966  19.401  0.00  0.00    +0.000 C 
ENDBRANCH  12  14
ENDBRANCH   1  11
BRANCH   8  20
ATOM     20  C   UNL     1       0.403   8.698  20.953  0.00  0.00    +0.000 C 
BRANCH  20  21
ATOM     21  C   UNL     1       1.423   8.286  19.913  0.00  0.00    +0.000 A 
ATOM     22  C   UNL     1       2.141   7.085  20.046  0.00  0.00    +0.000 A 
ATOM     23  C   UNL     1       2.973   6.629  19.021  0.00  0.00    +0.000 A 
ATOM     24  C   UNL     1       3.113   7.371  17.849  0.00  0.00    +0.000 A 
ATOM     25  C   UNL     1       2.446   8.588  17.723  0.00  0.00    +0.000 A 
ATOM     26  C   UNL     1       1.613   9.047  18.749  0.00  0.00    +0.000 A 
ENDBRANCH  20  21
ENDBRANCH   8  20
BRANCH   9  27
ATOM     27  C   UNL     1      -2.029  10.167  19.344  0.00  0.00    +0.000 C 
BRANCH  27  28
ATOM     28  C   UNL     1      -2.593  10.448  17.962  0.00  0.00    +0.000 A 
ATOM     29  C   UNL     1      -2.009   9.890  16.817  0.00  0.00    +0.000 A 
ATOM     30  C   UNL     1      -2.561  10.129  15.553  0.00  0.00    +0.000 A 
ATOM     31  C   UNL     1      -3.700  10.921  15.415  0.00  0.00    +0.000 A 
ATOM     32  C   UNL     1      -4.284  11.485  16.544  0.00  0.00    +0.000 A 
ATOM     33  C   UNL     1      -3.733  11.256  17.809  0.00  0.00    +0.000 A 
ENDBRANCH  27  28
ENDBRANCH   9  27
TORSDOF 6
ENDMDL
MODEL 9
REMARK VINA RESULT:      -6.9      5.581     10.199
REMARK  Name = 
REMARK  6 active torsions:
REMARK  status: ('A' for Active; 'I' for Inactive)
REMARK    1  A    between atoms: C_2  and  C_10
REMARK    2  A    between atoms: N_3  and  C_4
REMARK    3  A    between atoms: N_17  and  C_18
REMARK    4  A    between atoms: C_18  and  C_19
REMARK    5  A    between atoms: C_25  and  C_26
REMARK    6  A    between atoms: C_26  and  C_27
REMARK                            x       y       z     vdW  Elec       q    Type
REMARK                         _______ _______ _______ _____ _____    ______ ____
ROOT
ATOM      1  C   UNL     1       1.962  12.826  19.236  0.00  0.00    +0.000 C 
ATOM      2  O   UNL     1       1.527  12.147  18.037  0.00  0.00    +0.000 OA
ATOM      3  C   UNL     1       0.119  11.919  18.233  0.00  0.00    +0.000 C 
ATOM      4  O   UNL     1      -0.317  12.769  19.300  0.00  0.00    +0.000 OA
ATOM      5  C   UNL     1       0.800  12.663  20.191  0.00  0.00    +0.000 C 
ATOM      6  C   UNL     1       0.909  11.271  20.837  0.00  0.00    +0.000 C 
ATOM      7  O   UNL     1       1.342  11.118  21.978  0.00  0.00    +0.000 OA
ATOM      8  N   UNL     1       0.581  10.203  19.991  0.00  0.00    +0.000 N 
ATOM      9  C   UNL     1      -0.143  10.457  18.700  0.00  0.00    +0.000 C 
ENDROOT
BRANCH   1  11
ATOM     10  O   UNL     1       3.235  14.769  18.521  0.00  0.00    +0.000 OA
ATOM     11  C   UNL     1       2.191  14.328  18.992  0.00  0.00    +0.000 C 
ATOM     12  N   UNL     1       1.128  15.119  19.382  0.00  0.00    +0.000 N 
ATOM     13  H   UNL     1       0.379  14.633  19.866  0.00  0.00    +0.000 HD
BRANCH  12  14
ATOM     14  C   UNL     1       1.246  16.563  19.527  0.00  0.00    +0.000 C 
ATOM     15  C   UNL     1       0.940  17.282  18.206  0.00  0.00    +0.000 C 
ATOM     16  C   UNL     1      -0.541  17.257  17.821  0.00  0.00    +0.000 C 
ATOM     17  C   UNL     1      -1.481  17.634  18.966  0.00  0.00    +0.000 C 
ATOM     18  C   UNL     1      -1.150  16.916  20.270  0.00  0.00    +0.000 C 
ATOM     19  C   UNL     1       0.323  17.088  20.635  0.00  0.00    +0.000 C 
ENDBRANCH  12  14
ENDBRANCH   1  11
BRANCH   8  20
ATOM     20  C   UNL     1       0.802   8.834  20.449  0.00  0.00    +0.000 C 
BRANCH  20  21
ATOM     21  C   UNL     1       1.816   8.057  19.634  0.00  0.00    +0.000 A 
ATOM     22  C   UNL     1       2.247   6.785  20.048  0.00  0.00    +0.000 A 
ATOM     23  C   UNL     1       3.067   6.004  19.229  0.00  0.00    +0.000 A 
ATOM     24  C   UNL     1       3.482   6.486  17.989  0.00  0.00    +0.000 A 
ATOM     25  C   UNL     1       3.104   7.766  17.587  0.00  0.00    +0.000 A 
ATOM     26  C   UNL     1       2.283   8.549  18.406  0.00  0.00    +0.000 A 
ENDBRANCH  20  21
ENDBRANCH   8  20
BRANCH   9  27
ATOM     27  C   UNL     1      -1.678  10.249  18.865  0.00  0.00    +0.000 C 
BRANCH  27  28
ATOM     28  C   UNL     1      -2.498  10.401  17.595  0.00  0.00    +0.000 A 
ATOM     29  C   UNL     1      -3.634  11.221  17.564  0.00  0.00    +0.000 A 
ATOM     30  C   UNL     1      -4.360  11.379  16.377  0.00  0.00    +0.000 A 
ATOM     31  C   UNL     1      -3.961  10.730  15.211  0.00  0.00    +0.000 A 
ATOM     32  C   UNL     1      -2.839   9.909  15.231  0.00  0.00    +0.000 A 
ATOM     33  C   UNL     1      -2.113   9.741  16.416  0.00  0.00    +0.000 A 
ENDBRANCH  27  28
ENDBRANCH   9  27
TORSDOF 6
ENDMDL
