MODEL 1
REMARK VINA RESULT:      -7.1      0.000      0.000
REMARK  Name = 
REMARK  8 active torsions:
REMARK  status: ('A' for Active; 'I' for Inactive)
REMARK    1  A    between atoms: C_1  and  C_2
REMARK    2  A    between atoms: C_5  and  C_6
REMARK    3  A    between atoms: C_6  and  C_7
REMARK    4  A    between atoms: N_14  and  S_15
REMARK    5  A    between atoms: S_15  and  C_18
REMARK    6  A    between atoms: C_19  and  C_20
REMARK    7  A    between atoms: N_22  and  C_23
REMARK    8  A    between atoms: C_24  and  C_25
REMARK                            x       y       z     vdW  Elec       q    Type
REMARK                         _______ _______ _______ _____ _____    ______ ____
ROOT
ATOM      1  C   UNL     1      -6.045  12.575  18.497  0.00  0.00    +0.000 C 
ATOM      2  C   UNL     1      -7.400  13.249  18.256  0.00  0.00    +0.000 C 
ATOM      3  C   UNL     1      -7.683  14.223  19.393  0.00  0.00    +0.000 C 
ATOM      4  O   UNL     1      -7.634  13.589  20.669  0.00  0.00    +0.000 OA
ATOM      5  C   UNL     1      -6.433  12.852  20.971  0.00  0.00    +0.000 C 
ATOM      6  C   UNL     1      -5.223  13.804  21.149  0.00  0.00    +0.000 C 
ATOM      7  C   UNL     1      -5.327  14.662  22.395  0.00  0.00    +0.000 C 
ATOM      8  N   UNL     1      -5.508  13.830  23.601  0.00  0.00    +0.000 NA
ATOM      9  C   UNL     1      -6.774  13.047  23.491  0.00  0.00    +0.000 C 
ATOM     10  C   UNL     1      -6.744  12.102  22.286  0.00  0.00    +0.000 C 
ATOM     11  C   UNL     1      -6.141  11.833  19.839  0.00  0.00    +0.000 C 
ENDROOT
BRANCH   8  12
ATOM     12  S   UNL     1      -4.162  12.962  24.184  0.00  0.00    +0.000 S 
ATOM     13  O   UNL     1      -4.373  12.692  25.588  0.00  0.00    +0.000 OA
ATOM     14  O   UNL     1      -3.886  11.878  23.261  0.00  0.00    +0.000 OA
BRANCH  12  15
ATOM     15  C   UNL     1      -2.744  13.942  24.135  0.00  0.00    +0.000 A 
ATOM     16  C   UNL     1      -1.506  13.596  23.550  0.00  0.00    +0.000 A 
ATOM     17  C   UNL     1      -1.100  12.387  22.791  0.00  0.00    +0.000 C 
ATOM     18  N   UNL     1      -0.596  14.565  23.734  0.00  0.00    +0.000 NA
ATOM     19  N   UNL     1      -1.267  15.544  24.362  0.00  0.00    +0.000 N 
ATOM     20  C   UNL     1      -0.578  16.777  24.667  0.00  0.00    +0.000 C 
ATOM     21  C   UNL     1      -2.575  15.232  24.621  0.00  0.00    +0.000 A 
ATOM     22  C   UNL     1      -3.539  16.171  25.255  0.00  0.00    +0.000 C 
ENDBRANCH  12  15
ENDBRANCH   8  12
BRANCH   1  23
ATOM     23  C   UNL     1      -5.565  11.694  17.331  0.00  0.00    +0.000 C 
BRANCH  23  28
ATOM     24  C   UNL     1      -0.050  10.018  18.234  0.00  0.00    +0.000 C 
ATOM     25  C   UNL     1      -1.454  10.469  17.960  0.00  0.00    +0.000 A 
ATOM     26  C   UNL     1      -2.230   9.846  16.981  0.00  0.00    +0.000 A 
ATOM     27  C   UNL     1      -3.541  10.269  16.744  0.00  0.00    +0.000 A 
ATOM     28  C   UNL     1      -4.109  11.308  17.495  0.00  0.00    +0.000 A 
ATOM     29  C   UNL     1      -3.315  11.955  18.457  0.00  0.00    +0.000 A 
ATOM     30  C   UNL     1      -2.001  11.539  18.679  0.00  0.00    +0.000 A 
ENDBRANCH  23  28
ENDBRANCH   1  23
TORSDOF 4
ENDMDL
MODEL 2
REMARK VINA RESULT:      -6.9      1.050      1.982
REMARK  Name = 
REMARK  8 active torsions:
REMARK  status: ('A' for Active; 'I' for Inactive)
REMARK    1  A    between atoms: C_1  and  C_2
REMARK    2  A    between atoms: C_5  and  C_6
REMARK    3  A    between atoms: C_6  and  C_7
REMARK    4  A    between atoms: N_14  and  S_15
REMARK    5  A    between atoms: S_15  and  C_18
REMARK    6  A    between atoms: C_19  and  C_20
REMARK    7  A    between atoms: N_22  and  C_23
REMARK    8  A    between atoms: C_24  and  C_25
REMARK                            x       y       z     vdW  Elec       q    Type
REMARK                         _______ _______ _______ _____ _____    ______ ____
ROOT
ATOM      1  C   UNL     1      -5.448  12.553  18.646  0.00  0.00    +0.000 C 
ATOM      2  C   UNL     1      -6.690  13.370  18.271  0.00  0.00    +0.000 C 
ATOM      3  C   UNL     1      -6.814  14.556  19.219  0.00  0.00    +0.000 C 
ATOM      4  O   UNL     1      -6.847  14.150  20.585  0.00  0.00    +0.000 OA
ATOM      5  C   UNL     1      -5.766  13.307  21.029  0.00  0.00    +0.000 C 
ATOM      6  C   UNL     1      -4.427  14.084  21.061  0.00  0.00    +0.000 C 
ATOM      7  C   UNL     1      -4.389  15.149  22.139  0.00  0.00    +0.000 C 
ATOM      8  N   UNL     1      -4.680  14.573  23.466  0.00  0.00    +0.000 NA
ATOM      9  C   UNL     1      -6.050  13.980  23.472  0.00  0.00    +0.000 C 
ATOM     10  C   UNL     1      -6.173  12.848  22.448  0.00  0.00    +0.000 C 
ATOM     11  C   UNL     1      -5.641  12.076  20.092  0.00  0.00    +0.000 C 
ENDROOT
BRANCH   8  12
ATOM     12  S   UNL     1      -3.472  13.628  24.212  0.00  0.00    +0.000 S 
ATOM     13  O   UNL     1      -3.296  14.106  25.563  0.00  0.00    +0.000 OA
ATOM     14  O   UNL     1      -3.769  12.231  23.959  0.00  0.00    +0.000 OA
BRANCH  12  15
ATOM     15  C   UNL     1      -1.946  13.890  23.451  0.00  0.00    +0.000 A 
ATOM     16  C   UNL     1      -1.134  15.039  23.578  0.00  0.00    +0.000 A 
ATOM     17  C   UNL     1      -1.308  16.259  24.402  0.00  0.00    +0.000 C 
ATOM     18  N   UNL     1      -0.037  14.941  22.811  0.00  0.00    +0.000 NA
ATOM     19  N   UNL     1      -0.114  13.717  22.264  0.00  0.00    +0.000 N 
ATOM     20  C   UNL     1       0.960  13.267  21.409  0.00  0.00    +0.000 C 
ATOM     21  C   UNL     1      -1.241  13.026  22.624  0.00  0.00    +0.000 A 
ATOM     22  C   UNL     1      -1.528  11.631  22.196  0.00  0.00    +0.000 C 
ENDBRANCH  12  15
ENDBRANCH   8  12
BRANCH   1  23
ATOM     23  C   UNL     1      -5.116  11.424  17.656  0.00  0.00    +0.000 C 
BRANCH  23  28
ATOM     24  C   UNL     1       0.494   9.894  18.120  0.00  0.00    +0.000 C 
ATOM     25  C   UNL     1      -0.939  10.303  17.956  0.00  0.00    +0.000 A 
ATOM     26  C   UNL     1      -1.805   9.574  17.138  0.00  0.00    +0.000 A 
ATOM     27  C   UNL     1      -3.141   9.959  17.003  0.00  0.00    +0.000 A 
ATOM     28  C   UNL     1      -3.645  11.068  17.699  0.00  0.00    +0.000 A 
ATOM     29  C   UNL     1      -2.763  11.820  18.494  0.00  0.00    +0.000 A 
ATOM     30  C   UNL     1      -1.425  11.439  18.614  0.00  0.00    +0.000 A 
ENDBRANCH  23  28
ENDBRANCH   1  23
TORSDOF 4
ENDMDL
MODEL 3
REMARK VINA RESULT:      -6.8      6.935      9.693
REMARK  Name = 
REMARK  8 active torsions:
REMARK  status: ('A' for Active; 'I' for Inactive)
REMARK    1  A    between atoms: C_1  and  C_2
REMARK    2  A    between atoms: C_5  and  C_6
REMARK    3  A    between atoms: C_6  and  C_7
REMARK    4  A    between atoms: N_14  and  S_15
REMARK    5  A    between atoms: S_15  and  C_18
REMARK    6  A    between atoms: C_19  and  C_20
REMARK    7  A    between atoms: N_22  and  C_23
REMARK    8  A    between atoms: C_24  and  C_25
REMARK                            x       y       z     vdW  Elec       q    Type
REMARK                         _______ _______ _______ _____ _____    ______ ____
ROOT
ATOM      1  C   UNL     1       5.810  15.325  18.533  0.00  0.00    +0.000 C 
ATOM      2  C   UNL     1       5.786  16.829  18.830  0.00  0.00    +0.000 C 
ATOM      3  C   UNL     1       4.730  17.113  19.890  0.00  0.00    +0.000 C 
ATOM      4  O   UNL     1       3.443  16.634  19.508  0.00  0.00    +0.000 OA
ATOM      5  C   UNL     1       3.363  15.247  19.128  0.00  0.00    +0.000 C 
ATOM      6  C   UNL     1       3.592  14.318  20.346  0.00  0.00    +0.000 C 
ATOM      7  C   UNL     1       2.463  14.380  21.355  0.00  0.00    +0.000 C 
ATOM      8  N   UNL     1       1.165  14.080  20.719  0.00  0.00    +0.000 NA
ATOM      9  C   UNL     1       0.874  15.093  19.661  0.00  0.00    +0.000 C 
ATOM     10  C   UNL     1       1.937  15.070  18.559  0.00  0.00    +0.000 C 
ATOM     11  C   UNL     1       4.412  14.942  18.026  0.00  0.00    +0.000 C 
ENDROOT
BRANCH   8  12
ATOM     12  S   UNL     1       0.835  12.463  20.292  0.00  0.00    +0.000 S 
ATOM     13  O   UNL     1       1.513  12.178  19.050  0.00  0.00    +0.000 OA
ATOM     14  O   UNL     1       1.057  11.632  21.460  0.00  0.00    +0.000 OA
BRANCH  12  15
ATOM     15  C   UNL     1      -0.840  12.264  19.933  0.00  0.00    +0.000 A 
ATOM     16  C   UNL     1      -1.393  11.370  18.989  0.00  0.00    +0.000 A 
ATOM     17  C   UNL     1      -0.745  10.353  18.126  0.00  0.00    +0.000 C 
ATOM     18  N   UNL     1      -2.727  11.506  18.919  0.00  0.00    +0.000 NA
ATOM     19  N   UNL     1      -3.024  12.419  19.858  0.00  0.00    +0.000 N 
ATOM     20  C   UNL     1      -4.409  12.762  20.083  0.00  0.00    +0.000 C 
ATOM     21  C   UNL     1      -1.925  12.906  20.515  0.00  0.00    +0.000 A 
ATOM     22  C   UNL     1      -1.996  13.882  21.635  0.00  0.00    +0.000 C 
ENDBRANCH  12  15
ENDBRANCH   8  12
BRANCH   1  23
ATOM     23  C   UNL     1       6.953  14.886  17.601  0.00  0.00    +0.000 C 
BRANCH  23  28
ATOM     24  C   UNL     1      11.158  11.855  20.277  0.00  0.00    +0.000 C 
ATOM     25  C   UNL     1      10.045  12.616  19.620  0.00  0.00    +0.000 A 
ATOM     26  C   UNL     1       9.471  13.727  20.241  0.00  0.00    +0.000 A 
ATOM     27  C   UNL     1       8.441  14.434  19.614  0.00  0.00    +0.000 A 
ATOM     28  C   UNL     1       7.981  14.058  18.343  0.00  0.00    +0.000 A 
ATOM     29  C   UNL     1       8.538  12.920  17.735  0.00  0.00    +0.000 A 
ATOM     30  C   UNL     1       9.555  12.208  18.373  0.00  0.00    +0.000 A 
ENDBRANCH  23  28
ENDBRANCH   1  23
TORSDOF 4
ENDMDL
MODEL 4
REMARK VINA RESULT:      -6.8      4.011      6.939
REMARK  Name = 
REMARK  8 active torsions:
REMARK  status: ('A' for Active; 'I' for Inactive)
REMARK    1  A    between atoms: C_1  and  C_2
REMARK    2  A    between atoms: C_5  and  C_6
REMARK    3  A    between atoms: C_6  and  C_7
REMARK    4  A    between atoms: N_14  and  S_15
REMARK    5  A    between atoms: S_15  and  C_18
REMARK    6  A    between atoms: C_19  and  C_20
REMARK    7  A    between atoms: N_22  and  C_23
REMARK    8  A    between atoms: C_24  and  C_25
REMARK                            x       y       z     vdW  Elec       q    Type
REMARK                         _______ _______ _______ _____ _____    ______ ____
ROOT
ATOM      1  C   UNL     1       1.598   8.526  19.920  0.00  0.00    +0.000 C 
ATOM      2  C   UNL     1       1.747   8.583  18.395  0.00  0.00    +0.000 C 
ATOM      3  C   UNL     1       1.756  10.039  17.947  0.00  0.00    +0.000 C 
ATOM      4  O   UNL     1       0.597  10.744  18.386  0.00  0.00    +0.000 OA
ATOM      5  C   UNL     1       0.312  10.690  19.798  0.00  0.00    +0.000 C 
ATOM      6  C   UNL     1       1.371  11.474  20.613  0.00  0.00    +0.000 C 
ATOM      7  C   UNL     1       1.298  12.971  20.386  0.00  0.00    +0.000 C 
ATOM      8  N   UNL     1      -0.055  13.488  20.672  0.00  0.00    +0.000 NA
ATOM      9  C   UNL     1      -1.045  12.849  19.755  0.00  0.00    +0.000 C 
ATOM     10  C   UNL     1      -1.087  11.330  19.949  0.00  0.00    +0.000 C 
ATOM     11  C   UNL     1       0.270   9.213  20.270  0.00  0.00    +0.000 C 
ENDROOT
BRANCH   8  12
ATOM     12  S   UNL     1      -0.540  13.605  22.302  0.00  0.00    +0.000 S 
ATOM     13  O   UNL     1      -0.544  12.276  22.868  0.00  0.00    +0.000 OA
ATOM     14  O   UNL     1       0.223  14.668  22.927  0.00  0.00    +0.000 OA
BRANCH  12  15
ATOM     15  C   UNL     1      -2.179  14.131  22.408  0.00  0.00    +0.000 A 
ATOM     16  C   UNL     1      -2.724  15.297  21.825  0.00  0.00    +0.000 A 
ATOM     17  C   UNL     1      -2.103  16.319  20.948  0.00  0.00    +0.000 C 
ATOM     18  N   UNL     1      -4.019  15.437  22.146  0.00  0.00    +0.000 NA
ATOM     19  N   UNL     1      -4.313  14.338  22.859  0.00  0.00    +0.000 N 
ATOM     20  C   UNL     1      -5.668  14.148  23.322  0.00  0.00    +0.000 C 
ATOM     21  C   UNL     1      -3.243  13.502  23.041  0.00  0.00    +0.000 A 
ATOM     22  C   UNL     1      -3.325  12.195  23.746  0.00  0.00    +0.000 C 
ENDBRANCH  12  15
ENDBRANCH   8  12
BRANCH   1  23
ATOM     23  C   UNL     1       1.747   7.116  20.514  0.00  0.00    +0.000 C 
BRANCH  23  28
ATOM     24  C   UNL     1       4.476   3.763  16.597  0.00  0.00    +0.000 C 
ATOM     25  C   UNL     1       3.795   4.599  17.639  0.00  0.00    +0.000 A 
ATOM     26  C   UNL     1       4.511   5.536  18.388  0.00  0.00    +0.000 A 
ATOM     27  C   UNL     1       3.862   6.316  19.348  0.00  0.00    +0.000 A 
ATOM     28  C   UNL     1       2.482   6.193  19.564  0.00  0.00    +0.000 A 
ATOM     29  C   UNL     1       1.770   5.226  18.833  0.00  0.00    +0.000 A 
ATOM     30  C   UNL     1       2.426   4.438  17.886  0.00  0.00    +0.000 A 
ENDBRANCH  23  28
ENDBRANCH   1  23
TORSDOF 4
ENDMDL
MODEL 5
REMARK VINA RESULT:      -6.7      5.474      7.663
REMARK  Name = 
REMARK  8 active torsions:
REMARK  status: ('A' for Active; 'I' for Inactive)
REMARK    1  A    between atoms: C_1  and  C_2
REMARK    2  A    between atoms: C_5  and  C_6
REMARK    3  A    between atoms: C_6  and  C_7
REMARK    4  A    between atoms: N_14  and  S_15
REMARK    5  A    between atoms: S_15  and  C_18
REMARK    6  A    between atoms: C_19  and  C_20
REMARK    7  A    between atoms: N_22  and  C_23
REMARK    8  A    between atoms: C_24  and  C_25
REMARK                            x       y       z     vdW  Elec       q    Type
REMARK                         _______ _______ _______ _____ _____    ______ ____
ROOT
ATOM      1  C   UNL     1       0.824   9.420  20.697  0.00  0.00    +0.000 C 
ATOM      2  C   UNL     1      -0.527   9.185  20.010  0.00  0.00    +0.000 C 
ATOM      3  C   UNL     1      -0.906  10.428  19.216  0.00  0.00    +0.000 C 
ATOM      4  O   UNL     1      -0.930  11.599  20.029  0.00  0.00    +0.000 OA
ATOM      5  C   UNL     1       0.263  11.875  20.788  0.00  0.00    +0.000 C 
ATOM      6  C   UNL     1       1.438  12.273  19.860  0.00  0.00    +0.000 C 
ATOM      7  C   UNL     1       1.232  13.619  19.194  0.00  0.00    +0.000 C 
ATOM      8  N   UNL     1       0.988  14.676  20.195  0.00  0.00    +0.000 NA
ATOM      9  C   UNL     1      -0.251  14.366  20.968  0.00  0.00    +0.000 C 
ATOM     10  C   UNL     1      -0.120  13.042  21.726  0.00  0.00    +0.000 C 
ATOM     11  C   UNL     1       0.653  10.629  21.628  0.00  0.00    +0.000 C 
ENDROOT
BRANCH   8  12
ATOM     12  S   UNL     1       2.310  15.220  21.124  0.00  0.00    +0.000 S 
ATOM     13  O   UNL     1       1.843  16.268  22.002  0.00  0.00    +0.000 OA
ATOM     14  O   UNL     1       2.994  14.060  21.663  0.00  0.00    +0.000 OA
BRANCH  12  15
ATOM     15  C   UNL     1       3.482  15.984  20.116  0.00  0.00    +0.000 A 
ATOM     16  C   UNL     1       3.220  16.754  18.961  0.00  0.00    +0.000 A 
ATOM     17  C   UNL     1       1.934  17.166  18.347  0.00  0.00    +0.000 C 
ATOM     18  N   UNL     1       4.360  17.158  18.381  0.00  0.00    +0.000 NA
ATOM     19  N   UNL     1       5.331  16.714  19.195  0.00  0.00    +0.000 N 
ATOM     20  C   UNL     1       6.705  17.031  18.880  0.00  0.00    +0.000 C 
ATOM     21  C   UNL     1       4.862  16.007  20.271  0.00  0.00    +0.000 A 
ATOM     22  C   UNL     1       5.734  15.462  21.346  0.00  0.00    +0.000 C 
ENDBRANCH  12  15
ENDBRANCH   8  12
BRANCH   1  23
ATOM     23  C   UNL     1       1.400   8.175  21.393  0.00  0.00    +0.000 C 
BRANCH  23  28
ATOM     24  C   UNL     1       2.724   4.124  17.408  0.00  0.00    +0.000 C 
ATOM     25  C   UNL     1       2.431   5.172  18.440  0.00  0.00    +0.000 A 
ATOM     26  C   UNL     1       2.647   6.525  18.171  0.00  0.00    +0.000 A 
ATOM     27  C   UNL     1       2.359   7.493  19.137  0.00  0.00    +0.000 A 
ATOM     28  C   UNL     1       1.829   7.129  20.384  0.00  0.00    +0.000 A 
ATOM     29  C   UNL     1       1.644   5.765  20.665  0.00  0.00    +0.000 A 
ATOM     30  C   UNL     1       1.947   4.801  19.701  0.00  0.00    +0.000 A 
ENDBRANCH  23  28
ENDBRANCH   1  23
TORSDOF 4
ENDMDL
MODEL 6
REMARK VINA RESULT:      -6.7      4.614      8.083
REMARK  Name = 
REMARK  8 active torsions:
REMARK  status: ('A' for Active; 'I' for Inactive)
REMARK    1  A    between atoms: C_1  and  C_2
REMARK    2  A    between atoms: C_5  and  C_6
REMARK    3  A    between atoms: C_6  and  C_7
REMARK    4  A    between atoms: N_14  and  S_15
REMARK    5  A    between atoms: S_15  and  C_18
REMARK    6  A    between atoms: C_19  and  C_20
REMARK    7  A    between atoms: N_22  and  C_23
REMARK    8  A    between atoms: C_24  and  C_25
REMARK                            x       y       z     vdW  Elec       q    Type
REMARK                         _______ _______ _______ _____ _____    ______ ____
ROOT
ATOM      1  C   UNL     1       1.692   7.917  18.846  0.00  0.00    +0.000 C 
ATOM      2  C   UNL     1       2.263   7.397  20.170  0.00  0.00    +0.000 C 
ATOM      3  C   UNL     1       1.450   7.967  21.324  0.00  0.00    +0.000 C 
ATOM      4  O   UNL     1       1.404   9.392  21.298  0.00  0.00    +0.000 OA
ATOM      5  C   UNL     1       0.958   9.995  20.068  0.00  0.00    +0.000 C 
ATOM      6  C   UNL     1      -0.547   9.720  19.823  0.00  0.00    +0.000 C 
ATOM      7  C   UNL     1      -1.445  10.440  20.811  0.00  0.00    +0.000 C 
ATOM      8  N   UNL     1      -1.182  11.892  20.808  0.00  0.00    +0.000 NA
ATOM      9  C   UNL     1       0.230  12.152  21.218  0.00  0.00    +0.000 C 
ATOM     10  C   UNL     1       1.222  11.508  20.244  0.00  0.00    +0.000 C 
ATOM     11  C   UNL     1       1.794   9.449  18.880  0.00  0.00    +0.000 C 
ENDROOT
BRANCH   8  12
ATOM     12  S   UNL     1      -1.735  12.805  19.479  0.00  0.00    +0.000 S 
ATOM     13  O   UNL     1      -2.098  14.120  19.955  0.00  0.00    +0.000 OA
ATOM     14  O   UNL     1      -0.783  12.653  18.396  0.00  0.00    +0.000 OA
BRANCH  12  15
ATOM     15  C   UNL     1      -3.203  12.143  18.861  0.00  0.00    +0.000 A 
ATOM     16  C   UNL     1      -3.345  11.379  17.682  0.00  0.00    +0.000 A 
ATOM     17  C   UNL     1      -2.329  10.892  16.717  0.00  0.00    +0.000 C 
ATOM     18  N   UNL     1      -4.631  11.065  17.462  0.00  0.00    +0.000 NA
ATOM     19  N   UNL     1      -5.286  11.557  18.525  0.00  0.00    +0.000 N 
ATOM     20  C   UNL     1      -6.711  11.341  18.629  0.00  0.00    +0.000 C 
ATOM     21  C   UNL     1      -4.475  12.210  19.415  0.00  0.00    +0.000 A 
ATOM     22  C   UNL     1      -4.952  12.793  20.697  0.00  0.00    +0.000 C 
ENDBRANCH  12  15
ENDBRANCH   8  12
BRANCH   1  23
ATOM     23  C   UNL     1       2.320   7.278  17.596  0.00  0.00    +0.000 C 
BRANCH  23  28
ATOM     24  C   UNL     1       3.514   1.594  18.144  0.00  0.00    +0.000 C 
ATOM     25  C   UNL     1       3.219   3.062  18.049  0.00  0.00    +0.000 A 
ATOM     26  C   UNL     1       4.251   4.002  18.033  0.00  0.00    +0.000 A 
ATOM     27  C   UNL     1       3.963   5.366  17.934  0.00  0.00    +0.000 A 
ATOM     28  C   UNL     1       2.639   5.816  17.826  0.00  0.00    +0.000 A 
ATOM     29  C   UNL     1       1.601   4.870  17.876  0.00  0.00    +0.000 A 
ATOM     30  C   UNL     1       1.894   3.510  17.991  0.00  0.00    +0.000 A 
ENDBRANCH  23  28
ENDBRANCH   1  23
TORSDOF 4
ENDMDL
MODEL 7
REMARK VINA RESULT:      -6.7      2.904      6.084
REMARK  Name = 
REMARK  8 active torsions:
REMARK  status: ('A' for Active; 'I' for Inactive)
REMARK    1  A    between atoms: C_1  and  C_2
REMARK    2  A    between atoms: C_5  and  C_6
REMARK    3  A    between atoms: C_6  and  C_7
REMARK    4  A    between atoms: N_14  and  S_15
REMARK    5  A    between atoms: S_15  and  C_18
REMARK    6  A    between atoms: C_19  and  C_20
REMARK    7  A    between atoms: N_22  and  C_23
REMARK    8  A    between atoms: C_24  and  C_25
REMARK                            x       y       z     vdW  Elec       q    Type
REMARK                         _______ _______ _______ _____ _____    ______ ____
ROOT
ATOM      1  C   UNL     1       1.472  11.344  18.792  0.00  0.00    +0.000 C 
ATOM      2  C   UNL     1       2.467  12.491  18.576  0.00  0.00    +0.000 C 
ATOM      3  C   UNL     1       2.280  13.529  19.675  0.00  0.00    +0.000 C 
ATOM      4  O   UNL     1       0.939  14.007  19.741  0.00  0.00    +0.000 OA
ATOM      5  C   UNL     1      -0.091  13.006  19.863  0.00  0.00    +0.000 C 
ATOM      6  C   UNL     1      -0.035  12.310  21.245  0.00  0.00    +0.000 C 
ATOM      7  C   UNL     1      -0.426  13.231  22.385  0.00  0.00    +0.000 C 
ATOM      8  N   UNL     1      -1.761  13.818  22.160  0.00  0.00    +0.000 NA
ATOM      9  C   UNL     1      -1.752  14.634  20.910  0.00  0.00    +0.000 C 
ATOM     10  C   UNL     1      -1.420  13.776  19.685  0.00  0.00    +0.000 C 
ATOM     11  C   UNL     1       0.063  11.952  18.734  0.00  0.00    +0.000 C 
ENDROOT
BRANCH   8  12
ATOM     12  S   UNL     1      -3.123  12.813  22.366  0.00  0.00    +0.000 S 
ATOM     13  O   UNL     1      -3.520  12.321  21.067  0.00  0.00    +0.000 OA
ATOM     14  O   UNL     1      -2.846  11.890  23.449  0.00  0.00    +0.000 OA
BRANCH  12  15
ATOM     15  C   UNL     1      -4.474  13.733  22.917  0.00  0.00    +0.000 A 
ATOM     16  C   UNL     1      -4.435  14.821  23.818  0.00  0.00    +0.000 A 
ATOM     17  C   UNL     1      -3.285  15.497  24.467  0.00  0.00    +0.000 C 
ATOM     18  N   UNL     1      -5.670  15.278  24.077  0.00  0.00    +0.000 NA
ATOM     19  N   UNL     1      -6.475  14.540  23.295  0.00  0.00    +0.000 N 
ATOM     20  C   UNL     1      -7.892  14.819  23.295  0.00  0.00    +0.000 C 
ATOM     21  C   UNL     1      -5.809  13.596  22.559  0.00  0.00    +0.000 A 
ATOM     22  C   UNL     1      -6.469  12.696  21.577  0.00  0.00    +0.000 C 
ENDBRANCH  12  15
ENDBRANCH   8  12
BRANCH   1  23
ATOM     23  C   UNL     1       1.674  10.149  17.846  0.00  0.00    +0.000 C 
BRANCH  23  28
ATOM     24  C   UNL     1       2.316   5.203  20.872  0.00  0.00    +0.000 C 
ATOM     25  C   UNL     1       2.103   6.466  20.092  0.00  0.00    +0.000 A 
ATOM     26  C   UNL     1       1.503   7.581  20.680  0.00  0.00    +0.000 A 
ATOM     27  C   UNL     1       1.321   8.755  19.945  0.00  0.00    +0.000 A 
ATOM     28  C   UNL     1       1.755   8.846  18.614  0.00  0.00    +0.000 A 
ATOM     29  C   UNL     1       2.328   7.712  18.015  0.00  0.00    +0.000 A 
ATOM     30  C   UNL     1       2.494   6.536  18.749  0.00  0.00    +0.000 A 
ENDBRANCH  23  28
ENDBRANCH   1  23
TORSDOF 4
ENDMDL
MODEL 8
REMARK VINA RESULT:      -6.7      2.834      5.841
REMARK  Name = 
REMARK  8 active torsions:
REMARK  status: ('A' for Active; 'I' for Inactive)
REMARK    1  A    between atoms: C_1  and  C_2
REMARK    2  A    between atoms: C_5  and  C_6
REMARK    3  A    between atoms: C_6  and  C_7
REMARK    4  A    between atoms: N_14  and  S_15
REMARK    5  A    between atoms: S_15  and  C_18
REMARK    6  A    between atoms: C_19  and  C_20
REMARK    7  A    between atoms: N_22  and  C_23
REMARK    8  A    between atoms: C_24  and  C_25
REMARK                            x       y       z     vdW  Elec       q    Type
REMARK                         _______ _______ _______ _____ _____    ______ ____
ROOT
ATOM      1  C   UNL     1       1.080  11.351  19.214  0.00  0.00    +0.000 C 
ATOM      2  C   UNL     1       2.175  12.425  19.198  0.00  0.00    +0.000 C 
ATOM      3  C   UNL     1       1.975  13.360  20.383  0.00  0.00    +0.000 C 
ATOM      4  O   UNL     1       0.673  13.941  20.397  0.00  0.00    +0.000 OA
ATOM      5  C   UNL     1      -0.437  13.024  20.332  0.00  0.00    +0.000 C 
ATOM      6  C   UNL     1      -0.551  12.191  21.633  0.00  0.00    +0.000 C 
ATOM      7  C   UNL     1      -0.967  13.023  22.830  0.00  0.00    +0.000 C 
ATOM      8  N   UNL     1      -2.230  13.740  22.567  0.00  0.00    +0.000 NA
ATOM      9  C   UNL     1      -2.052  14.674  21.416  0.00  0.00    +0.000 C 
ATOM     10  C   UNL     1      -1.683  13.917  20.136  0.00  0.00    +0.000 C 
ATOM     11  C   UNL     1      -0.268  12.079  19.113  0.00  0.00    +0.000 C 
ENDROOT
BRANCH   8  12
ATOM     12  S   UNL     1      -3.677  12.839  22.560  0.00  0.00    +0.000 S 
ATOM     13  O   UNL     1      -3.807  12.208  21.267  0.00  0.00    +0.000 OA
ATOM     14  O   UNL     1      -3.724  12.047  23.774  0.00  0.00    +0.000 OA
BRANCH  12  15
ATOM     15  C   UNL     1      -5.041  13.888  22.675  0.00  0.00    +0.000 A 
ATOM     16  C   UNL     1      -6.309  13.681  22.087  0.00  0.00    +0.000 A 
ATOM     17  C   UNL     1      -6.833  12.539  21.299  0.00  0.00    +0.000 C 
ATOM     18  N   UNL     1      -7.128  14.716  22.328  0.00  0.00    +0.000 NA
ATOM     19  N   UNL     1      -6.417  15.533  23.121  0.00  0.00    +0.000 N 
ATOM     20  C   UNL     1      -7.038  16.740  23.615  0.00  0.00    +0.000 C 
ATOM     21  C   UNL     1      -5.149  15.081  23.378  0.00  0.00    +0.000 A 
ATOM     22  C   UNL     1      -4.188  15.778  24.273  0.00  0.00    +0.000 C 
ENDBRANCH  12  15
ENDBRANCH   8  12
BRANCH   1  23
ATOM     23  C   UNL     1       1.271  10.243  18.164  0.00  0.00    +0.000 C 
BRANCH  23  28
ATOM     24  C   UNL     1       2.386   5.066  20.612  0.00  0.00    +0.000 C 
ATOM     25  C   UNL     1       2.147   6.408  19.985  0.00  0.00    +0.000 A 
ATOM     26  C   UNL     1       2.530   6.663  18.667  0.00  0.00    +0.000 A 
ATOM     27  C   UNL     1       2.291   7.914  18.091  0.00  0.00    +0.000 A 
ATOM     28  C   UNL     1       1.644   8.927  18.814  0.00  0.00    +0.000 A 
ATOM     29  C   UNL     1       1.290   8.678  20.151  0.00  0.00    +0.000 A 
ATOM     30  C   UNL     1       1.545   7.432  20.726  0.00  0.00    +0.000 A 
ENDBRANCH  23  28
ENDBRANCH   1  23
TORSDOF 4
ENDMDL
MODEL 9
REMARK VINA RESULT:      -6.7      4.816      7.191
REMARK  Name = 
REMARK  8 active torsions:
REMARK  status: ('A' for Active; 'I' for Inactive)
REMARK    1  A    between atoms: C_1  and  C_2
REMARK    2  A    between atoms: C_5  and  C_6
REMARK    3  A    between atoms: C_6  and  C_7
REMARK    4  A    between atoms: N_14  and  S_15
REMARK    5  A    between atoms: S_15  and  C_18
REMARK    6  A    between atoms: C_19  and  C_20
REMARK    7  A    between atoms: N_22  and  C_23
REMARK    8  A    between atoms: C_24  and  C_25
REMARK                            x       y       z     vdW  Elec       q    Type
REMARK                         _______ _______ _______ _____ _____    ______ ____
ROOT
ATOM      1  C   UNL     1       1.457   9.580  18.173  0.00  0.00    +0.000 C 
ATOM      2  C   UNL     1       0.135   9.040  17.615  0.00  0.00    +0.000 C 
ATOM      3  C   UNL     1      -0.892  10.165  17.584  0.00  0.00    +0.000 C 
ATOM      4  O   UNL     1      -1.071  10.764  18.866  0.00  0.00    +0.000 OA
ATOM      5  C   UNL     1       0.122  11.236  19.523  0.00  0.00    +0.000 C 
ATOM      6  C   UNL     1       0.720  12.461  18.787  0.00  0.00    +0.000 C 
ATOM      7  C   UNL     1      -0.150  13.698  18.899  0.00  0.00    +0.000 C 
ATOM      8  N   UNL     1      -0.422  14.031  20.311  0.00  0.00    +0.000 NA
ATOM      9  C   UNL     1      -1.158  12.907  20.963  0.00  0.00    +0.000 C 
ATOM     10  C   UNL     1      -0.332  11.617  20.951  0.00  0.00    +0.000 C 
ATOM     11  C   UNL     1       1.172  10.096  19.591  0.00  0.00    +0.000 C 
ENDROOT
BRANCH   8  12
ATOM     12  S   UNL     1       0.842  14.708  21.232  0.00  0.00    +0.000 S 
ATOM     13  O   UNL     1       0.266  15.652  22.162  0.00  0.00    +0.000 OA
ATOM     14  O   UNL     1       1.685  13.629  21.709  0.00  0.00    +0.000 OA
BRANCH  12  15
ATOM     15  C   UNL     1       1.878  15.656  20.231  0.00  0.00    +0.000 A 
ATOM     16  C   UNL     1       1.492  16.750  19.425  0.00  0.00    +0.000 A 
ATOM     17  C   UNL     1       0.175  17.411  19.259  0.00  0.00    +0.000 C 
ATOM     18  N   UNL     1       2.536  17.230  18.731  0.00  0.00    +0.000 NA
ATOM     19  N   UNL     1       3.584  16.501  19.147  0.00  0.00    +0.000 N 
ATOM     20  C   UNL     1       4.896  16.804  18.625  0.00  0.00    +0.000 C 
ATOM     21  C   UNL     1       3.252  15.540  20.066  0.00  0.00    +0.000 A 
ATOM     22  C   UNL     1       4.242  14.643  20.719  0.00  0.00    +0.000 C 
ENDBRANCH  12  15
ENDBRANCH   8  12
BRANCH   1  23
ATOM     23  C   UNL     1       2.626   8.583  18.095  0.00  0.00    +0.000 C 
BRANCH  23  28
ATOM     24  C   UNL     1       1.537   3.379  20.496  0.00  0.00    +0.000 C 
ATOM     25  C   UNL     1       1.771   4.729  19.884  0.00  0.00    +0.000 A 
ATOM     26  C   UNL     1       1.773   5.883  20.671  0.00  0.00    +0.000 A 
ATOM     27  C   UNL     1       2.002   7.133  20.090  0.00  0.00    +0.000 A 
ATOM     28  C   UNL     1       2.257   7.252  18.715  0.00  0.00    +0.000 A 
ATOM     29  C   UNL     1       2.221   6.093  17.921  0.00  0.00    +0.000 A 
ATOM     30  C   UNL     1       1.976   4.849  18.504  0.00  0.00    +0.000 A 
ENDBRANCH  23  28
ENDBRANCH   1  23
TORSDOF 4
ENDMDL
