MODEL 1
REMARK VINA RESULT:      -7.8      0.000      0.000
REMARK  Name = 
REMARK  8 active torsions:
REMARK  status: ('A' for Active; 'I' for Inactive)
REMARK    1  A    between atoms: C_1  and  C_2
REMARK    2  A    between atoms: C_2  and  C_3
REMARK    3  A    between atoms: C_3  and  C_4
REMARK    4  A    between atoms: C_4  and  N_5
REMARK    5  A    between atoms: C_6  and  C_8
REMARK    6  A    between atoms: C_8  and  C_9
REMARK    7  A    between atoms: C_10  and  O_11
REMARK    8  A    between atoms: C_19  and  O_20
REMARK                            x       y       z     vdW  Elec       q    Type
REMARK                         _______ _______ _______ _____ _____    ______ ____
ROOT
ATOM      1  C   UNL     1       5.157   5.653  18.261  0.00  0.00    +0.000 A 
ATOM      2  C   UNL     1       5.725   4.461  18.687  0.00  0.00    +0.000 A 
ATOM      3  N   UNL     1       5.066   3.517  19.391  0.00  0.00    +0.000 NA
ATOM      4  C   UNL     1       3.776   3.710  19.687  0.00  0.00    +0.000 A 
ATOM      5  C   UNL     1       3.097   2.753  20.436  0.00  0.00    +0.000 A 
ATOM      6  C   UNL     1       1.740   2.880  20.747  0.00  0.00    +0.000 A 
ATOM      7  C   UNL     1       1.028   3.976  20.284  0.00  0.00    +0.000 A 
ATOM      8  C   UNL     1       1.688   4.965  19.555  0.00  0.00    +0.000 A 
ATOM      9  C   UNL     1       3.069   4.855  19.272  0.00  0.00    +0.000 A 
ATOM     10  C   UNL     1       3.812   5.836  18.589  0.00  0.00    +0.000 A 
ENDROOT
BRANCH   2  11
ATOM     11  O   UNL     1       7.009   4.104  18.398  0.00  0.00    +0.000 OA
ATOM     12  H   UNL     1       7.577   4.201  19.185  0.00  0.00    +0.000 HD
ENDBRANCH   2  11
BRANCH  10  13
ATOM     13  O   UNL     1       3.237   7.037  18.251  0.00  0.00    +0.000 OA
ATOM     14  H   UNL     1       3.157   7.548  19.078  0.00  0.00    +0.000 HD
ENDBRANCH  10  13
BRANCH   1  15
ATOM     15  C   UNL     1       5.885   6.673  17.429  0.00  0.00    +0.000 C 
BRANCH  15  17
ATOM     16  N   UNL     1       6.836   5.389  15.589  0.00  0.00    +0.000 N 
ATOM     17  C   UNL     1       5.893   6.312  15.959  0.00  0.00    +0.000 C 
ATOM     18  O   UNL     1       5.052   6.790  15.201  0.00  0.00    +0.000 OA
ATOM     19  H   UNL     1       7.429   4.970  16.295  0.00  0.00    +0.000 HD
BRANCH  16  20
ATOM     20  C   UNL     1       6.981   4.957  14.211  0.00  0.00    +0.000 C 
BRANCH  20  21
ATOM     21  C   UNL     1       6.059   3.786  13.865  0.00  0.00    +0.000 C 
BRANCH  21  23
ATOM     22  C   UNL     1       4.680   3.276  11.809  0.00  0.00    +0.000 C 
ATOM     23  C   UNL     1       6.081   3.454  12.370  0.00  0.00    +0.000 C 
ENDBRANCH  21  23
ENDBRANCH  20  21
ENDBRANCH  16  20
ENDBRANCH  15  17
ENDBRANCH   1  15
TORSDOF 7
ENDMDL
MODEL 2
REMARK VINA RESULT:      -7.7      1.040      2.183
REMARK  Name = 
REMARK  8 active torsions:
REMARK  status: ('A' for Active; 'I' for Inactive)
REMARK    1  A    between atoms: C_1  and  C_2
REMARK    2  A    between atoms: C_2  and  C_3
REMARK    3  A    between atoms: C_3  and  C_4
REMARK    4  A    between atoms: C_4  and  N_5
REMARK    5  A    between atoms: C_6  and  C_8
REMARK    6  A    between atoms: C_8  and  C_9
REMARK    7  A    between atoms: C_10  and  O_11
REMARK    8  A    between atoms: C_19  and  O_20
REMARK                            x       y       z     vdW  Elec       q    Type
REMARK                         _______ _______ _______ _____ _____    ______ ____
ROOT
ATOM      1  C   UNL     1       4.660   5.734  18.246  0.00  0.00    +0.000 A 
ATOM      2  C   UNL     1       3.480   6.463  18.287  0.00  0.00    +0.000 A 
ATOM      3  N   UNL     1       2.357   6.053  18.912  0.00  0.00    +0.000 NA
ATOM      4  C   UNL     1       2.366   4.883  19.563  0.00  0.00    +0.000 A 
ATOM      5  C   UNL     1       1.204   4.442  20.188  0.00  0.00    +0.000 A 
ATOM      6  C   UNL     1       1.160   3.247  20.913  0.00  0.00    +0.000 A 
ATOM      7  C   UNL     1       2.307   2.477  21.041  0.00  0.00    +0.000 A 
ATOM      8  C   UNL     1       3.478   2.881  20.402  0.00  0.00    +0.000 A 
ATOM      9  C   UNL     1       3.514   4.070  19.639  0.00  0.00    +0.000 A 
ATOM     10  C   UNL     1       4.643   4.513  18.924  0.00  0.00    +0.000 A 
ENDROOT
BRANCH   2  11
ATOM     11  O   UNL     1       3.350   7.699  17.725  0.00  0.00    +0.000 OA
ATOM     12  H   UNL     1       3.954   7.796  16.966  0.00  0.00    +0.000 HD
ENDBRANCH   2  11
BRANCH  10  13
ATOM     13  O   UNL     1       5.767   3.728  18.841  0.00  0.00    +0.000 OA
ATOM     14  H   UNL     1       5.834   3.250  19.688  0.00  0.00    +0.000 HD
ENDBRANCH  10  13
BRANCH   1  15
ATOM     15  C   UNL     1       5.923   6.226  17.592  0.00  0.00    +0.000 C 
BRANCH  15  17
ATOM     16  N   UNL     1       6.691   5.038  15.608  0.00  0.00    +0.000 N 
ATOM     17  C   UNL     1       5.896   6.044  16.090  0.00  0.00    +0.000 C 
ATOM     18  O   UNL     1       5.149   6.733  15.398  0.00  0.00    +0.000 OA
ATOM     19  H   UNL     1       7.202   4.451  16.257  0.00  0.00    +0.000 HD
BRANCH  16  20
ATOM     20  C   UNL     1       6.788   4.755  14.188  0.00  0.00    +0.000 C 
BRANCH  20  21
ATOM     21  C   UNL     1       5.812   3.665  13.740  0.00  0.00    +0.000 C 
BRANCH  21  23
ATOM     22  C   UNL     1       4.565   3.240  11.583  0.00  0.00    +0.000 C 
ATOM     23  C   UNL     1       5.929   3.363  12.244  0.00  0.00    +0.000 C 
ENDBRANCH  21  23
ENDBRANCH  20  21
ENDBRANCH  16  20
ENDBRANCH  15  17
ENDBRANCH   1  15
TORSDOF 7
ENDMDL
MODEL 3
REMARK VINA RESULT:      -7.5      1.257      2.365
REMARK  Name = 
REMARK  8 active torsions:
REMARK  status: ('A' for Active; 'I' for Inactive)
REMARK    1  A    between atoms: C_1  and  C_2
REMARK    2  A    between atoms: C_2  and  C_3
REMARK    3  A    between atoms: C_3  and  C_4
REMARK    4  A    between atoms: C_4  and  N_5
REMARK    5  A    between atoms: C_6  and  C_8
REMARK    6  A    between atoms: C_8  and  C_9
REMARK    7  A    between atoms: C_10  and  O_11
REMARK    8  A    between atoms: C_19  and  O_20
REMARK                            x       y       z     vdW  Elec       q    Type
REMARK                         _______ _______ _______ _____ _____    ______ ____
ROOT
ATOM      1  C   UNL     1       5.006   5.568  18.153  0.00  0.00    +0.000 A 
ATOM      2  C   UNL     1       3.829   6.236  17.844  0.00  0.00    +0.000 A 
ATOM      3  N   UNL     1       2.600   5.811  18.202  0.00  0.00    +0.000 NA
ATOM      4  C   UNL     1       2.486   4.690  18.925  0.00  0.00    +0.000 A 
ATOM      5  C   UNL     1       1.219   4.231  19.276  0.00  0.00    +0.000 A 
ATOM      6  C   UNL     1       1.036   3.088  20.059  0.00  0.00    +0.000 A 
ATOM      7  C   UNL     1       2.139   2.390  20.528  0.00  0.00    +0.000 A 
ATOM      8  C   UNL     1       3.419   2.811  20.168  0.00  0.00    +0.000 A 
ATOM      9  C   UNL     1       3.605   3.946  19.346  0.00  0.00    +0.000 A 
ATOM     10  C   UNL     1       4.861   4.397  18.901  0.00  0.00    +0.000 A 
ENDROOT
BRANCH   2  11
ATOM     11  O   UNL     1       3.802   7.423  17.172  0.00  0.00    +0.000 OA
ATOM     12  H   UNL     1       3.089   7.424  16.506  0.00  0.00    +0.000 HD
ENDBRANCH   2  11
BRANCH  10  13
ATOM     13  O   UNL     1       5.996   3.669  19.160  0.00  0.00    +0.000 OA
ATOM     14  H   UNL     1       5.717   2.903  19.696  0.00  0.00    +0.000 HD
ENDBRANCH  10  13
BRANCH   1  15
ATOM     15  C   UNL     1       6.375   6.081  17.795  0.00  0.00    +0.000 C 
BRANCH  15  17
ATOM     16  N   UNL     1       6.566   5.574  15.419  0.00  0.00    +0.000 N 
ATOM     17  C   UNL     1       7.011   5.278  16.681  0.00  0.00    +0.000 C 
ATOM     18  O   UNL     1       7.906   4.474  16.933  0.00  0.00    +0.000 OA
ATOM     19  H   UNL     1       5.895   6.322  15.289  0.00  0.00    +0.000 HD
BRANCH  16  20
ATOM     20  C   UNL     1       7.066   4.875  14.251  0.00  0.00    +0.000 C 
BRANCH  20  21
ATOM     21  C   UNL     1       6.050   3.882  13.683  0.00  0.00    +0.000 C 
BRANCH  21  23
ATOM     22  C   UNL     1       5.386   2.471  11.694  0.00  0.00    +0.000 C 
ATOM     23  C   UNL     1       6.325   3.547  12.215  0.00  0.00    +0.000 C 
ENDBRANCH  21  23
ENDBRANCH  20  21
ENDBRANCH  16  20
ENDBRANCH  15  17
ENDBRANCH   1  15
TORSDOF 7
ENDMDL
MODEL 4
REMARK VINA RESULT:      -7.4      2.457      4.211
REMARK  Name = 
REMARK  8 active torsions:
REMARK  status: ('A' for Active; 'I' for Inactive)
REMARK    1  A    between atoms: C_1  and  C_2
REMARK    2  A    between atoms: C_2  and  C_3
REMARK    3  A    between atoms: C_3  and  C_4
REMARK    4  A    between atoms: C_4  and  N_5
REMARK    5  A    between atoms: C_6  and  C_8
REMARK    6  A    between atoms: C_8  and  C_9
REMARK    7  A    between atoms: C_10  and  O_11
REMARK    8  A    between atoms: C_19  and  O_20
REMARK                            x       y       z     vdW  Elec       q    Type
REMARK                         _______ _______ _______ _____ _____    ______ ____
ROOT
ATOM      1  C   UNL     1       4.511   5.051  17.092  0.00  0.00    +0.000 A 
ATOM      2  C   UNL     1       4.685   3.675  17.035  0.00  0.00    +0.000 A 
ATOM      3  N   UNL     1       3.997   2.793  17.789  0.00  0.00    +0.000 NA
ATOM      4  C   UNL     1       3.065   3.249  18.634  0.00  0.00    +0.000 A 
ATOM      5  C   UNL     1       2.369   2.347  19.434  0.00  0.00    +0.000 A 
ATOM      6  C   UNL     1       1.360   2.757  20.310  0.00  0.00    +0.000 A 
ATOM      7  C   UNL     1       1.013   4.098  20.380  0.00  0.00    +0.000 A 
ATOM      8  C   UNL     1       1.711   5.028  19.610  0.00  0.00    +0.000 A 
ATOM      9  C   UNL     1       2.757   4.618  18.752  0.00  0.00    +0.000 A 
ATOM     10  C   UNL     1       3.539   5.503  17.987  0.00  0.00    +0.000 A 
ENDROOT
BRANCH   2  11
ATOM     11  O   UNL     1       5.551   3.070  16.172  0.00  0.00    +0.000 OA
ATOM     12  H   UNL     1       6.292   3.666  15.956  0.00  0.00    +0.000 HD
ENDBRANCH   2  11
BRANCH  10  13
ATOM     13  O   UNL     1       3.392   6.862  18.127  0.00  0.00    +0.000 OA
ATOM     14  H   UNL     1       4.120   7.273  17.623  0.00  0.00    +0.000 HD
ENDBRANCH  10  13
BRANCH   1  15
ATOM     15  C   UNL     1       5.244   6.022  16.206  0.00  0.00    +0.000 C 
BRANCH  15  17
ATOM     16  N   UNL     1       6.794   7.580  17.259  0.00  0.00    +0.000 N 
ATOM     17  C   UNL     1       6.633   6.329  16.724  0.00  0.00    +0.000 C 
ATOM     18  O   UNL     1       7.506   5.463  16.702  0.00  0.00    +0.000 OA
ATOM     19  H   UNL     1       5.996   8.200  17.328  0.00  0.00    +0.000 HD
BRANCH  16  20
ATOM     20  C   UNL     1       8.073   8.029  17.777  0.00  0.00    +0.000 C 
BRANCH  20  21
ATOM     21  C   UNL     1       8.143   9.551  17.924  0.00  0.00    +0.000 C 
BRANCH  21  23
ATOM     22  C   UNL     1       9.956  11.185  18.581  0.00  0.00    +0.000 C 
ATOM     23  C   UNL     1       9.131   9.982  19.011  0.00  0.00    +0.000 C 
ENDBRANCH  21  23
ENDBRANCH  20  21
ENDBRANCH  16  20
ENDBRANCH  15  17
ENDBRANCH   1  15
TORSDOF 7
ENDMDL
MODEL 5
REMARK VINA RESULT:      -7.3      1.952      2.929
REMARK  Name = 
REMARK  8 active torsions:
REMARK  status: ('A' for Active; 'I' for Inactive)
REMARK    1  A    between atoms: C_1  and  C_2
REMARK    2  A    between atoms: C_2  and  C_3
REMARK    3  A    between atoms: C_3  and  C_4
REMARK    4  A    between atoms: C_4  and  N_5
REMARK    5  A    between atoms: C_6  and  C_8
REMARK    6  A    between atoms: C_8  and  C_9
REMARK    7  A    between atoms: C_10  and  O_11
REMARK    8  A    between atoms: C_19  and  O_20
REMARK                            x       y       z     vdW  Elec       q    Type
REMARK                         _______ _______ _______ _____ _____    ______ ____
ROOT
ATOM      1  C   UNL     1       5.927   4.952  16.497  0.00  0.00    +0.000 A 
ATOM      2  C   UNL     1       5.648   6.251  16.900  0.00  0.00    +0.000 A 
ATOM      3  N   UNL     1       4.545   6.610  17.589  0.00  0.00    +0.000 NA
ATOM      4  C   UNL     1       3.662   5.667  17.939  0.00  0.00    +0.000 A 
ATOM      5  C   UNL     1       2.509   6.034  18.626  0.00  0.00    +0.000 A 
ATOM      6  C   UNL     1       1.567   5.092  19.050  0.00  0.00    +0.000 A 
ATOM      7  C   UNL     1       1.784   3.744  18.806  0.00  0.00    +0.000 A 
ATOM      8  C   UNL     1       2.917   3.350  18.094  0.00  0.00    +0.000 A 
ATOM      9  C   UNL     1       3.851   4.305  17.634  0.00  0.00    +0.000 A 
ATOM     10  C   UNL     1       4.987   3.987  16.866  0.00  0.00    +0.000 A 
ENDROOT
BRANCH   2  11
ATOM     11  O   UNL     1       6.492   7.298  16.671  0.00  0.00    +0.000 OA
ATOM     12  H   UNL     1       6.723   7.351  15.725  0.00  0.00    +0.000 HD
ENDBRANCH   2  11
BRANCH  10  13
ATOM     13  O   UNL     1       5.190   2.704  16.419  0.00  0.00    +0.000 OA
ATOM     14  H   UNL     1       5.971   2.734  15.835  0.00  0.00    +0.000 HD
ENDBRANCH  10  13
BRANCH   1  15
ATOM     15  C   UNL     1       7.187   4.554  15.777  0.00  0.00    +0.000 C 
BRANCH  15  17
ATOM     16  N   UNL     1       6.267   3.495  13.785  0.00  0.00    +0.000 N 
ATOM     17  C   UNL     1       7.006   4.540  14.275  0.00  0.00    +0.000 C 
ATOM     18  O   UNL     1       7.454   5.457  13.590  0.00  0.00    +0.000 OA
ATOM     19  H   UNL     1       5.850   2.833  14.429  0.00  0.00    +0.000 HD
BRANCH  16  20
ATOM     20  C   UNL     1       6.024   3.332  12.364  0.00  0.00    +0.000 C 
BRANCH  20  21
ATOM     21  C   UNL     1       4.678   3.916  11.929  0.00  0.00    +0.000 C 
BRANCH  21  23
ATOM     22  C   UNL     1       3.127   3.760   9.940  0.00  0.00    +0.000 C 
ATOM     23  C   UNL     1       3.924   2.985  10.976  0.00  0.00    +0.000 C 
ENDBRANCH  21  23
ENDBRANCH  20  21
ENDBRANCH  16  20
ENDBRANCH  15  17
ENDBRANCH   1  15
TORSDOF 7
ENDMDL
MODEL 6
REMARK VINA RESULT:      -7.3      2.438      4.522
REMARK  Name = 
REMARK  8 active torsions:
REMARK  status: ('A' for Active; 'I' for Inactive)
REMARK    1  A    between atoms: C_1  and  C_2
REMARK    2  A    between atoms: C_2  and  C_3
REMARK    3  A    between atoms: C_3  and  C_4
REMARK    4  A    between atoms: C_4  and  N_5
REMARK    5  A    between atoms: C_6  and  C_8
REMARK    6  A    between atoms: C_8  and  C_9
REMARK    7  A    between atoms: C_10  and  O_11
REMARK    8  A    between atoms: C_19  and  O_20
REMARK                            x       y       z     vdW  Elec       q    Type
REMARK                         _______ _______ _______ _____ _____    ______ ____
ROOT
ATOM      1  C   UNL     1       4.228   5.313  17.228  0.00  0.00    +0.000 A 
ATOM      2  C   UNL     1       3.482   6.327  17.811  0.00  0.00    +0.000 A 
ATOM      3  N   UNL     1       2.574   6.132  18.790  0.00  0.00    +0.000 NA
ATOM      4  C   UNL     1       2.383   4.894  19.261  0.00  0.00    +0.000 A 
ATOM      5  C   UNL     1       1.429   4.681  20.253  0.00  0.00    +0.000 A 
ATOM      6  C   UNL     1       1.208   3.419  20.811  0.00  0.00    +0.000 A 
ATOM      7  C   UNL     1       1.970   2.338  20.391  0.00  0.00    +0.000 A 
ATOM      8  C   UNL     1       2.913   2.516  19.379  0.00  0.00    +0.000 A 
ATOM      9  C   UNL     1       3.112   3.785  18.789  0.00  0.00    +0.000 A 
ATOM     10  C   UNL     1       4.006   4.029  17.730  0.00  0.00    +0.000 A 
ENDROOT
BRANCH   2  11
ATOM     11  O   UNL     1       3.622   7.642  17.476  0.00  0.00    +0.000 OA
ATOM     12  H   UNL     1       4.563   7.900  17.488  0.00  0.00    +0.000 HD
ENDBRANCH   2  11
BRANCH  10  13
ATOM     13  O   UNL     1       4.669   2.990  17.124  0.00  0.00    +0.000 OA
ATOM     14  H   UNL     1       5.144   2.515  17.831  0.00  0.00    +0.000 HD
ENDBRANCH  10  13
BRANCH   1  15
ATOM     15  C   UNL     1       5.277   5.550  16.175  0.00  0.00    +0.000 C 
BRANCH  15  17
ATOM     16  N   UNL     1       6.711   7.193  17.263  0.00  0.00    +0.000 N 
ATOM     17  C   UNL     1       6.618   5.915  16.776  0.00  0.00    +0.000 C 
ATOM     18  O   UNL     1       7.508   5.072  16.858  0.00  0.00    +0.000 OA
ATOM     19  H   UNL     1       5.897   7.795  17.245  0.00  0.00    +0.000 HD
BRANCH  16  20
ATOM     20  C   UNL     1       7.938   7.697  17.850  0.00  0.00    +0.000 C 
BRANCH  20  21
ATOM     21  C   UNL     1       8.031   9.223  17.790  0.00  0.00    +0.000 C 
BRANCH  21  23
ATOM     22  C   UNL     1       9.533  11.156  18.423  0.00  0.00    +0.000 C 
ATOM     23  C   UNL     1       9.013   9.784  18.823  0.00  0.00    +0.000 C 
ENDBRANCH  21  23
ENDBRANCH  20  21
ENDBRANCH  16  20
ENDBRANCH  15  17
ENDBRANCH   1  15
TORSDOF 7
ENDMDL
MODEL 7
REMARK VINA RESULT:      -7.3      1.384      2.261
REMARK  Name = 
REMARK  8 active torsions:
REMARK  status: ('A' for Active; 'I' for Inactive)
REMARK    1  A    between atoms: C_1  and  C_2
REMARK    2  A    between atoms: C_2  and  C_3
REMARK    3  A    between atoms: C_3  and  C_4
REMARK    4  A    between atoms: C_4  and  N_5
REMARK    5  A    between atoms: C_6  and  C_8
REMARK    6  A    between atoms: C_8  and  C_9
REMARK    7  A    between atoms: C_10  and  O_11
REMARK    8  A    between atoms: C_19  and  O_20
REMARK                            x       y       z     vdW  Elec       q    Type
REMARK                         _______ _______ _______ _____ _____    ______ ____
ROOT
ATOM      1  C   UNL     1       5.311   4.890  18.387  0.00  0.00    +0.000 A 
ATOM      2  C   UNL     1       4.495   5.978  18.110  0.00  0.00    +0.000 A 
ATOM      3  N   UNL     1       3.214   6.087  18.520  0.00  0.00    +0.000 NA
ATOM      4  C   UNL     1       2.684   5.108  19.262  0.00  0.00    +0.000 A 
ATOM      5  C   UNL     1       1.355   5.202  19.666  0.00  0.00    +0.000 A 
ATOM      6  C   UNL     1       0.754   4.230  20.472  0.00  0.00    +0.000 A 
ATOM      7  C   UNL     1       1.498   3.144  20.910  0.00  0.00    +0.000 A 
ATOM      8  C   UNL     1       2.823   3.010  20.498  0.00  0.00    +0.000 A 
ATOM      9  C   UNL     1       3.420   3.973  19.653  0.00  0.00    +0.000 A 
ATOM     10  C   UNL     1       4.733   3.877  19.155  0.00  0.00    +0.000 A 
ENDROOT
BRANCH   2  11
ATOM     11  O   UNL     1       4.925   7.075  17.423  0.00  0.00    +0.000 OA
ATOM     12  H   UNL     1       4.539   7.888  17.798  0.00  0.00    +0.000 HD
ENDBRANCH   2  11
BRANCH  10  13
ATOM     13  O   UNL     1       5.484   2.750  19.384  0.00  0.00    +0.000 OA
ATOM     14  H   UNL     1       5.550   2.652  20.352  0.00  0.00    +0.000 HD
ENDBRANCH  10  13
BRANCH   1  15
ATOM     15  C   UNL     1       6.755   4.803  17.971  0.00  0.00    +0.000 C 
BRANCH  15  17
ATOM     16  N   UNL     1       6.481   4.060  15.667  0.00  0.00    +0.000 N 
ATOM     17  C   UNL     1       6.939   5.055  16.490  0.00  0.00    +0.000 C 
ATOM     18  O   UNL     1       7.412   6.120  16.099  0.00  0.00    +0.000 OA
ATOM     19  H   UNL     1       6.014   3.256  16.067  0.00  0.00    +0.000 HD
BRANCH  16  20
ATOM     20  C   UNL     1       6.606   4.147  14.224  0.00  0.00    +0.000 C 
BRANCH  20  21
ATOM     21  C   UNL     1       5.290   3.847  13.503  0.00  0.00    +0.000 C 
BRANCH  21  23
ATOM     22  C   UNL     1       4.209   3.187  11.316  0.00  0.00    +0.000 C 
ATOM     23  C   UNL     1       5.514   3.317  12.085  0.00  0.00    +0.000 C 
ENDBRANCH  21  23
ENDBRANCH  20  21
ENDBRANCH  16  20
ENDBRANCH  15  17
ENDBRANCH   1  15
TORSDOF 7
ENDMDL
MODEL 8
REMARK VINA RESULT:      -7.2      1.673      2.592
REMARK  Name = 
REMARK  8 active torsions:
REMARK  status: ('A' for Active; 'I' for Inactive)
REMARK    1  A    between atoms: C_1  and  C_2
REMARK    2  A    between atoms: C_2  and  C_3
REMARK    3  A    between atoms: C_3  and  C_4
REMARK    4  A    between atoms: C_4  and  N_5
REMARK    5  A    between atoms: C_6  and  C_8
REMARK    6  A    between atoms: C_8  and  C_9
REMARK    7  A    between atoms: C_10  and  O_11
REMARK    8  A    between atoms: C_19  and  O_20
REMARK                            x       y       z     vdW  Elec       q    Type
REMARK                         _______ _______ _______ _____ _____    ______ ____
ROOT
ATOM      1  C   UNL     1       5.755   5.042  17.681  0.00  0.00    +0.000 A 
ATOM      2  C   UNL     1       5.295   6.313  17.365  0.00  0.00    +0.000 A 
ATOM      3  N   UNL     1       4.206   6.884  17.921  0.00  0.00    +0.000 NA
ATOM      4  C   UNL     1       3.525   6.211  18.856  0.00  0.00    +0.000 A 
ATOM      5  C   UNL     1       2.386   6.783  19.415  0.00  0.00    +0.000 A 
ATOM      6  C   UNL     1       1.653   6.146  20.421  0.00  0.00    +0.000 A 
ATOM      7  C   UNL     1       2.074   4.915  20.904  0.00  0.00    +0.000 A 
ATOM      8  C   UNL     1       3.196   4.306  20.343  0.00  0.00    +0.000 A 
ATOM      9  C   UNL     1       3.916   4.933  19.301  0.00  0.00    +0.000 A 
ATOM     10  C   UNL     1       5.024   4.356  18.653  0.00  0.00    +0.000 A 
ENDROOT
BRANCH   2  11
ATOM     11  O   UNL     1       5.929   7.135  16.481  0.00  0.00    +0.000 OA
ATOM     12  H   UNL     1       5.453   7.154  15.629  0.00  0.00    +0.000 HD
ENDBRANCH   2  11
BRANCH  10  13
ATOM     13  O   UNL     1       5.403   3.066  18.935  0.00  0.00    +0.000 OA
ATOM     14  H   UNL     1       4.982   2.500  18.261  0.00  0.00    +0.000 HD
ENDBRANCH  10  13
BRANCH   1  15
ATOM     15  C   UNL     1       7.002   4.437  17.095  0.00  0.00    +0.000 C 
BRANCH  15  17
ATOM     16  N   UNL     1       6.306   3.728  14.869  0.00  0.00    +0.000 N 
ATOM     17  C   UNL     1       7.068   4.608  15.592  0.00  0.00    +0.000 C 
ATOM     18  O   UNL     1       7.722   5.527  15.104  0.00  0.00    +0.000 OA
ATOM     19  H   UNL     1       5.717   3.062  15.355  0.00  0.00    +0.000 HD
BRANCH  16  20
ATOM     20  C   UNL     1       6.282   3.753  13.419  0.00  0.00    +0.000 C 
BRANCH  20  21
ATOM     21  C   UNL     1       4.865   3.626  12.855  0.00  0.00    +0.000 C 
BRANCH  21  23
ATOM     22  C   UNL     1       3.582   3.299  10.702  0.00  0.00    +0.000 C 
ATOM     23  C   UNL     1       4.849   2.966  11.474  0.00  0.00    +0.000 C 
ENDBRANCH  21  23
ENDBRANCH  20  21
ENDBRANCH  16  20
ENDBRANCH  15  17
ENDBRANCH   1  15
TORSDOF 7
ENDMDL
MODEL 9
REMARK VINA RESULT:      -7.1      2.264      4.041
REMARK  Name = 
REMARK  8 active torsions:
REMARK  status: ('A' for Active; 'I' for Inactive)
REMARK    1  A    between atoms: C_1  and  C_2
REMARK    2  A    between atoms: C_2  and  C_3
REMARK    3  A    between atoms: C_3  and  C_4
REMARK    4  A    between atoms: C_4  and  N_5
REMARK    5  A    between atoms: C_6  and  C_8
REMARK    6  A    between atoms: C_8  and  C_9
REMARK    7  A    between atoms: C_10  and  O_11
REMARK    8  A    between atoms: C_19  and  O_20
REMARK                            x       y       z     vdW  Elec       q    Type
REMARK                         _______ _______ _______ _____ _____    ______ ____
ROOT
ATOM      1  C   UNL     1       4.588   5.157  17.757  0.00  0.00    +0.000 A 
ATOM      2  C   UNL     1       5.395   4.205  18.365  0.00  0.00    +0.000 A 
ATOM      3  N   UNL     1       4.991   3.401  19.371  0.00  0.00    +0.000 NA
ATOM      4  C   UNL     1       3.730   3.493  19.809  0.00  0.00    +0.000 A 
ATOM      5  C   UNL     1       3.314   2.685  20.864  0.00  0.00    +0.000 A 
ATOM      6  C   UNL     1       2.001   2.708  21.343  0.00  0.00    +0.000 A 
ATOM      7  C   UNL     1       1.065   3.540  20.745  0.00  0.00    +0.000 A 
ATOM      8  C   UNL     1       1.460   4.381  19.705  0.00  0.00    +0.000 A 
ATOM      9  C   UNL     1       2.797   4.384  19.244  0.00  0.00    +0.000 A 
ATOM     10  C   UNL     1       3.279   5.240  18.237  0.00  0.00    +0.000 A 
ENDROOT
BRANCH   2  11
ATOM     11  O   UNL     1       6.678   3.958  17.974  0.00  0.00    +0.000 OA
ATOM     12  H   UNL     1       7.309   4.314  18.626  0.00  0.00    +0.000 HD
ENDBRANCH   2  11
BRANCH  10  13
ATOM     13  O   UNL     1       2.475   6.223  17.713  0.00  0.00    +0.000 OA
ATOM     14  H   UNL     1       2.784   6.376  16.801  0.00  0.00    +0.000 HD
ENDBRANCH  10  13
BRANCH   1  15
ATOM     15  C   UNL     1       5.032   6.010  16.600  0.00  0.00    +0.000 C 
BRANCH  15  17
ATOM     16  N   UNL     1       6.728   7.362  17.710  0.00  0.00    +0.000 N 
ATOM     17  C   UNL     1       6.478   6.440  16.729  0.00  0.00    +0.000 C 
ATOM     18  O   UNL     1       7.341   5.923  16.023  0.00  0.00    +0.000 OA
ATOM     19  H   UNL     1       5.974   7.666  18.315  0.00  0.00    +0.000 HD
BRANCH  16  20
ATOM     20  C   UNL     1       8.061   7.887  17.942  0.00  0.00    +0.000 C 
BRANCH  20  21
ATOM     21  C   UNL     1       8.098   9.417  17.929  0.00  0.00    +0.000 C 
BRANCH  21  23
ATOM     22  C   UNL     1       9.827  11.208  18.366  0.00  0.00    +0.000 C 
ATOM     23  C   UNL     1       9.121   9.980  18.918  0.00  0.00    +0.000 C 
ENDBRANCH  21  23
ENDBRANCH  20  21
ENDBRANCH  16  20
ENDBRANCH  15  17
ENDBRANCH   1  15
TORSDOF 7
ENDMDL
