MODEL 1
REMARK VINA RESULT:      -7.6      0.000      0.000
REMARK  Name = 
REMARK  9 active torsions:
REMARK  status: ('A' for Active; 'I' for Inactive)
REMARK    1  A    between atoms: C_1  and  C_2
REMARK    2  A    between atoms: C_2  and  C_3
REMARK    3  A    between atoms: N_5  and  C_6
REMARK    4  A    between atoms: N_5  and  C_12
REMARK    5  A    between atoms: C_16  and  C_18
REMARK    6  A    between atoms: C_18  and  C_19
REMARK    7  A    between atoms: C_19  and  N_20
REMARK    8  A    between atoms: C_19  and  C_21
REMARK    9  A    between atoms: C_24  and  C_25
REMARK                            x       y       z     vdW  Elec       q    Type
REMARK                         _______ _______ _______ _____ _____    ______ ____
ROOT
ATOM      1  C   UNL     1       5.650   5.974  18.172  0.00  0.00    +0.000 C 
ATOM      2  C   UNL     1       4.809   5.997  19.480  0.00  0.00    +0.000 C 
ATOM      3  C   UNL     1       3.308   6.053  19.199  0.00  0.00    +0.000 C 
ATOM      4  N   UNL     1       3.001   7.215  18.363  0.00  0.00    +0.000 N 
ATOM      5  C   UNL     1       2.089   8.166  18.808  0.00  0.00    +0.000 C 
ATOM      6  O   UNL     1       1.502   8.053  19.884  0.00  0.00    +0.000 OA
ATOM      7  C   UNL     1       3.754   7.285  17.115  0.00  0.00    +0.000 C 
ATOM      8  C   UNL     1       5.252   7.271  17.412  0.00  0.00    +0.000 C 
ENDROOT
BRANCH   1  11
ATOM      9  C   UNL     1       6.134   4.670  16.050  0.00  0.00    +0.000 C 
ATOM     10  O   UNL     1       6.888   5.546  15.621  0.00  0.00    +0.000 OA
ATOM     11  N   UNL     1       5.534   4.737  17.321  0.00  0.00    +0.000 N 
BRANCH  11  12
ATOM     12  C   UNL     1       4.514   3.797  17.674  0.00  0.00    +0.000 A 
ATOM     13  C   UNL     1       3.308   3.803  16.965  0.00  0.00    +0.000 A 
ATOM     14  C   UNL     1       2.321   2.854  17.228  0.00  0.00    +0.000 A 
ATOM     15  C   UNL     1       2.539   1.877  18.197  0.00  0.00    +0.000 A 
ATOM     16  C   UNL     1       3.740   1.854  18.905  0.00  0.00    +0.000 A 
ATOM     17  C   UNL     1       4.727   2.812  18.648  0.00  0.00    +0.000 A 
ENDBRANCH  11  12
BRANCH   9  19
ATOM     18  C   UNL     1       5.955   3.792  13.684  0.00  0.00    +0.000 C 
ATOM     19  C   UNL     1       5.824   3.462  15.167  0.00  0.00    +0.000 C 
ENDBRANCH   9  19
ENDBRANCH   1  11
BRANCH   5  20
ATOM     20  C   UNL     1       1.882   9.384  17.918  0.00  0.00    +0.000 C 
BRANCH  20  21
ATOM     21  C   UNL     1       1.317  10.601  18.668  0.00  0.00    +0.000 C 
BRANCH  21  22
ATOM     22  C   UNL     1      -0.188  10.712  18.473  0.00  0.00    +0.000 A 
ATOM     23  C   UNL     1      -0.833   9.874  17.551  0.00  0.00    +0.000 A 
ATOM     24  C   UNL     1      -2.214   9.954  17.350  0.00  0.00    +0.000 A 
ATOM     25  C   UNL     1      -2.985  10.870  18.071  0.00  0.00    +0.000 A 
ATOM     26  C   UNL     1      -4.469  10.953  17.874  0.00  0.00    +0.000 C 
ATOM     27  C   UNL     1      -2.352  11.704  18.998  0.00  0.00    +0.000 A 
ATOM     28  C   UNL     1      -0.970  11.625  19.199  0.00  0.00    +0.000 A 
ENDBRANCH  21  22
BRANCH  21  29
ATOM     29  N   UNL     1       1.965  11.864  18.288  0.00  0.00    +0.000 NA
ATOM     30  H   UNL     1       1.422  12.651  18.631  0.00  0.00    +0.000 HD
ATOM     31  H   UNL     1       1.934  11.922  17.265  0.00  0.00    +0.000 HD
ENDBRANCH  21  29
ENDBRANCH  20  21
ENDBRANCH   5  20
TORSDOF 7
ENDMDL
MODEL 2
REMARK VINA RESULT:      -7.5      0.577      1.382
REMARK  Name = 
REMARK  9 active torsions:
REMARK  status: ('A' for Active; 'I' for Inactive)
REMARK    1  A    between atoms: C_1  and  C_2
REMARK    2  A    between atoms: C_2  and  C_3
REMARK    3  A    between atoms: N_5  and  C_6
REMARK    4  A    between atoms: N_5  and  C_12
REMARK    5  A    between atoms: C_16  and  C_18
REMARK    6  A    between atoms: C_18  and  C_19
REMARK    7  A    between atoms: C_19  and  N_20
REMARK    8  A    between atoms: C_19  and  C_21
REMARK    9  A    between atoms: C_24  and  C_25
REMARK                            x       y       z     vdW  Elec       q    Type
REMARK                         _______ _______ _______ _____ _____    ______ ____
ROOT
ATOM      1  C   UNL     1       5.367   5.928  18.188  0.00  0.00    +0.000 C 
ATOM      2  C   UNL     1       4.618   5.795  19.544  0.00  0.00    +0.000 C 
ATOM      3  C   UNL     1       3.102   5.897  19.376  0.00  0.00    +0.000 C 
ATOM      4  N   UNL     1       2.758   7.155  18.711  0.00  0.00    +0.000 N 
ATOM      5  C   UNL     1       1.893   8.050  19.332  0.00  0.00    +0.000 C 
ATOM      6  O   UNL     1       1.379   7.810  20.424  0.00  0.00    +0.000 OA
ATOM      7  C   UNL     1       3.425   7.373  17.433  0.00  0.00    +0.000 C 
ATOM      8  C   UNL     1       4.940   7.311  17.621  0.00  0.00    +0.000 C 
ENDROOT
BRANCH   1  11
ATOM      9  C   UNL     1       5.648   4.909  15.881  0.00  0.00    +0.000 C 
ATOM     10  O   UNL     1       6.353   5.844  15.496  0.00  0.00    +0.000 OA
ATOM     11  N   UNL     1       5.175   4.806  17.202  0.00  0.00    +0.000 N 
BRANCH  11  12
ATOM     12  C   UNL     1       4.199   3.812  17.530  0.00  0.00    +0.000 A 
ATOM     13  C   UNL     1       4.548   2.775  18.402  0.00  0.00    +0.000 A 
ATOM     14  C   UNL     1       3.604   1.833  18.805  0.00  0.00    +0.000 A 
ATOM     15  C   UNL     1       2.291   1.927  18.347  0.00  0.00    +0.000 A 
ATOM     16  C   UNL     1       1.927   2.960  17.484  0.00  0.00    +0.000 A 
ATOM     17  C   UNL     1       2.877   3.901  17.072  0.00  0.00    +0.000 A 
ENDBRANCH  11  12
BRANCH   9  19
ATOM     18  C   UNL     1       6.096   3.880  13.614  0.00  0.00    +0.000 C 
ATOM     19  C   UNL     1       5.259   3.817  14.885  0.00  0.00    +0.000 C 
ENDBRANCH   9  19
ENDBRANCH   1  11
BRANCH   5  20
ATOM     20  C   UNL     1       1.645   9.370  18.614  0.00  0.00    +0.000 C 
BRANCH  20  21
ATOM     21  C   UNL     1       0.765  10.346  19.413  0.00  0.00    +0.000 C 
BRANCH  21  22
ATOM     22  C   UNL     1      -0.587  10.535  18.740  0.00  0.00    +0.000 A 
ATOM     23  C   UNL     1      -1.500  11.463  19.263  0.00  0.00    +0.000 A 
ATOM     24  C   UNL     1      -2.749  11.658  18.666  0.00  0.00    +0.000 A 
ATOM     25  C   UNL     1      -3.113  10.934  17.528  0.00  0.00    +0.000 A 
ATOM     26  C   UNL     1      -4.444  11.147  16.871  0.00  0.00    +0.000 C 
ATOM     27  C   UNL     1      -2.207  10.013  16.994  0.00  0.00    +0.000 A 
ATOM     28  C   UNL     1      -0.956   9.817  17.591  0.00  0.00    +0.000 A 
ENDBRANCH  21  22
BRANCH  21  29
ATOM     29  N   UNL     1       1.402  11.651  19.630  0.00  0.00    +0.000 NA
ATOM     30  H   UNL     1       2.210  11.751  19.023  0.00  0.00    +0.000 HD
ATOM     31  H   UNL     1       1.765  11.653  20.589  0.00  0.00    +0.000 HD
ENDBRANCH  21  29
ENDBRANCH  20  21
ENDBRANCH   5  20
TORSDOF 7
ENDMDL
MODEL 3
REMARK VINA RESULT:      -7.4      2.631      9.349
REMARK  Name = 
REMARK  9 active torsions:
REMARK  status: ('A' for Active; 'I' for Inactive)
REMARK    1  A    between atoms: C_1  and  C_2
REMARK    2  A    between atoms: C_2  and  C_3
REMARK    3  A    between atoms: N_5  and  C_6
REMARK    4  A    between atoms: N_5  and  C_12
REMARK    5  A    between atoms: C_16  and  C_18
REMARK    6  A    between atoms: C_18  and  C_19
REMARK    7  A    between atoms: C_19  and  N_20
REMARK    8  A    between atoms: C_19  and  C_21
REMARK    9  A    between atoms: C_24  and  C_25
REMARK                            x       y       z     vdW  Elec       q    Type
REMARK                         _______ _______ _______ _____ _____    ______ ____
ROOT
ATOM      1  C   UNL     1      -0.776  10.141  20.353  0.00  0.00    +0.000 C 
ATOM      2  C   UNL     1      -0.748   8.870  21.248  0.00  0.00    +0.000 C 
ATOM      3  C   UNL     1       0.676   8.449  21.607  0.00  0.00    +0.000 C 
ATOM      4  N   UNL     1       1.458   8.244  20.385  0.00  0.00    +0.000 N 
ATOM      5  C   UNL     1       2.064   7.015  20.151  0.00  0.00    +0.000 C 
ATOM      6  O   UNL     1       1.990   6.087  20.956  0.00  0.00    +0.000 OA
ATOM      7  C   UNL     1       1.479   9.384  19.475  0.00  0.00    +0.000 C 
ATOM      8  C   UNL     1       0.051   9.768  19.091  0.00  0.00    +0.000 C 
ENDROOT
BRANCH   1  11
ATOM      9  C   UNL     1      -0.806  11.821  22.255  0.00  0.00    +0.000 C 
ATOM     10  O   UNL     1      -1.515  11.095  22.955  0.00  0.00    +0.000 OA
ATOM     11  N   UNL     1      -0.319  11.424  20.996  0.00  0.00    +0.000 N 
BRANCH  11  12
ATOM     12  C   UNL     1       0.323  12.384  20.150  0.00  0.00    +0.000 A 
ATOM     13  C   UNL     1      -0.452  13.128  19.254  0.00  0.00    +0.000 A 
ATOM     14  C   UNL     1       0.125  14.125  18.469  0.00  0.00    +0.000 A 
ATOM     15  C   UNL     1       1.487  14.397  18.583  0.00  0.00    +0.000 A 
ATOM     16  C   UNL     1       2.269  13.669  19.479  0.00  0.00    +0.000 A 
ATOM     17  C   UNL     1       1.692  12.662  20.260  0.00  0.00    +0.000 A 
ENDBRANCH  11  12
BRANCH   9  19
ATOM     18  C   UNL     1      -1.669  14.116  22.877  0.00  0.00    +0.000 C 
ATOM     19  C   UNL     1      -0.444  13.216  22.764  0.00  0.00    +0.000 C 
ENDBRANCH   9  19
ENDBRANCH   1  11
BRANCH   5  20
ATOM     20  C   UNL     1       2.793   6.854  18.823  0.00  0.00    +0.000 C 
BRANCH  20  21
ATOM     21  C   UNL     1       3.022   5.387  18.424  0.00  0.00    +0.000 C 
BRANCH  21  22
ATOM     22  C   UNL     1       4.056   5.279  17.313  0.00  0.00    +0.000 A 
ATOM     23  C   UNL     1       4.489   4.015  16.887  0.00  0.00    +0.000 A 
ATOM     24  C   UNL     1       5.439   3.886  15.869  0.00  0.00    +0.000 A 
ATOM     25  C   UNL     1       5.973   5.017  15.248  0.00  0.00    +0.000 A 
ATOM     26  C   UNL     1       6.979   4.889  14.144  0.00  0.00    +0.000 C 
ATOM     27  C   UNL     1       5.540   6.282  15.660  0.00  0.00    +0.000 A 
ATOM     28  C   UNL     1       4.591   6.412  16.679  0.00  0.00    +0.000 A 
ENDBRANCH  21  22
BRANCH  21  29
ATOM     29  N   UNL     1       1.787   4.698  18.026  0.00  0.00    +0.000 NA
ATOM     30  H   UNL     1       1.685   4.722  17.016  0.00  0.00    +0.000 HD
ATOM     31  H   UNL     1       1.003   5.242  18.403  0.00  0.00    +0.000 HD
ENDBRANCH  21  29
ENDBRANCH  20  21
ENDBRANCH   5  20
TORSDOF 7
ENDMDL
MODEL 4
REMARK VINA RESULT:      -7.2      4.931      8.970
REMARK  Name = 
REMARK  9 active torsions:
REMARK  status: ('A' for Active; 'I' for Inactive)
REMARK    1  A    between atoms: C_1  and  C_2
REMARK    2  A    between atoms: C_2  and  C_3
REMARK    3  A    between atoms: N_5  and  C_6
REMARK    4  A    between atoms: N_5  and  C_12
REMARK    5  A    between atoms: C_16  and  C_18
REMARK    6  A    between atoms: C_18  and  C_19
REMARK    7  A    between atoms: C_19  and  N_20
REMARK    8  A    between atoms: C_19  and  C_21
REMARK    9  A    between atoms: C_24  and  C_25
REMARK                            x       y       z     vdW  Elec       q    Type
REMARK                         _______ _______ _______ _____ _____    ______ ____
ROOT
ATOM      1  C   UNL     1       0.037  12.313  20.318  0.00  0.00    +0.000 C 
ATOM      2  C   UNL     1      -0.423  13.760  19.982  0.00  0.00    +0.000 C 
ATOM      3  C   UNL     1       0.383  14.368  18.835  0.00  0.00    +0.000 C 
ATOM      4  N   UNL     1       1.811  14.337  19.158  0.00  0.00    +0.000 N 
ATOM      5  C   UNL     1       2.544  15.519  19.169  0.00  0.00    +0.000 C 
ATOM      6  O   UNL     1       2.035  16.604  18.887  0.00  0.00    +0.000 OA
ATOM      7  C   UNL     1       2.331  13.018  19.500  0.00  0.00    +0.000 C 
ATOM      8  C   UNL     1       1.545  12.439  20.675  0.00  0.00    +0.000 C 
ENDROOT
BRANCH   1  11
ATOM      9  C   UNL     1      -1.472  11.201  18.608  0.00  0.00    +0.000 C 
ATOM     10  O   UNL     1      -2.343  12.063  18.738  0.00  0.00    +0.000 OA
ATOM     11  N   UNL     1      -0.233  11.264  19.273  0.00  0.00    +0.000 N 
BRANCH  11  12
ATOM     12  C   UNL     1       0.646  10.135  19.241  0.00  0.00    +0.000 A 
ATOM     13  C   UNL     1       0.685   9.271  20.340  0.00  0.00    +0.000 A 
ATOM     14  C   UNL     1       1.470   8.119  20.316  0.00  0.00    +0.000 A 
ATOM     15  C   UNL     1       2.217   7.814  19.180  0.00  0.00    +0.000 A 
ATOM     16  C   UNL     1       2.181   8.662  18.074  0.00  0.00    +0.000 A 
ATOM     17  C   UNL     1       1.400   9.822  18.102  0.00  0.00    +0.000 A 
ENDBRANCH  11  12
BRANCH   9  19
ATOM     18  C   UNL     1      -3.222   9.882  17.345  0.00  0.00    +0.000 C 
ATOM     19  C   UNL     1      -1.745  10.004  17.697  0.00  0.00    +0.000 C 
ENDBRANCH   9  19
ENDBRANCH   1  11
BRANCH   5  20
ATOM     20  C   UNL     1       4.003  15.415  19.590  0.00  0.00    +0.000 C 
BRANCH  20  21
ATOM     21  C   UNL     1       4.959  16.218  18.692  0.00  0.00    +0.000 C 
BRANCH  21  22
ATOM     22  C   UNL     1       6.279  15.484  18.507  0.00  0.00    +0.000 A 
ATOM     23  C   UNL     1       6.329  14.336  17.702  0.00  0.00    +0.000 A 
ATOM     24  C   UNL     1       7.527  13.641  17.515  0.00  0.00    +0.000 A 
ATOM     25  C   UNL     1       8.706  14.081  18.122  0.00  0.00    +0.000 A 
ATOM     26  C   UNL     1      10.000  13.353  17.913  0.00  0.00    +0.000 C 
ATOM     27  C   UNL     1       8.668  15.230  18.918  0.00  0.00    +0.000 A 
ATOM     28  C   UNL     1       7.469  15.926  19.107  0.00  0.00    +0.000 A 
ENDBRANCH  21  22
BRANCH  21  29
ATOM     29  N   UNL     1       5.209  17.579  19.187  0.00  0.00    +0.000 NA
ATOM     30  H   UNL     1       4.763  18.259  18.579  0.00  0.00    +0.000 HD
ATOM     31  H   UNL     1       6.218  17.747  19.110  0.00  0.00    +0.000 HD
ENDBRANCH  21  29
ENDBRANCH  20  21
ENDBRANCH   5  20
TORSDOF 7
ENDMDL
MODEL 5
REMARK VINA RESULT:      -7.0      7.349     11.631
REMARK  Name = 
REMARK  9 active torsions:
REMARK  status: ('A' for Active; 'I' for Inactive)
REMARK    1  A    between atoms: C_1  and  C_2
REMARK    2  A    between atoms: C_2  and  C_3
REMARK    3  A    between atoms: N_5  and  C_6
REMARK    4  A    between atoms: N_5  and  C_12
REMARK    5  A    between atoms: C_16  and  C_18
REMARK    6  A    between atoms: C_18  and  C_19
REMARK    7  A    between atoms: C_19  and  N_20
REMARK    8  A    between atoms: C_19  and  C_21
REMARK    9  A    between atoms: C_24  and  C_25
REMARK                            x       y       z     vdW  Elec       q    Type
REMARK                         _______ _______ _______ _____ _____    ______ ____
ROOT
ATOM      1  C   UNL     1      -4.035  12.289  22.195  0.00  0.00    +0.000 C 
ATOM      2  C   UNL     1      -3.139  12.421  23.460  0.00  0.00    +0.000 C 
ATOM      3  C   UNL     1      -2.835  13.879  23.800  0.00  0.00    +0.000 C 
ATOM      4  N   UNL     1      -2.215  14.541  22.651  0.00  0.00    +0.000 N 
ATOM      5  C   UNL     1      -0.967  15.139  22.788  0.00  0.00    +0.000 C 
ATOM      6  O   UNL     1      -0.366  15.155  23.862  0.00  0.00    +0.000 OA
ATOM      7  C   UNL     1      -2.981  14.458  21.412  0.00  0.00    +0.000 C 
ATOM      8  C   UNL     1      -3.241  12.995  21.060  0.00  0.00    +0.000 C 
ENDROOT
BRANCH   1  11
ATOM      9  C   UNL     1      -6.170  12.640  23.520  0.00  0.00    +0.000 C 
ATOM     10  O   UNL     1      -5.656  12.224  24.560  0.00  0.00    +0.000 OA
ATOM     11  N   UNL     1      -5.450  12.789  22.320  0.00  0.00    +0.000 N 
BRANCH  11  12
ATOM     12  C   UNL     1      -6.148  13.079  21.105  0.00  0.00    +0.000 A 
ATOM     13  C   UNL     1      -6.582  12.020  20.301  0.00  0.00    +0.000 A 
ATOM     14  C   UNL     1      -7.332  12.258  19.150  0.00  0.00    +0.000 A 
ATOM     15  C   UNL     1      -7.667  13.564  18.799  0.00  0.00    +0.000 A 
ATOM     16  C   UNL     1      -7.249  14.628  19.597  0.00  0.00    +0.000 A 
ATOM     17  C   UNL     1      -6.489  14.390  20.747  0.00  0.00    +0.000 A 
ENDBRANCH  11  12
BRANCH   9  19
ATOM     18  C   UNL     1      -7.916  14.337  24.206  0.00  0.00    +0.000 C 
ATOM     19  C   UNL     1      -7.656  13.001  23.521  0.00  0.00    +0.000 C 
ENDBRANCH   9  19
ENDBRANCH   1  11
BRANCH   5  20
ATOM     20  C   UNL     1      -0.353  15.737  21.529  0.00  0.00    +0.000 C 
BRANCH  20  21
ATOM     21  C   UNL     1       0.819  14.915  20.969  0.00  0.00    +0.000 C 
BRANCH  21  22
ATOM     22  C   UNL     1       0.316  13.696  20.209  0.00  0.00    +0.000 A 
ATOM     23  C   UNL     1      -0.281  13.859  18.949  0.00  0.00    +0.000 A 
ATOM     24  C   UNL     1      -0.752  12.758  18.229  0.00  0.00    +0.000 A 
ATOM     25  C   UNL     1      -0.633  11.466  18.748  0.00  0.00    +0.000 A 
ATOM     26  C   UNL     1      -1.121  10.277  17.976  0.00  0.00    +0.000 C 
ATOM     27  C   UNL     1      -0.032  11.293  19.998  0.00  0.00    +0.000 A 
ATOM     28  C   UNL     1       0.440  12.394  20.720  0.00  0.00    +0.000 A 
ENDBRANCH  21  22
BRANCH  21  29
ATOM     29  N   UNL     1       1.777  14.500  22.001  0.00  0.00    +0.000 NA
ATOM     30  H   UNL     1       1.799  13.486  22.069  0.00  0.00    +0.000 HD
ATOM     31  H   UNL     1       1.416  14.836  22.901  0.00  0.00    +0.000 HD
ENDBRANCH  21  29
ENDBRANCH  20  21
ENDBRANCH   5  20
TORSDOF 7
ENDMDL
MODEL 6
REMARK VINA RESULT:      -7.0      3.076      4.380
REMARK  Name = 
REMARK  9 active torsions:
REMARK  status: ('A' for Active; 'I' for Inactive)
REMARK    1  A    between atoms: C_1  and  C_2
REMARK    2  A    between atoms: C_2  and  C_3
REMARK    3  A    between atoms: N_5  and  C_6
REMARK    4  A    between atoms: N_5  and  C_12
REMARK    5  A    between atoms: C_16  and  C_18
REMARK    6  A    between atoms: C_18  and  C_19
REMARK    7  A    between atoms: C_19  and  N_20
REMARK    8  A    between atoms: C_19  and  C_21
REMARK    9  A    between atoms: C_24  and  C_25
REMARK                            x       y       z     vdW  Elec       q    Type
REMARK                         _______ _______ _______ _____ _____    ______ ____
ROOT
ATOM      1  C   UNL     1       2.104   4.288  18.615  0.00  0.00    +0.000 C 
ATOM      2  C   UNL     1       2.236   5.653  17.881  0.00  0.00    +0.000 C 
ATOM      3  C   UNL     1       2.787   6.747  18.794  0.00  0.00    +0.000 C 
ATOM      4  N   UNL     1       1.944   6.875  19.984  0.00  0.00    +0.000 N 
ATOM      5  C   UNL     1       1.360   8.099  20.289  0.00  0.00    +0.000 C 
ATOM      6  O   UNL     1       1.550   9.102  19.601  0.00  0.00    +0.000 OA
ATOM      7  C   UNL     1       1.752   5.637  20.732  0.00  0.00    +0.000 C 
ATOM      8  C   UNL     1       1.162   4.565  19.820  0.00  0.00    +0.000 C 
ENDROOT
BRANCH   1  11
ATOM      9  C   UNL     1       3.426   2.693  20.079  0.00  0.00    +0.000 C 
ATOM     10  O   UNL     1       2.409   2.283  20.641  0.00  0.00    +0.000 OA
ATOM     11  N   UNL     1       3.390   3.617  19.018  0.00  0.00    +0.000 N 
BRANCH  11  12
ATOM     12  C   UNL     1       4.608   4.205  18.549  0.00  0.00    +0.000 A 
ATOM     13  C   UNL     1       5.376   4.974  19.430  0.00  0.00    +0.000 A 
ATOM     14  C   UNL     1       6.604   5.500  19.034  0.00  0.00    +0.000 A 
ATOM     15  C   UNL     1       7.084   5.249  17.750  0.00  0.00    +0.000 A 
ATOM     16  C   UNL     1       6.333   4.476  16.865  0.00  0.00    +0.000 A 
ATOM     17  C   UNL     1       5.096   3.956  17.260  0.00  0.00    +0.000 A 
ENDBRANCH  11  12
BRANCH   9  19
ATOM     18  C   UNL     1       5.043   0.748  20.135  0.00  0.00    +0.000 C 
ATOM     19  C   UNL     1       4.789   2.191  20.555  0.00  0.00    +0.000 C 
ENDBRANCH   9  19
ENDBRANCH   1  11
BRANCH   5  20
ATOM     20  C   UNL     1       0.434   8.133  21.498  0.00  0.00    +0.000 C 
BRANCH  20  21
ATOM     21  C   UNL     1       0.825   9.194  22.540  0.00  0.00    +0.000 C 
BRANCH  21  22
ATOM     22  C   UNL     1      -0.063  10.424  22.426  0.00  0.00    +0.000 A 
ATOM     23  C   UNL     1       0.255  11.429  21.501  0.00  0.00    +0.000 A 
ATOM     24  C   UNL     1      -0.542  12.570  21.375  0.00  0.00    +0.000 A 
ATOM     25  C   UNL     1      -1.682  12.731  22.167  0.00  0.00    +0.000 A 
ATOM     26  C   UNL     1      -2.553  13.943  22.027  0.00  0.00    +0.000 C 
ATOM     27  C   UNL     1      -2.013  11.730  23.085  0.00  0.00    +0.000 A 
ATOM     28  C   UNL     1      -1.215  10.588  23.212  0.00  0.00    +0.000 A 
ENDBRANCH  21  22
BRANCH  21  29
ATOM     29  N   UNL     1       2.238   9.589  22.458  0.00  0.00    +0.000 NA
ATOM     30  H   UNL     1       2.319  10.508  22.033  0.00  0.00    +0.000 HD
ATOM     31  H   UNL     1       2.696   8.937  21.812  0.00  0.00    +0.000 HD
ENDBRANCH  21  29
ENDBRANCH  20  21
ENDBRANCH   5  20
TORSDOF 7
ENDMDL
MODEL 7
REMARK VINA RESULT:      -7.0      2.826      4.396
REMARK  Name = 
REMARK  9 active torsions:
REMARK  status: ('A' for Active; 'I' for Inactive)
REMARK    1  A    between atoms: C_1  and  C_2
REMARK    2  A    between atoms: C_2  and  C_3
REMARK    3  A    between atoms: N_5  and  C_6
REMARK    4  A    between atoms: N_5  and  C_12
REMARK    5  A    between atoms: C_16  and  C_18
REMARK    6  A    between atoms: C_18  and  C_19
REMARK    7  A    between atoms: C_19  and  N_20
REMARK    8  A    between atoms: C_19  and  C_21
REMARK    9  A    between atoms: C_24  and  C_25
REMARK                            x       y       z     vdW  Elec       q    Type
REMARK                         _______ _______ _______ _____ _____    ______ ____
ROOT
ATOM      1  C   UNL     1       1.748   4.215  19.071  0.00  0.00    +0.000 C 
ATOM      2  C   UNL     1       1.681   5.341  18.001  0.00  0.00    +0.000 C 
ATOM      3  C   UNL     1       2.562   6.535  18.366  0.00  0.00    +0.000 C 
ATOM      4  N   UNL     1       2.186   7.047  19.685  0.00  0.00    +0.000 N 
ATOM      5  C   UNL     1       1.800   8.375  19.827  0.00  0.00    +0.000 C 
ATOM      6  O   UNL     1       1.786   9.156  18.875  0.00  0.00    +0.000 OA
ATOM      7  C   UNL     1       2.208   6.055  20.754  0.00  0.00    +0.000 C 
ATOM      8  C   UNL     1       1.291   4.886  20.397  0.00  0.00    +0.000 C 
ENDROOT
BRANCH   1  11
ATOM      9  C   UNL     1       3.333   2.672  20.314  0.00  0.00    +0.000 C 
ATOM     10  O   UNL     1       2.482   2.392  21.160  0.00  0.00    +0.000 OA
ATOM     11  N   UNL     1       3.062   3.492  19.203  0.00  0.00    +0.000 N 
BRANCH  11  12
ATOM     12  C   UNL     1       4.139   3.943  18.375  0.00  0.00    +0.000 A 
ATOM     13  C   UNL     1       5.146   4.734  18.939  0.00  0.00    +0.000 A 
ATOM     14  C   UNL     1       6.250   5.129  18.185  0.00  0.00    +0.000 A 
ATOM     15  C   UNL     1       6.364   4.722  16.857  0.00  0.00    +0.000 A 
ATOM     16  C   UNL     1       5.373   3.926  16.285  0.00  0.00    +0.000 A 
ATOM     17  C   UNL     1       4.260   3.537  17.039  0.00  0.00    +0.000 A 
ENDBRANCH  11  12
BRANCH   9  19
ATOM     18  C   UNL     1       4.889   0.727  19.870  0.00  0.00    +0.000 C 
ATOM     19  C   UNL     1       4.749   2.118  20.476  0.00  0.00    +0.000 C 
ENDBRANCH   9  19
ENDBRANCH   1  11
BRANCH   5  20
ATOM     20  C   UNL     1       1.349   8.812  21.214  0.00  0.00    +0.000 C 
BRANCH  20  21
ATOM     21  C   UNL     1      -0.161   9.090  21.308  0.00  0.00    +0.000 C 
BRANCH  21  22
ATOM     22  C   UNL     1      -0.428  10.565  21.568  0.00  0.00    +0.000 A 
ATOM     23  C   UNL     1      -0.996  10.965  22.787  0.00  0.00    +0.000 A 
ATOM     24  C   UNL     1      -1.253  12.313  23.053  0.00  0.00    +0.000 A 
ATOM     25  C   UNL     1      -0.943  13.295  22.109  0.00  0.00    +0.000 A 
ATOM     26  C   UNL     1      -1.200  14.745  22.391  0.00  0.00    +0.000 C 
ATOM     27  C   UNL     1      -0.368  12.907  20.895  0.00  0.00    +0.000 A 
ATOM     28  C   UNL     1      -0.111  11.558  20.627  0.00  0.00    +0.000 A 
ENDBRANCH  21  22
BRANCH  21  29
ATOM     29  N   UNL     1      -0.835   8.273  22.327  0.00  0.00    +0.000 NA
ATOM     30  H   UNL     1      -1.750   8.660  22.535  0.00  0.00    +0.000 HD
ATOM     31  H   UNL     1      -0.288   8.357  23.190  0.00  0.00    +0.000 HD
ENDBRANCH  21  29
ENDBRANCH  20  21
ENDBRANCH   5  20
TORSDOF 7
ENDMDL
MODEL 8
REMARK VINA RESULT:      -7.0      2.561      9.369
REMARK  Name = 
REMARK  9 active torsions:
REMARK  status: ('A' for Active; 'I' for Inactive)
REMARK    1  A    between atoms: C_1  and  C_2
REMARK    2  A    between atoms: C_2  and  C_3
REMARK    3  A    between atoms: N_5  and  C_6
REMARK    4  A    between atoms: N_5  and  C_12
REMARK    5  A    between atoms: C_16  and  C_18
REMARK    6  A    between atoms: C_18  and  C_19
REMARK    7  A    between atoms: C_19  and  N_20
REMARK    8  A    between atoms: C_19  and  C_21
REMARK    9  A    between atoms: C_24  and  C_25
REMARK                            x       y       z     vdW  Elec       q    Type
REMARK                         _______ _______ _______ _____ _____    ______ ____
ROOT
ATOM      1  C   UNL     1      -0.765  10.362  20.199  0.00  0.00    +0.000 C 
ATOM      2  C   UNL     1      -0.812   9.056  21.041  0.00  0.00    +0.000 C 
ATOM      3  C   UNL     1       0.584   8.569  21.427  0.00  0.00    +0.000 C 
ATOM      4  N   UNL     1       1.398   8.385  20.224  0.00  0.00    +0.000 N 
ATOM      5  C   UNL     1       1.969   7.145  19.958  0.00  0.00    +0.000 C 
ATOM      6  O   UNL     1       1.835   6.189  20.721  0.00  0.00    +0.000 OA
ATOM      7  C   UNL     1       1.490   9.559  19.363  0.00  0.00    +0.000 C 
ATOM      8  C   UNL     1       0.090  10.010  18.950  0.00  0.00    +0.000 C 
ENDROOT
BRANCH   1  11
ATOM      9  C   UNL     1      -0.826  11.984  22.150  0.00  0.00    +0.000 C 
ATOM     10  O   UNL     1      -1.609  11.274  22.783  0.00  0.00    +0.000 OA
ATOM     11  N   UNL     1      -0.285  11.601  20.908  0.00  0.00    +0.000 N 
BRANCH  11  12
ATOM     12  C   UNL     1       0.451  12.551  20.132  0.00  0.00    +0.000 A 
ATOM     13  C   UNL     1       1.826  12.691  20.351  0.00  0.00    +0.000 A 
ATOM     14  C   UNL     1       2.591  13.549  19.564  0.00  0.00    +0.000 A 
ATOM     15  C   UNL     1       1.986  14.271  18.536  0.00  0.00    +0.000 A 
ATOM     16  C   UNL     1       0.619  14.134  18.301  0.00  0.00    +0.000 A 
ATOM     17  C   UNL     1      -0.151  13.279  19.097  0.00  0.00    +0.000 A 
ENDBRANCH  11  12
BRANCH   9  19
ATOM     18  C   UNL     1      -1.501  14.398  22.485  0.00  0.00    +0.000 C 
ATOM     19  C   UNL     1      -0.428  13.343  22.724  0.00  0.00    +0.000 C 
ENDBRANCH   9  19
ENDBRANCH   1  11
BRANCH   5  20
ATOM     20  C   UNL     1       2.735   7.011  18.649  0.00  0.00    +0.000 C 
BRANCH  20  21
ATOM     21  C   UNL     1       4.143   6.418  18.822  0.00  0.00    +0.000 C 
BRANCH  21  22
ATOM     22  C   UNL     1       4.625   5.773  17.530  0.00  0.00    +0.000 A 
ATOM     23  C   UNL     1       4.964   6.580  16.434  0.00  0.00    +0.000 A 
ATOM     24  C   UNL     1       5.409   6.015  15.235  0.00  0.00    +0.000 A 
ATOM     25  C   UNL     1       5.532   4.630  15.106  0.00  0.00    +0.000 A 
ATOM     26  C   UNL     1       6.024   4.015  13.830  0.00  0.00    +0.000 C 
ATOM     27  C   UNL     1       5.206   3.817  16.196  0.00  0.00    +0.000 A 
ATOM     28  C   UNL     1       4.760   4.381  17.396  0.00  0.00    +0.000 A 
ENDBRANCH  21  22
BRANCH  21  29
ATOM     29  N   UNL     1       4.230   5.452  19.925  0.00  0.00    +0.000 NA
ATOM     30  H   UNL     1       5.139   5.516  20.375  0.00  0.00    +0.000 HD
ATOM     31  H   UNL     1       4.185   4.515  19.510  0.00  0.00    +0.000 HD
ENDBRANCH  21  29
ENDBRANCH  20  21
ENDBRANCH   5  20
TORSDOF 7
ENDMDL
MODEL 9
REMARK VINA RESULT:      -7.0      4.801      8.881
REMARK  Name = 
REMARK  9 active torsions:
REMARK  status: ('A' for Active; 'I' for Inactive)
REMARK    1  A    between atoms: C_1  and  C_2
REMARK    2  A    between atoms: C_2  and  C_3
REMARK    3  A    between atoms: N_5  and  C_6
REMARK    4  A    between atoms: N_5  and  C_12
REMARK    5  A    between atoms: C_16  and  C_18
REMARK    6  A    between atoms: C_18  and  C_19
REMARK    7  A    between atoms: C_19  and  N_20
REMARK    8  A    between atoms: C_19  and  C_21
REMARK    9  A    between atoms: C_24  and  C_25
REMARK                            x       y       z     vdW  Elec       q    Type
REMARK                         _______ _______ _______ _____ _____    ______ ____
ROOT
ATOM      1  C   UNL     1      -0.208  12.154  20.221  0.00  0.00    +0.000 C 
ATOM      2  C   UNL     1      -0.643  13.597  19.835  0.00  0.00    +0.000 C 
ATOM      3  C   UNL     1       0.223  14.181  18.721  0.00  0.00    +0.000 C 
ATOM      4  N   UNL     1       1.633  14.150  19.116  0.00  0.00    +0.000 N 
ATOM      5  C   UNL     1       2.370  15.329  19.144  0.00  0.00    +0.000 C 
ATOM      6  O   UNL     1       1.882  16.410  18.817  0.00  0.00    +0.000 OA
ATOM      7  C   UNL     1       2.128  12.835  19.508  0.00  0.00    +0.000 C 
ATOM      8  C   UNL     1       1.280  12.280  20.651  0.00  0.00    +0.000 C 
ENDROOT
BRANCH   1  11
ATOM      9  C   UNL     1      -1.611  11.051  18.417  0.00  0.00    +0.000 C 
ATOM     10  O   UNL     1      -2.456  11.947  18.453  0.00  0.00    +0.000 OA
ATOM     11  N   UNL     1      -0.430  11.087  19.182  0.00  0.00    +0.000 N 
BRANCH  11  12
ATOM     12  C   UNL     1       0.406   9.927  19.251  0.00  0.00    +0.000 A 
ATOM     13  C   UNL     1       1.194   9.588  18.146  0.00  0.00    +0.000 A 
ATOM     14  C   UNL     1       2.077   8.512  18.202  0.00  0.00    +0.000 A 
ATOM     15  C   UNL     1       2.190   7.768  19.375  0.00  0.00    +0.000 A 
ATOM     16  C   UNL     1       1.418   8.100  20.487  0.00  0.00    +0.000 A 
ATOM     17  C   UNL     1       0.524   9.176  20.428  0.00  0.00    +0.000 A 
ENDBRANCH  11  12
BRANCH   9  19
ATOM     18  C   UNL     1      -3.007  10.071  16.548  0.00  0.00    +0.000 C 
ATOM     19  C   UNL     1      -1.852   9.840  17.515  0.00  0.00    +0.000 C 
ENDBRANCH   9  19
ENDBRANCH   1  11
BRANCH   5  20
ATOM     20  C   UNL     1       3.805  15.227  19.641  0.00  0.00    +0.000 C 
BRANCH  20  21
ATOM     21  C   UNL     1       4.839  15.774  18.643  0.00  0.00    +0.000 C 
BRANCH  21  22
ATOM     22  C   UNL     1       6.192  15.104  18.837  0.00  0.00    +0.000 A 
ATOM     23  C   UNL     1       6.722  14.969  20.129  0.00  0.00    +0.000 A 
ATOM     24  C   UNL     1       7.962  14.358  20.337  0.00  0.00    +0.000 A 
ATOM     25  C   UNL     1       8.700  13.862  19.259  0.00  0.00    +0.000 A 
ATOM     26  C   UNL     1      10.023  13.191  19.474  0.00  0.00    +0.000 C 
ATOM     27  C   UNL     1       8.175  13.983  17.969  0.00  0.00    +0.000 A 
ATOM     28  C   UNL     1       6.934  14.595  17.759  0.00  0.00    +0.000 A 
ENDBRANCH  21  22
BRANCH  21  29
ATOM     29  N   UNL     1       4.990  17.233  18.711  0.00  0.00    +0.000 NA
ATOM     30  H   UNL     1       5.932  17.473  19.007  0.00  0.00    +0.000 HD
ATOM     31  H   UNL     1       4.366  17.566  19.454  0.00  0.00    +0.000 HD
ENDBRANCH  21  29
ENDBRANCH  20  21
ENDBRANCH   5  20
TORSDOF 7
ENDMDL
