MODEL 1
REMARK VINA RESULT:      -8.3      0.000      0.000
REMARK  Name = 
REMARK  7 active torsions:
REMARK  status: ('A' for Active; 'I' for Inactive)
REMARK    1  A    between atoms: C_1  and  C_2
REMARK    2  A    between atoms: C_2  and  C_4
REMARK    3  A    between atoms: C_4  and  C_5
REMARK    4  A    between atoms: C_5  and  C_6
REMARK    5  A    between atoms: C_5  and  C_15
REMARK    6  A    between atoms: C_9  and  N_10
REMARK    7  A    between atoms: C_16  and  O_17
REMARK                            x       y       z     vdW  Elec       q    Type
REMARK                         _______ _______ _______ _____ _____    ______ ____
ROOT
ATOM      1  C   UNL     1       6.011   5.300  17.394  0.00  0.00    +0.000 C 
ENDROOT
BRANCH   1   2
ATOM      2  C   UNL     1       4.716   4.943  18.137  0.00  0.00    +0.000 A 
ATOM      3  C   UNL     1       4.552   3.831  18.884  0.00  0.00    +0.000 A 
ATOM      4  C   UNL     1       3.370   3.671  19.725  0.00  0.00    +0.000 A 
ATOM      5  C   UNL     1       3.336   2.856  20.861  0.00  0.00    +0.000 A 
ATOM      6  C   UNL     1       2.152   2.717  21.587  0.00  0.00    +0.000 A 
ATOM      7  C   UNL     1       0.987   3.357  21.156  0.00  0.00    +0.000 A 
ATOM      8  C   UNL     1       1.022   4.195  20.041  0.00  0.00    +0.000 A 
ATOM      9  C   UNL     1       2.232   4.378  19.373  0.00  0.00    +0.000 A 
ATOM     10  O   UNL     1       2.304   5.354  18.373  0.00  0.00    +0.000 OA
ATOM     11  C   UNL     1       3.564   5.905  18.137  0.00  0.00    +0.000 A 
ATOM     12  O   UNL     1       3.688   7.075  17.820  0.00  0.00    +0.000 OA
BRANCH   3  13
ATOM     13  O   UNL     1       5.429   2.770  18.947  0.00  0.00    +0.000 OA
ATOM     14  H   UNL     1       5.460   2.407  19.843  0.00  0.00    +0.000 HD
ENDBRANCH   3  13
ENDBRANCH   1   2
BRANCH   1  15
ATOM     15  C   UNL     1       6.005   4.812  15.946  0.00  0.00    +0.000 A 
ATOM     16  C   UNL     1       4.897   4.121  15.407  0.00  0.00    +0.000 A 
ATOM     17  C   UNL     1       4.914   3.620  14.120  0.00  0.00    +0.000 A 
ATOM     18  C   UNL     1       6.048   3.801  13.327  0.00  0.00    +0.000 A 
ATOM     19  C   UNL     1       7.157   4.506  13.828  0.00  0.00    +0.000 A 
ATOM     20  C   UNL     1       7.127   5.008  15.124  0.00  0.00    +0.000 A 
BRANCH  18  21
ATOM     21  N   UNL     1       6.096   3.242  11.975  0.00  0.00    +0.000 N 
ATOM     22  O   UNL     1       5.021   3.048  11.394  0.00  0.00    +0.000 OA
ATOM     23  O   UNL     1       7.212   2.984  11.494  0.00  0.00    +0.000 OA
ENDBRANCH  18  21
ENDBRANCH   1  15
BRANCH   1  24
ATOM     24  C   UNL     1       7.341   4.902  18.077  0.00  0.00    +0.000 C 
BRANCH  24  26
ATOM     25  C   UNL     1       8.198   7.257  18.731  0.00  0.00    +0.000 C 
ATOM     26  C   UNL     1       7.763   5.876  19.184  0.00  0.00    +0.000 C 
ATOM     27  O   UNL     1       7.842   5.544  20.357  0.00  0.00    +0.000 OA
ENDBRANCH  24  26
ENDBRANCH   1  24
TORSDOF 6
ENDMDL
MODEL 2
REMARK VINA RESULT:      -8.2      0.730      1.228
REMARK  Name = 
REMARK  7 active torsions:
REMARK  status: ('A' for Active; 'I' for Inactive)
REMARK    1  A    between atoms: C_1  and  C_2
REMARK    2  A    between atoms: C_2  and  C_4
REMARK    3  A    between atoms: C_4  and  C_5
REMARK    4  A    between atoms: C_5  and  C_6
REMARK    5  A    between atoms: C_5  and  C_15
REMARK    6  A    between atoms: C_9  and  N_10
REMARK    7  A    between atoms: C_16  and  O_17
REMARK                            x       y       z     vdW  Elec       q    Type
REMARK                         _______ _______ _______ _____ _____    ______ ____
ROOT
ATOM      1  C   UNL     1       5.830   5.746  17.472  0.00  0.00    +0.000 C 
ENDROOT
BRANCH   1   2
ATOM      2  C   UNL     1       4.589   5.207  18.197  0.00  0.00    +0.000 A 
ATOM      3  C   UNL     1       4.563   4.061  18.907  0.00  0.00    +0.000 A 
ATOM      4  C   UNL     1       3.409   3.728  19.737  0.00  0.00    +0.000 A 
ATOM      5  C   UNL     1       3.475   2.880  20.846  0.00  0.00    +0.000 A 
ATOM      6  C   UNL     1       2.317   2.571  21.562  0.00  0.00    +0.000 A 
ATOM      7  C   UNL     1       1.082   3.075  21.144  0.00  0.00    +0.000 A 
ATOM      8  C   UNL     1       1.014   3.945  20.056  0.00  0.00    +0.000 A 
ATOM      9  C   UNL     1       2.193   4.299  19.401  0.00  0.00    +0.000 A 
ATOM     10  O   UNL     1       2.143   5.307  18.432  0.00  0.00    +0.000 OA
ATOM     11  C   UNL     1       3.326   6.018  18.220  0.00  0.00    +0.000 A 
ATOM     12  O   UNL     1       3.303   7.204  17.940  0.00  0.00    +0.000 OA
BRANCH   3  13
ATOM     13  O   UNL     1       5.565   3.116  18.942  0.00  0.00    +0.000 OA
ATOM     14  H   UNL     1       6.312   3.390  18.393  0.00  0.00    +0.000 HD
ENDBRANCH   3  13
ENDBRANCH   1   2
BRANCH   1  15
ATOM     15  C   UNL     1       6.034   5.096  16.104  0.00  0.00    +0.000 A 
ATOM     16  C   UNL     1       7.227   5.283  15.370  0.00  0.00    +0.000 A 
ATOM     17  C   UNL     1       7.387   4.752  14.106  0.00  0.00    +0.000 A 
ATOM     18  C   UNL     1       6.353   4.010  13.535  0.00  0.00    +0.000 A 
ATOM     19  C   UNL     1       5.164   3.786  14.251  0.00  0.00    +0.000 A 
ATOM     20  C   UNL     1       5.014   4.323  15.524  0.00  0.00    +0.000 A 
BRANCH  18  21
ATOM     21  N   UNL     1       6.494   3.474  12.180  0.00  0.00    +0.000 N 
ATOM     22  O   UNL     1       5.686   2.613  11.814  0.00  0.00    +0.000 OA
ATOM     23  O   UNL     1       7.425   3.908  11.480  0.00  0.00    +0.000 OA
ENDBRANCH  18  21
ENDBRANCH   1  15
BRANCH   1  24
ATOM     24  C   UNL     1       7.160   5.736  18.262  0.00  0.00    +0.000 C 
BRANCH  24  26
ATOM     25  C   UNL     1       7.280   8.186  17.431  0.00  0.00    +0.000 C 
ATOM     26  C   UNL     1       7.798   7.126  18.384  0.00  0.00    +0.000 C 
ATOM     27  O   UNL     1       8.736   7.355  19.132  0.00  0.00    +0.000 OA
ENDBRANCH  24  26
ENDBRANCH   1  24
TORSDOF 6
ENDMDL
MODEL 3
REMARK VINA RESULT:      -8.2      0.420      1.155
REMARK  Name = 
REMARK  7 active torsions:
REMARK  status: ('A' for Active; 'I' for Inactive)
REMARK    1  A    between atoms: C_1  and  C_2
REMARK    2  A    between atoms: C_2  and  C_4
REMARK    3  A    between atoms: C_4  and  C_5
REMARK    4  A    between atoms: C_5  and  C_6
REMARK    5  A    between atoms: C_5  and  C_15
REMARK    6  A    between atoms: C_9  and  N_10
REMARK    7  A    between atoms: C_16  and  O_17
REMARK                            x       y       z     vdW  Elec       q    Type
REMARK                         _______ _______ _______ _____ _____    ______ ____
ROOT
ATOM      1  C   UNL     1       6.050   5.120  17.662  0.00  0.00    +0.000 C 
ENDROOT
BRANCH   1   2
ATOM      2  C   UNL     1       4.700   4.739  18.286  0.00  0.00    +0.000 A 
ATOM      3  C   UNL     1       4.512   3.674  19.093  0.00  0.00    +0.000 A 
ATOM      4  C   UNL     1       3.253   3.502  19.812  0.00  0.00    +0.000 A 
ATOM      5  C   UNL     1       3.134   2.769  20.996  0.00  0.00    +0.000 A 
ATOM      6  C   UNL     1       1.885   2.610  21.599  0.00  0.00    +0.000 A 
ATOM      7  C   UNL     1       0.744   3.147  20.998  0.00  0.00    +0.000 A 
ATOM      8  C   UNL     1       0.860   3.906  19.832  0.00  0.00    +0.000 A 
ATOM      9  C   UNL     1       2.127   4.114  19.286  0.00  0.00    +0.000 A 
ATOM     10  O   UNL     1       2.259   5.020  18.229  0.00  0.00    +0.000 OA
ATOM     11  C   UNL     1       3.507   5.628  18.088  0.00  0.00    +0.000 A 
ATOM     12  O   UNL     1       3.605   6.778  17.698  0.00  0.00    +0.000 OA
BRANCH   3  13
ATOM     13  O   UNL     1       5.430   2.675  19.331  0.00  0.00    +0.000 OA
ATOM     14  H   UNL     1       5.199   1.876  18.838  0.00  0.00    +0.000 HD
ENDBRANCH   3  13
ENDBRANCH   1   2
BRANCH   1  15
ATOM     15  C   UNL     1       6.165   4.672  16.205  0.00  0.00    +0.000 A 
ATOM     16  C   UNL     1       7.289   5.011  15.418  0.00  0.00    +0.000 A 
ATOM     17  C   UNL     1       7.364   4.665  14.083  0.00  0.00    +0.000 A 
ATOM     18  C   UNL     1       6.313   3.962  13.493  0.00  0.00    +0.000 A 
ATOM     19  C   UNL     1       5.193   3.592  14.257  0.00  0.00    +0.000 A 
ATOM     20  C   UNL     1       5.128   3.942  15.601  0.00  0.00    +0.000 A 
BRANCH  18  21
ATOM     21  N   UNL     1       6.363   3.624  12.070  0.00  0.00    +0.000 N 
ATOM     22  O   UNL     1       7.173   4.233  11.361  0.00  0.00    +0.000 OA
ATOM     23  O   UNL     1       5.579   2.754  11.654  0.00  0.00    +0.000 OA
ENDBRANCH  18  21
ENDBRANCH   1  15
BRANCH   1  24
ATOM     24  C   UNL     1       7.322   4.707  18.440  0.00  0.00    +0.000 C 
BRANCH  24  26
ATOM     25  C   UNL     1       8.217   7.114  18.773  0.00  0.00    +0.000 C 
ATOM     26  C   UNL     1       7.817   5.794  19.403  0.00  0.00    +0.000 C 
ATOM     27  O   UNL     1       7.977   5.591  20.597  0.00  0.00    +0.000 OA
ENDBRANCH  24  26
ENDBRANCH   1  24
TORSDOF 6
ENDMDL
MODEL 4
REMARK VINA RESULT:      -8.0      0.954      1.096
REMARK  Name = 
REMARK  7 active torsions:
REMARK  status: ('A' for Active; 'I' for Inactive)
REMARK    1  A    between atoms: C_1  and  C_2
REMARK    2  A    between atoms: C_2  and  C_4
REMARK    3  A    between atoms: C_4  and  C_5
REMARK    4  A    between atoms: C_5  and  C_6
REMARK    5  A    between atoms: C_5  and  C_15
REMARK    6  A    between atoms: C_9  and  N_10
REMARK    7  A    between atoms: C_16  and  O_17
REMARK                            x       y       z     vdW  Elec       q    Type
REMARK                         _______ _______ _______ _____ _____    ______ ____
ROOT
ATOM      1  C   UNL     1       5.636   6.001  17.185  0.00  0.00    +0.000 C 
ENDROOT
BRANCH   1   2
ATOM      2  C   UNL     1       4.463   5.409  17.979  0.00  0.00    +0.000 A 
ATOM      3  C   UNL     1       4.520   4.248  18.664  0.00  0.00    +0.000 A 
ATOM      4  C   UNL     1       3.435   3.862  19.561  0.00  0.00    +0.000 A 
ATOM      5  C   UNL     1       3.600   2.994  20.644  0.00  0.00    +0.000 A 
ATOM      6  C   UNL     1       2.502   2.635  21.428  0.00  0.00    +0.000 A 
ATOM      7  C   UNL     1       1.228   3.108  21.105  0.00  0.00    +0.000 A 
ATOM      8  C   UNL     1       1.061   3.998  20.043  0.00  0.00    +0.000 A 
ATOM      9  C   UNL     1       2.182   4.401  19.319  0.00  0.00    +0.000 A 
ATOM     10  O   UNL     1       2.037   5.427  18.379  0.00  0.00    +0.000 OA
ATOM     11  C   UNL     1       3.180   6.178  18.104  0.00  0.00    +0.000 A 
ATOM     12  O   UNL     1       3.104   7.369  17.853  0.00  0.00    +0.000 OA
BRANCH   3  13
ATOM     13  O   UNL     1       5.550   3.334  18.611  0.00  0.00    +0.000 OA
ATOM     14  H   UNL     1       5.619   2.950  17.727  0.00  0.00    +0.000 HD
ENDBRANCH   3  13
ENDBRANCH   1   2
BRANCH   1  15
ATOM     15  C   UNL     1       5.829   5.317  15.832  0.00  0.00    +0.000 A 
ATOM     16  C   UNL     1       4.776   4.610  15.209  0.00  0.00    +0.000 A 
ATOM     17  C   UNL     1       4.965   3.935  14.020  0.00  0.00    +0.000 A 
ATOM     18  C   UNL     1       6.221   3.950  13.412  0.00  0.00    +0.000 A 
ATOM     19  C   UNL     1       7.282   4.665  13.997  0.00  0.00    +0.000 A 
ATOM     20  C   UNL     1       7.079   5.343  15.193  0.00  0.00    +0.000 A 
BRANCH  18  21
ATOM     21  N   UNL     1       6.446   3.206  12.172  0.00  0.00    +0.000 N 
ATOM     22  O   UNL     1       5.593   2.377  11.835  0.00  0.00    +0.000 OA
ATOM     23  O   UNL     1       7.487   3.443  11.535  0.00  0.00    +0.000 OA
ENDBRANCH  18  21
ENDBRANCH   1  15
BRANCH   1  24
ATOM     24  C   UNL     1       6.994   6.106  17.919  0.00  0.00    +0.000 C 
BRANCH  24  26
ATOM     25  C   UNL     1       8.610   7.860  18.928  0.00  0.00    +0.000 C 
ATOM     26  C   UNL     1       7.614   7.507  17.840  0.00  0.00    +0.000 C 
ATOM     27  O   UNL     1       7.264   8.335  17.013  0.00  0.00    +0.000 OA
ENDBRANCH  24  26
ENDBRANCH   1  24
TORSDOF 6
ENDMDL
MODEL 5
REMARK VINA RESULT:      -7.7      3.468      7.323
REMARK  Name = 
REMARK  7 active torsions:
REMARK  status: ('A' for Active; 'I' for Inactive)
REMARK    1  A    between atoms: C_1  and  C_2
REMARK    2  A    between atoms: C_2  and  C_4
REMARK    3  A    between atoms: C_4  and  C_5
REMARK    4  A    between atoms: C_5  and  C_6
REMARK    5  A    between atoms: C_5  and  C_15
REMARK    6  A    between atoms: C_9  and  N_10
REMARK    7  A    between atoms: C_16  and  O_17
REMARK                            x       y       z     vdW  Elec       q    Type
REMARK                         _______ _______ _______ _____ _____    ______ ____
ROOT
ATOM      1  C   UNL     1       2.631   4.769  19.407  0.00  0.00    +0.000 C 
ENDROOT
BRANCH   1   2
ATOM      2  C   UNL     1       3.815   4.632  18.439  0.00  0.00    +0.000 A 
ATOM      3  C   UNL     1       3.709   4.189  17.169  0.00  0.00    +0.000 A 
ATOM      4  C   UNL     1       4.840   4.289  16.252  0.00  0.00    +0.000 A 
ATOM      5  C   UNL     1       4.705   4.337  14.862  0.00  0.00    +0.000 A 
ATOM      6  C   UNL     1       5.839   4.384  14.049  0.00  0.00    +0.000 A 
ATOM      7  C   UNL     1       7.113   4.338  14.622  0.00  0.00    +0.000 A 
ATOM      8  C   UNL     1       7.255   4.320  16.010  0.00  0.00    +0.000 A 
ATOM      9  C   UNL     1       6.109   4.348  16.805  0.00  0.00    +0.000 A 
ATOM     10  O   UNL     1       6.258   4.514  18.186  0.00  0.00    +0.000 OA
ATOM     11  C   UNL     1       5.181   5.093  18.858  0.00  0.00    +0.000 A 
ATOM     12  O   UNL     1       5.359   5.828  19.813  0.00  0.00    +0.000 OA
BRANCH   3  13
ATOM     13  O   UNL     1       2.585   3.625  16.607  0.00  0.00    +0.000 OA
ATOM     14  H   UNL     1       1.971   3.332  17.294  0.00  0.00    +0.000 HD
ENDBRANCH   3  13
ENDBRANCH   1   2
BRANCH   1  15
ATOM     15  C   UNL     1       2.229   6.225  19.634  0.00  0.00    +0.000 A 
ATOM     16  C   UNL     1       1.689   6.656  20.867  0.00  0.00    +0.000 A 
ATOM     17  C   UNL     1       1.264   7.956  21.052  0.00  0.00    +0.000 A 
ATOM     18  C   UNL     1       1.370   8.872  20.005  0.00  0.00    +0.000 A 
ATOM     19  C   UNL     1       1.925   8.478  18.775  0.00  0.00    +0.000 A 
ATOM     20  C   UNL     1       2.353   7.167  18.599  0.00  0.00    +0.000 A 
BRANCH  18  21
ATOM     21  N   UNL     1       0.886  10.243  20.175  0.00  0.00    +0.000 N 
ATOM     22  O   UNL     1       0.327  10.780  19.212  0.00  0.00    +0.000 OA
ATOM     23  O   UNL     1       1.074  10.791  21.274  0.00  0.00    +0.000 OA
ENDBRANCH  18  21
ENDBRANCH   1  15
BRANCH   1  24
ATOM     24  C   UNL     1       2.752   4.039  20.765  0.00  0.00    +0.000 C 
BRANCH  24  26
ATOM     25  C   UNL     1       0.789   2.662  19.786  0.00  0.00    +0.000 C 
ATOM     26  C   UNL     1       1.646   3.000  20.991  0.00  0.00    +0.000 C 
ATOM     27  O   UNL     1       1.395   2.536  22.092  0.00  0.00    +0.000 OA
ENDBRANCH  24  26
ENDBRANCH   1  24
TORSDOF 6
ENDMDL
MODEL 6
REMARK VINA RESULT:      -7.6      1.019      1.290
REMARK  Name = 
REMARK  7 active torsions:
REMARK  status: ('A' for Active; 'I' for Inactive)
REMARK    1  A    between atoms: C_1  and  C_2
REMARK    2  A    between atoms: C_2  and  C_4
REMARK    3  A    between atoms: C_4  and  C_5
REMARK    4  A    between atoms: C_5  and  C_6
REMARK    5  A    between atoms: C_5  and  C_15
REMARK    6  A    between atoms: C_9  and  N_10
REMARK    7  A    between atoms: C_16  and  O_17
REMARK                            x       y       z     vdW  Elec       q    Type
REMARK                         _______ _______ _______ _____ _____    ______ ____
ROOT
ATOM      1  C   UNL     1       5.710   6.192  16.444  0.00  0.00    +0.000 C 
ENDROOT
BRANCH   1   2
ATOM      2  C   UNL     1       4.618   5.668  17.389  0.00  0.00    +0.000 A 
ATOM      3  C   UNL     1       4.589   4.417  17.893  0.00  0.00    +0.000 A 
ATOM      4  C   UNL     1       3.641   4.064  18.945  0.00  0.00    +0.000 A 
ATOM      5  C   UNL     1       3.845   3.018  19.849  0.00  0.00    +0.000 A 
ATOM      6  C   UNL     1       2.867   2.711  20.798  0.00  0.00    +0.000 A 
ATOM      7  C   UNL     1       1.664   3.420  20.816  0.00  0.00    +0.000 A 
ATOM      8  C   UNL     1       1.466   4.484  19.936  0.00  0.00    +0.000 A 
ATOM      9  C   UNL     1       2.485   4.822  19.046  0.00  0.00    +0.000 A 
ATOM     10  O   UNL     1       2.357   5.995  18.296  0.00  0.00    +0.000 OA
ATOM     11  C   UNL     1       3.546   6.596  17.881  0.00  0.00    +0.000 A 
ATOM     12  O   UNL     1       3.644   7.808  17.804  0.00  0.00    +0.000 OA
BRANCH   3  13
ATOM     13  O   UNL     1       5.405   3.376  17.507  0.00  0.00    +0.000 OA
ATOM     14  H   UNL     1       6.323   3.553  17.755  0.00  0.00    +0.000 HD
ENDBRANCH   3  13
ENDBRANCH   1   2
BRANCH   1  15
ATOM     15  C   UNL     1       5.871   5.320  15.199  0.00  0.00    +0.000 A 
ATOM     16  C   UNL     1       4.785   4.590  14.667  0.00  0.00    +0.000 A 
ATOM     17  C   UNL     1       4.943   3.750  13.583  0.00  0.00    +0.000 A 
ATOM     18  C   UNL     1       6.200   3.617  12.993  0.00  0.00    +0.000 A 
ATOM     19  C   UNL     1       7.295   4.350  13.485  0.00  0.00    +0.000 A 
ATOM     20  C   UNL     1       7.124   5.195  14.576  0.00  0.00    +0.000 A 
BRANCH  18  21
ATOM     21  N   UNL     1       6.391   2.700  11.868  0.00  0.00    +0.000 N 
ATOM     22  O   UNL     1       7.527   2.604  11.389  0.00  0.00    +0.000 OA
ATOM     23  O   UNL     1       5.398   2.080  11.451  0.00  0.00    +0.000 OA
ENDBRANCH  18  21
ENDBRANCH   1  15
BRANCH   1  24
ATOM     24  C   UNL     1       7.096   6.478  17.069  0.00  0.00    +0.000 C 
BRANCH  24  26
ATOM     25  C   UNL     1       7.500   5.768  19.526  0.00  0.00    +0.000 C 
ATOM     26  C   UNL     1       7.546   5.395  18.057  0.00  0.00    +0.000 C 
ATOM     27  O   UNL     1       8.008   4.324  17.693  0.00  0.00    +0.000 OA
ENDBRANCH  24  26
ENDBRANCH   1  24
TORSDOF 6
ENDMDL
MODEL 7
REMARK VINA RESULT:      -7.5      2.670      4.873
REMARK  Name = 
REMARK  7 active torsions:
REMARK  status: ('A' for Active; 'I' for Inactive)
REMARK    1  A    between atoms: C_1  and  C_2
REMARK    2  A    between atoms: C_2  and  C_4
REMARK    3  A    between atoms: C_4  and  C_5
REMARK    4  A    between atoms: C_5  and  C_6
REMARK    5  A    between atoms: C_5  and  C_15
REMARK    6  A    between atoms: C_9  and  N_10
REMARK    7  A    between atoms: C_16  and  O_17
REMARK                            x       y       z     vdW  Elec       q    Type
REMARK                         _______ _______ _______ _____ _____    ______ ____
ROOT
ATOM      1  C   UNL     1       5.801   5.299  16.902  0.00  0.00    +0.000 C 
ENDROOT
BRANCH   1   2
ATOM      2  C   UNL     1       4.602   4.954  17.797  0.00  0.00    +0.000 A 
ATOM      3  C   UNL     1       4.529   3.855  18.576  0.00  0.00    +0.000 A 
ATOM      4  C   UNL     1       3.454   3.708  19.552  0.00  0.00    +0.000 A 
ATOM      5  C   UNL     1       3.554   2.914  20.698  0.00  0.00    +0.000 A 
ATOM      6  C   UNL     1       2.463   2.786  21.560  0.00  0.00    +0.000 A 
ATOM      7  C   UNL     1       1.254   3.417  21.256  0.00  0.00    +0.000 A 
ATOM      8  C   UNL     1       1.157   4.236  20.130  0.00  0.00    +0.000 A 
ATOM      9  C   UNL     1       2.281   4.409  19.323  0.00  0.00    +0.000 A 
ATOM     10  O   UNL     1       2.232   5.367  18.305  0.00  0.00    +0.000 OA
ATOM     11  C   UNL     1       3.455   5.915  17.914  0.00  0.00    +0.000 A 
ATOM     12  O   UNL     1       3.538   7.079  17.565  0.00  0.00    +0.000 OA
BRANCH   3  13
ATOM     13  O   UNL     1       5.410   2.796  18.555  0.00  0.00    +0.000 OA
ATOM     14  H   UNL     1       6.253   3.046  18.958  0.00  0.00    +0.000 HD
ENDBRANCH   3  13
ENDBRANCH   1   2
BRANCH   1  15
ATOM     15  C   UNL     1       6.607   6.481  17.438  0.00  0.00    +0.000 A 
ATOM     16  C   UNL     1       6.422   7.787  16.932  0.00  0.00    +0.000 A 
ATOM     17  C   UNL     1       7.195   8.845  17.368  0.00  0.00    +0.000 A 
ATOM     18  C   UNL     1       8.181   8.627  18.331  0.00  0.00    +0.000 A 
ATOM     19  C   UNL     1       8.372   7.342  18.869  0.00  0.00    +0.000 A 
ATOM     20  C   UNL     1       7.586   6.285  18.426  0.00  0.00    +0.000 A 
BRANCH  18  21
ATOM     21  N   UNL     1       9.034   9.731  18.772  0.00  0.00    +0.000 N 
ATOM     22  O   UNL     1       9.257   9.839  19.984  0.00  0.00    +0.000 OA
ATOM     23  O   UNL     1       9.477  10.503  17.905  0.00  0.00    +0.000 OA
ENDBRANCH  18  21
ENDBRANCH   1  15
BRANCH   1  24
ATOM     24  C   UNL     1       5.513   5.499  15.395  0.00  0.00    +0.000 C 
BRANCH  24  26
ATOM     25  C   UNL     1       6.201   3.769  13.595  0.00  0.00    +0.000 C 
ATOM     26  C   UNL     1       6.610   4.922  14.491  0.00  0.00    +0.000 C 
ATOM     27  O   UNL     1       7.771   5.295  14.548  0.00  0.00    +0.000 OA
ENDBRANCH  24  26
ENDBRANCH   1  24
TORSDOF 6
ENDMDL
MODEL 8
REMARK VINA RESULT:      -7.4      3.752      7.382
REMARK  Name = 
REMARK  7 active torsions:
REMARK  status: ('A' for Active; 'I' for Inactive)
REMARK    1  A    between atoms: C_1  and  C_2
REMARK    2  A    between atoms: C_2  and  C_4
REMARK    3  A    between atoms: C_4  and  C_5
REMARK    4  A    between atoms: C_5  and  C_6
REMARK    5  A    between atoms: C_5  and  C_15
REMARK    6  A    between atoms: C_9  and  N_10
REMARK    7  A    between atoms: C_16  and  O_17
REMARK                            x       y       z     vdW  Elec       q    Type
REMARK                         _______ _______ _______ _____ _____    ______ ____
ROOT
ATOM      1  C   UNL     1       2.129   5.287  19.873  0.00  0.00    +0.000 C 
ENDROOT
BRANCH   1   2
ATOM      2  C   UNL     1       3.148   5.032  18.753  0.00  0.00    +0.000 A 
ATOM      3  C   UNL     1       4.451   5.374  18.821  0.00  0.00    +0.000 A 
ATOM      4  C   UNL     1       5.393   4.909  17.808  0.00  0.00    +0.000 A 
ATOM      5  C   UNL     1       6.766   4.775  18.035  0.00  0.00    +0.000 A 
ATOM      6  C   UNL     1       7.611   4.370  17.000  0.00  0.00    +0.000 A 
ATOM      7  C   UNL     1       7.092   4.139  15.723  0.00  0.00    +0.000 A 
ATOM      8  C   UNL     1       5.718   4.241  15.498  0.00  0.00    +0.000 A 
ATOM      9  C   UNL     1       4.884   4.576  16.564  0.00  0.00    +0.000 A 
ATOM     10  O   UNL     1       3.499   4.500  16.378  0.00  0.00    +0.000 OA
ATOM     11  C   UNL     1       2.735   4.276  17.524  0.00  0.00    +0.000 A 
ATOM     12  O   UNL     1       1.717   3.606  17.478  0.00  0.00    +0.000 OA
BRANCH   3  13
ATOM     13  O   UNL     1       5.026   6.156  19.799  0.00  0.00    +0.000 OA
ATOM     14  H   UNL     1       5.053   5.682  20.641  0.00  0.00    +0.000 HD
ENDBRANCH   3  13
ENDBRANCH   1   2
BRANCH   1  15
ATOM     15  C   UNL     1       1.787   6.769  20.022  0.00  0.00    +0.000 A 
ATOM     16  C   UNL     1       1.258   7.285  21.226  0.00  0.00    +0.000 A 
ATOM     17  C   UNL     1       0.886   8.609  21.342  0.00  0.00    +0.000 A 
ATOM     18  C   UNL     1       1.037   9.465  20.249  0.00  0.00    +0.000 A 
ATOM     19  C   UNL     1       1.582   8.986  19.046  0.00  0.00    +0.000 A 
ATOM     20  C   UNL     1       1.956   7.651  18.941  0.00  0.00    +0.000 A 
BRANCH  18  21
ATOM     21  N   UNL     1       0.609  10.861  20.346  0.00  0.00    +0.000 N 
ATOM     22  O   UNL     1       0.106  11.380  19.342  0.00  0.00    +0.000 OA
ATOM     23  O   UNL     1       0.788  11.449  21.426  0.00  0.00    +0.000 OA
ENDBRANCH  18  21
ENDBRANCH   1  15
BRANCH   1  24
ATOM     24  C   UNL     1       2.446   4.679  21.259  0.00  0.00    +0.000 C 
BRANCH  24  26
ATOM     25  C   UNL     1       0.888   2.717  20.606  0.00  0.00    +0.000 C 
ATOM     26  C   UNL     1       2.128   3.181  21.346  0.00  0.00    +0.000 C 
ATOM     27  O   UNL     1       2.769   2.412  22.045  0.00  0.00    +0.000 OA
ENDBRANCH  24  26
ENDBRANCH   1  24
TORSDOF 6
ENDMDL
MODEL 9
REMARK VINA RESULT:      -7.3      3.758      7.429
REMARK  Name = 
REMARK  7 active torsions:
REMARK  status: ('A' for Active; 'I' for Inactive)
REMARK    1  A    between atoms: C_1  and  C_2
REMARK    2  A    between atoms: C_2  and  C_4
REMARK    3  A    between atoms: C_4  and  C_5
REMARK    4  A    between atoms: C_5  and  C_6
REMARK    5  A    between atoms: C_5  and  C_15
REMARK    6  A    between atoms: C_9  and  N_10
REMARK    7  A    between atoms: C_16  and  O_17
REMARK                            x       y       z     vdW  Elec       q    Type
REMARK                         _______ _______ _______ _____ _____    ______ ____
ROOT
ATOM      1  C   UNL     1       2.051   5.293  19.734  0.00  0.00    +0.000 C 
ENDROOT
BRANCH   1   2
ATOM      2  C   UNL     1       3.144   5.056  18.682  0.00  0.00    +0.000 A 
ATOM      3  C   UNL     1       4.437   5.405  18.840  0.00  0.00    +0.000 A 
ATOM      4  C   UNL     1       5.448   4.957  17.887  0.00  0.00    +0.000 A 
ATOM      5  C   UNL     1       6.804   4.830  18.203  0.00  0.00    +0.000 A 
ATOM      6  C   UNL     1       7.718   4.441  17.221  0.00  0.00    +0.000 A 
ATOM      7  C   UNL     1       7.286   4.221  15.911  0.00  0.00    +0.000 A 
ATOM      8  C   UNL     1       5.930   4.318  15.596  0.00  0.00    +0.000 A 
ATOM      9  C   UNL     1       5.024   4.635  16.608  0.00  0.00    +0.000 A 
ATOM     10  O   UNL     1       3.656   4.553  16.330  0.00  0.00    +0.000 OA
ATOM     11  C   UNL     1       2.818   4.311  17.420  0.00  0.00    +0.000 A 
ATOM     12  O   UNL     1       1.811   3.635  17.299  0.00  0.00    +0.000 OA
BRANCH   3  13
ATOM     13  O   UNL     1       4.940   6.180  19.862  0.00  0.00    +0.000 OA
ATOM     14  H   UNL     1       5.598   5.687  20.371  0.00  0.00    +0.000 HD
ENDBRANCH   3  13
ENDBRANCH   1   2
BRANCH   1  15
ATOM     15  C   UNL     1       1.697   6.772  19.883  0.00  0.00    +0.000 A 
ATOM     16  C   UNL     1       1.832   7.673  18.804  0.00  0.00    +0.000 A 
ATOM     17  C   UNL     1       1.577   9.021  18.954  0.00  0.00    +0.000 A 
ATOM     18  C   UNL     1       1.172   9.511  20.196  0.00  0.00    +0.000 A 
ATOM     19  C   UNL     1       1.005   8.635  21.282  0.00  0.00    +0.000 A 
ATOM     20  C   UNL     1       1.262   7.278  21.120  0.00  0.00    +0.000 A 
BRANCH  18  21
ATOM     21  N   UNL     1       0.936  10.944  20.379  0.00  0.00    +0.000 N 
ATOM     22  O   UNL     1       0.814  11.643  19.366  0.00  0.00    +0.000 OA
ATOM     23  O   UNL     1       0.883  11.378  21.542  0.00  0.00    +0.000 OA
ENDBRANCH  18  21
ENDBRANCH   1  15
BRANCH   1  24
ATOM     24  C   UNL     1       2.276   4.662  21.129  0.00  0.00    +0.000 C 
BRANCH  24  26
ATOM     25  C   UNL     1       0.663   2.865  20.194  0.00  0.00    +0.000 C 
ATOM     26  C   UNL     1       1.664   3.262  21.262  0.00  0.00    +0.000 C 
ATOM     27  O   UNL     1       1.886   2.536  22.219  0.00  0.00    +0.000 OA
ENDBRANCH  24  26
ENDBRANCH   1  24
TORSDOF 6
ENDMDL
