MODEL 1
REMARK VINA RESULT:      -6.2      0.000      0.000
REMARK  Name = 
REMARK  7 active torsions:
REMARK  status: ('A' for Active; 'I' for Inactive)
REMARK    1  A    between atoms: C_1  and  C_2
REMARK    2  A    between atoms: C_3  and  C_4
REMARK    3  A    between atoms: C_4  and  S_5
REMARK    4  A    between atoms: S_5  and  C_6
REMARK    5  A    between atoms: C_11  and  O_12
REMARK    6  A    between atoms: O_12  and  C_13
REMARK    7  A    between atoms: C_13  and  C_14
REMARK                            x       y       z     vdW  Elec       q    Type
REMARK                         _______ _______ _______ _____ _____    ______ ____
ROOT
ATOM      1  C   UNL     1       4.772   4.466  17.239  0.00  0.00    +0.000 A 
ATOM      2  C   UNL     1       3.727   3.597  16.837  0.00  0.00    +0.000 A 
ATOM      3  C   UNL     1       3.042   2.770  17.746  0.00  0.00    +0.000 A 
ATOM      4  C   UNL     1       3.383   2.780  19.093  0.00  0.00    +0.000 A 
ATOM      5  C   UNL     1       4.400   3.625  19.517  0.00  0.00    +0.000 A 
ATOM      6  C   UNL     1       5.070   4.473  18.605  0.00  0.00    +0.000 A 
ENDROOT
BRANCH   1   7
ATOM      7  S   UNL     1       5.387   5.589  15.982  0.00  0.00    +0.000 S 
BRANCH   7   8
ATOM      8  C   UNL     1       6.730   4.638  15.138  0.00  0.00    +0.000 C 
BRANCH   8  11
ATOM      9  C   UNL     1       5.252   2.725  11.529  0.00  0.00    +0.000 C 
ATOM     10  C   UNL     1       5.769   3.394  12.792  0.00  0.00    +0.000 C 
ATOM     11  C   UNL     1       6.213   3.968  13.876  0.00  0.00    +0.000 C 
ENDBRANCH   8  11
ENDBRANCH   7   8
ENDBRANCH   1   7
BRANCH   6  12
ATOM     12  O   UNL     1       5.959   5.353  19.314  0.00  0.00    +0.000 OA
BRANCH  12  13
ATOM     13  C   UNL     1       7.316   5.623  19.502  0.00  0.00    +0.000 C 
ATOM     14  C   UNL     1       7.755   6.560  18.413  0.00  0.00    +0.000 C 
ATOM     15  O   UNL     1       8.036   5.228  20.404  0.00  0.00    +0.000 OA
ENDBRANCH  12  13
ENDBRANCH   6  12
TORSDOF 5
ENDMDL
MODEL 2
REMARK VINA RESULT:      -6.1      2.288      3.390
REMARK  Name = 
REMARK  7 active torsions:
REMARK  status: ('A' for Active; 'I' for Inactive)
REMARK    1  A    between atoms: C_1  and  C_2
REMARK    2  A    between atoms: C_3  and  C_4
REMARK    3  A    between atoms: C_4  and  S_5
REMARK    4  A    between atoms: S_5  and  C_6
REMARK    5  A    between atoms: C_11  and  O_12
REMARK    6  A    between atoms: O_12  and  C_13
REMARK    7  A    between atoms: C_13  and  C_14
REMARK                            x       y       z     vdW  Elec       q    Type
REMARK                         _______ _______ _______ _____ _____    ______ ____
ROOT
ATOM      1  C   UNL     1       4.479   3.829  17.201  0.00  0.00    +0.000 A 
ATOM      2  C   UNL     1       3.111   3.466  17.126  0.00  0.00    +0.000 A 
ATOM      3  C   UNL     1       2.359   3.120  18.264  0.00  0.00    +0.000 A 
ATOM      4  C   UNL     1       2.953   3.121  19.520  0.00  0.00    +0.000 A 
ATOM      5  C   UNL     1       4.291   3.477  19.626  0.00  0.00    +0.000 A 
ATOM      6  C   UNL     1       5.037   3.848  18.483  0.00  0.00    +0.000 A 
ENDROOT
BRANCH   1   7
ATOM      7  S   UNL     1       5.216   4.433  15.682  0.00  0.00    +0.000 S 
BRANCH   7   8
ATOM      8  C   UNL     1       5.369   6.257  15.942  0.00  0.00    +0.000 C 
BRANCH   8  11
ATOM      9  C   UNL     1       2.373   7.689  18.742  0.00  0.00    +0.000 C 
ATOM     10  C   UNL     1       3.421   7.188  17.762  0.00  0.00    +0.000 C 
ATOM     11  C   UNL     1       4.321   6.759  16.921  0.00  0.00    +0.000 C 
ENDBRANCH   8  11
ENDBRANCH   7   8
ENDBRANCH   1   7
BRANCH   6  12
ATOM     12  O   UNL     1       6.337   4.321  18.877  0.00  0.00    +0.000 OA
BRANCH  12  13
ATOM     13  C   UNL     1       7.552   4.758  18.346  0.00  0.00    +0.000 C 
ATOM     14  C   UNL     1       7.804   6.149  18.854  0.00  0.00    +0.000 C 
ATOM     15  O   UNL     1       8.322   4.133  17.635  0.00  0.00    +0.000 OA
ENDBRANCH  12  13
ENDBRANCH   6  12
TORSDOF 5
ENDMDL
MODEL 3
REMARK VINA RESULT:      -6.1      2.180      4.434
REMARK  Name = 
REMARK  7 active torsions:
REMARK  status: ('A' for Active; 'I' for Inactive)
REMARK    1  A    between atoms: C_1  and  C_2
REMARK    2  A    between atoms: C_3  and  C_4
REMARK    3  A    between atoms: C_4  and  S_5
REMARK    4  A    between atoms: S_5  and  C_6
REMARK    5  A    between atoms: C_11  and  O_12
REMARK    6  A    between atoms: O_12  and  C_13
REMARK    7  A    between atoms: C_13  and  C_14
REMARK                            x       y       z     vdW  Elec       q    Type
REMARK                         _______ _______ _______ _____ _____    ______ ____
ROOT
ATOM      1  C   UNL     1       5.293   4.203  17.132  0.00  0.00    +0.000 A 
ATOM      2  C   UNL     1       4.713   3.990  15.856  0.00  0.00    +0.000 A 
ATOM      3  C   UNL     1       5.430   4.175  14.661  0.00  0.00    +0.000 A 
ATOM      4  C   UNL     1       6.757   4.587  14.700  0.00  0.00    +0.000 A 
ATOM      5  C   UNL     1       7.354   4.800  15.935  0.00  0.00    +0.000 A 
ATOM      6  C   UNL     1       6.637   4.588  17.136  0.00  0.00    +0.000 A 
ENDROOT
BRANCH   1   7
ATOM      7  S   UNL     1       4.293   3.720  18.541  0.00  0.00    +0.000 S 
BRANCH   7   8
ATOM      8  C   UNL     1       2.584   4.270  18.098  0.00  0.00    +0.000 C 
BRANCH   8  11
ATOM      9  C   UNL     1       2.322   8.605  17.986  0.00  0.00    +0.000 C 
ATOM     10  C   UNL     1       2.413   7.088  18.026  0.00  0.00    +0.000 C 
ATOM     11  C   UNL     1       2.492   5.787  18.059  0.00  0.00    +0.000 C 
ENDBRANCH   8  11
ENDBRANCH   7   8
ENDBRANCH   1   7
BRANCH   6  12
ATOM     12  O   UNL     1       7.519   4.720  18.264  0.00  0.00    +0.000 OA
BRANCH  12  13
ATOM     13  C   UNL     1       7.856   5.599  19.295  0.00  0.00    +0.000 C 
ATOM     14  C   UNL     1       8.098   6.951  18.688  0.00  0.00    +0.000 C 
ATOM     15  O   UNL     1       7.907   5.361  20.491  0.00  0.00    +0.000 OA
ENDBRANCH  12  13
ENDBRANCH   6  12
TORSDOF 5
ENDMDL
MODEL 4
REMARK VINA RESULT:      -6.0      2.035      3.140
REMARK  Name = 
REMARK  7 active torsions:
REMARK  status: ('A' for Active; 'I' for Inactive)
REMARK    1  A    between atoms: C_1  and  C_2
REMARK    2  A    between atoms: C_3  and  C_4
REMARK    3  A    between atoms: C_4  and  S_5
REMARK    4  A    between atoms: S_5  and  C_6
REMARK    5  A    between atoms: C_11  and  O_12
REMARK    6  A    between atoms: O_12  and  C_13
REMARK    7  A    between atoms: C_13  and  C_14
REMARK                            x       y       z     vdW  Elec       q    Type
REMARK                         _______ _______ _______ _____ _____    ______ ____
ROOT
ATOM      1  C   UNL     1       4.979   5.322  17.693  0.00  0.00    +0.000 A 
ATOM      2  C   UNL     1       4.664   6.555  17.070  0.00  0.00    +0.000 A 
ATOM      3  C   UNL     1       3.598   7.367  17.500  0.00  0.00    +0.000 A 
ATOM      4  C   UNL     1       2.806   6.969  18.569  0.00  0.00    +0.000 A 
ATOM      5  C   UNL     1       3.093   5.768  19.203  0.00  0.00    +0.000 A 
ATOM      6  C   UNL     1       4.180   4.966  18.784  0.00  0.00    +0.000 A 
ENDROOT
BRANCH   1   7
ATOM      7  S   UNL     1       6.490   4.527  17.143  0.00  0.00    +0.000 S 
BRANCH   7   8
ATOM      8  C   UNL     1       6.914   5.394  15.565  0.00  0.00    +0.000 C 
BRANCH   8  11
ATOM      9  C   UNL     1       5.760   3.015  12.120  0.00  0.00    +0.000 C 
ATOM     10  C   UNL     1       6.164   3.847  13.325  0.00  0.00    +0.000 C 
ATOM     11  C   UNL     1       6.510   4.562  14.360  0.00  0.00    +0.000 C 
ENDBRANCH   8  11
ENDBRANCH   7   8
ENDBRANCH   1   7
BRANCH   6  12
ATOM     12  O   UNL     1       4.361   3.868  19.695  0.00  0.00    +0.000 OA
BRANCH  12  13
ATOM     13  C   UNL     1       4.386   2.472  19.738  0.00  0.00    +0.000 C 
ATOM     14  C   UNL     1       3.538   1.960  18.610  0.00  0.00    +0.000 C 
ATOM     15  O   UNL     1       5.014   1.762  20.508  0.00  0.00    +0.000 OA
ENDBRANCH  12  13
ENDBRANCH   6  12
TORSDOF 5
ENDMDL
MODEL 5
REMARK VINA RESULT:      -5.9      2.764      5.303
REMARK  Name = 
REMARK  7 active torsions:
REMARK  status: ('A' for Active; 'I' for Inactive)
REMARK    1  A    between atoms: C_1  and  C_2
REMARK    2  A    between atoms: C_3  and  C_4
REMARK    3  A    between atoms: C_4  and  S_5
REMARK    4  A    between atoms: S_5  and  C_6
REMARK    5  A    between atoms: C_11  and  O_12
REMARK    6  A    between atoms: O_12  and  C_13
REMARK    7  A    between atoms: C_13  and  C_14
REMARK                            x       y       z     vdW  Elec       q    Type
REMARK                         _______ _______ _______ _____ _____    ______ ____
ROOT
ATOM      1  C   UNL     1       5.390   4.449  17.734  0.00  0.00    +0.000 A 
ATOM      2  C   UNL     1       5.672   4.746  19.092  0.00  0.00    +0.000 A 
ATOM      3  C   UNL     1       6.760   5.550  19.478  0.00  0.00    +0.000 A 
ATOM      4  C   UNL     1       7.610   6.083  18.516  0.00  0.00    +0.000 A 
ATOM      5  C   UNL     1       7.356   5.813  17.178  0.00  0.00    +0.000 A 
ATOM      6  C   UNL     1       6.248   5.025  16.792  0.00  0.00    +0.000 A 
ENDROOT
BRANCH   1   7
ATOM      7  S   UNL     1       3.851   3.583  17.423  0.00  0.00    +0.000 S 
BRANCH   7   8
ATOM      8  C   UNL     1       2.641   4.372  18.577  0.00  0.00    +0.000 C 
BRANCH   8  11
ATOM      9  C   UNL     1       2.278   8.627  17.785  0.00  0.00    +0.000 C 
ATOM     10  C   UNL     1       2.405   7.139  18.062  0.00  0.00    +0.000 C 
ATOM     11  C   UNL     1       2.514   5.861  18.300  0.00  0.00    +0.000 C 
ENDBRANCH   8  11
ENDBRANCH   7   8
ENDBRANCH   1   7
BRANCH   6  12
ATOM     12  O   UNL     1       6.116   5.029  15.360  0.00  0.00    +0.000 OA
BRANCH  12  13
ATOM     13  C   UNL     1       6.857   4.848  14.190  0.00  0.00    +0.000 C 
ATOM     14  C   UNL     1       6.166   3.803  13.363  0.00  0.00    +0.000 C 
ATOM     15  O   UNL     1       7.862   5.449  13.844  0.00  0.00    +0.000 OA
ENDBRANCH  12  13
ENDBRANCH   6  12
TORSDOF 5
ENDMDL
MODEL 6
REMARK VINA RESULT:      -5.9      2.822      3.435
REMARK  Name = 
REMARK  7 active torsions:
REMARK  status: ('A' for Active; 'I' for Inactive)
REMARK    1  A    between atoms: C_1  and  C_2
REMARK    2  A    between atoms: C_3  and  C_4
REMARK    3  A    between atoms: C_4  and  S_5
REMARK    4  A    between atoms: S_5  and  C_6
REMARK    5  A    between atoms: C_11  and  O_12
REMARK    6  A    between atoms: O_12  and  C_13
REMARK    7  A    between atoms: C_13  and  C_14
REMARK                            x       y       z     vdW  Elec       q    Type
REMARK                         _______ _______ _______ _____ _____    ______ ____
ROOT
ATOM      1  C   UNL     1       3.934   5.153  17.403  0.00  0.00    +0.000 A 
ATOM      2  C   UNL     1       3.697   3.815  16.997  0.00  0.00    +0.000 A 
ATOM      3  C   UNL     1       2.561   3.094  17.406  0.00  0.00    +0.000 A 
ATOM      4  C   UNL     1       1.622   3.685  18.243  0.00  0.00    +0.000 A 
ATOM      5  C   UNL     1       1.826   4.996  18.654  0.00  0.00    +0.000 A 
ATOM      6  C   UNL     1       2.956   5.727  18.220  0.00  0.00    +0.000 A 
ENDROOT
BRANCH   1   7
ATOM      7  S   UNL     1       5.322   5.976  16.620  0.00  0.00    +0.000 S 
BRANCH   7   8
ATOM      8  C   UNL     1       6.494   4.606  16.208  0.00  0.00    +0.000 C 
BRANCH   8  11
ATOM      9  C   UNL     1       5.959   3.273  12.109  0.00  0.00    +0.000 C 
ATOM     10  C   UNL     1       6.146   3.740  13.543  0.00  0.00    +0.000 C 
ATOM     11  C   UNL     1       6.306   4.140  14.774  0.00  0.00    +0.000 C 
ENDBRANCH   8  11
ENDBRANCH   7   8
ENDBRANCH   1   7
BRANCH   6  12
ATOM     12  O   UNL     1       2.851   7.095  18.651  0.00  0.00    +0.000 OA
BRANCH  12  13
ATOM     13  C   UNL     1       2.189   8.289  18.357  0.00  0.00    +0.000 C 
ATOM     14  C   UNL     1       1.473   8.737  19.599  0.00  0.00    +0.000 C 
ATOM     15  O   UNL     1       2.207   8.913  17.308  0.00  0.00    +0.000 OA
ENDBRANCH  12  13
ENDBRANCH   6  12
TORSDOF 5
ENDMDL
MODEL 7
REMARK VINA RESULT:      -5.9      2.996      4.816
REMARK  Name = 
REMARK  7 active torsions:
REMARK  status: ('A' for Active; 'I' for Inactive)
REMARK    1  A    between atoms: C_1  and  C_2
REMARK    2  A    between atoms: C_3  and  C_4
REMARK    3  A    between atoms: C_4  and  S_5
REMARK    4  A    between atoms: S_5  and  C_6
REMARK    5  A    between atoms: C_11  and  O_12
REMARK    6  A    between atoms: O_12  and  C_13
REMARK    7  A    between atoms: C_13  and  C_14
REMARK                            x       y       z     vdW  Elec       q    Type
REMARK                         _______ _______ _______ _____ _____    ______ ____
ROOT
ATOM      1  C   UNL     1       3.127   4.991  17.938  0.00  0.00    +0.000 A 
ATOM      2  C   UNL     1       1.996   4.190  17.636  0.00  0.00    +0.000 A 
ATOM      3  C   UNL     1       2.062   2.787  17.572  0.00  0.00    +0.000 A 
ATOM      4  C   UNL     1       3.266   2.133  17.803  0.00  0.00    +0.000 A 
ATOM      5  C   UNL     1       4.390   2.890  18.106  0.00  0.00    +0.000 A 
ATOM      6  C   UNL     1       4.315   4.299  18.194  0.00  0.00    +0.000 A 
ENDROOT
BRANCH   1   7
ATOM      7  S   UNL     1       2.810   6.740  18.177  0.00  0.00    +0.000 S 
BRANCH   7   8
ATOM      8  C   UNL     1       2.246   6.866  19.934  0.00  0.00    +0.000 C 
BRANCH   8  11
ATOM      9  C   UNL     1       1.724   2.930  21.693  0.00  0.00    +0.000 C 
ATOM     10  C   UNL     1       1.907   4.307  21.077  0.00  0.00    +0.000 C 
ATOM     11  C   UNL     1       2.063   5.489  20.549  0.00  0.00    +0.000 C 
ENDBRANCH   8  11
ENDBRANCH   7   8
ENDBRANCH   1   7
BRANCH   6  12
ATOM     12  O   UNL     1       5.563   4.829  18.674  0.00  0.00    +0.000 OA
BRANCH  12  13
ATOM     13  C   UNL     1       6.854   5.150  18.248  0.00  0.00    +0.000 C 
ATOM     14  C   UNL     1       6.795   6.489  17.569  0.00  0.00    +0.000 C 
ATOM     15  O   UNL     1       7.877   4.509  18.423  0.00  0.00    +0.000 OA
ENDBRANCH  12  13
ENDBRANCH   6  12
TORSDOF 5
ENDMDL
MODEL 8
REMARK VINA RESULT:      -5.9      2.514      3.183
REMARK  Name = 
REMARK  7 active torsions:
REMARK  status: ('A' for Active; 'I' for Inactive)
REMARK    1  A    between atoms: C_1  and  C_2
REMARK    2  A    between atoms: C_3  and  C_4
REMARK    3  A    between atoms: C_4  and  S_5
REMARK    4  A    between atoms: S_5  and  C_6
REMARK    5  A    between atoms: C_11  and  O_12
REMARK    6  A    between atoms: O_12  and  C_13
REMARK    7  A    between atoms: C_13  and  C_14
REMARK                            x       y       z     vdW  Elec       q    Type
REMARK                         _______ _______ _______ _____ _____    ______ ____
ROOT
ATOM      1  C   UNL     1       4.285   4.302  18.040  0.00  0.00    +0.000 A 
ATOM      2  C   UNL     1       3.949   2.991  17.619  0.00  0.00    +0.000 A 
ATOM      3  C   UNL     1       2.621   2.529  17.578  0.00  0.00    +0.000 A 
ATOM      4  C   UNL     1       1.579   3.364  17.964  0.00  0.00    +0.000 A 
ATOM      5  C   UNL     1       1.876   4.655  18.378  0.00  0.00    +0.000 A 
ATOM      6  C   UNL     1       3.210   5.125  18.394  0.00  0.00    +0.000 A 
ENDROOT
BRANCH   1   7
ATOM      7  S   UNL     1       6.001   4.779  17.832  0.00  0.00    +0.000 S 
BRANCH   7   8
ATOM      8  C   UNL     1       5.999   5.845  16.321  0.00  0.00    +0.000 C 
BRANCH   8  11
ATOM      9  C   UNL     1       5.967   3.433  12.709  0.00  0.00    +0.000 C 
ATOM     10  C   UNL     1       5.978   4.278  13.973  0.00  0.00    +0.000 C 
ATOM     11  C   UNL     1       5.987   5.001  15.058  0.00  0.00    +0.000 C 
ENDBRANCH   8  11
ENDBRANCH   7   8
ENDBRANCH   1   7
BRANCH   6  12
ATOM     12  O   UNL     1       3.233   6.529  18.704  0.00  0.00    +0.000 OA
BRANCH  12  13
ATOM     13  C   UNL     1       2.394   7.588  19.057  0.00  0.00    +0.000 C 
ATOM     14  C   UNL     1       2.124   8.394  17.819  0.00  0.00    +0.000 C 
ATOM     15  O   UNL     1       1.907   7.820  20.152  0.00  0.00    +0.000 OA
ENDBRANCH  12  13
ENDBRANCH   6  12
TORSDOF 5
ENDMDL
MODEL 9
REMARK VINA RESULT:      -5.8      3.104      5.732
REMARK  Name = 
REMARK  7 active torsions:
REMARK  status: ('A' for Active; 'I' for Inactive)
REMARK    1  A    between atoms: C_1  and  C_2
REMARK    2  A    between atoms: C_3  and  C_4
REMARK    3  A    between atoms: C_4  and  S_5
REMARK    4  A    between atoms: S_5  and  C_6
REMARK    5  A    between atoms: C_11  and  O_12
REMARK    6  A    between atoms: O_12  and  C_13
REMARK    7  A    between atoms: C_13  and  C_14
REMARK                            x       y       z     vdW  Elec       q    Type
REMARK                         _______ _______ _______ _____ _____    ______ ____
ROOT
ATOM      1  C   UNL     1       4.463   5.988  17.875  0.00  0.00    +0.000 A 
ATOM      2  C   UNL     1       5.272   7.090  17.499  0.00  0.00    +0.000 A 
ATOM      3  C   UNL     1       6.645   6.959  17.224  0.00  0.00    +0.000 A 
ATOM      4  C   UNL     1       7.260   5.717  17.320  0.00  0.00    +0.000 A 
ATOM      5  C   UNL     1       6.494   4.618  17.683  0.00  0.00    +0.000 A 
ATOM      6  C   UNL     1       5.108   4.749  17.935  0.00  0.00    +0.000 A 
ENDROOT
BRANCH   1   7
ATOM      7  S   UNL     1       2.702   6.307  17.987  0.00  0.00    +0.000 S 
BRANCH   7   8
ATOM      8  C   UNL     1       2.387   6.505  19.798  0.00  0.00    +0.000 C 
BRANCH   8  11
ATOM      9  C   UNL     1       1.421   2.692  21.639  0.00  0.00    +0.000 C 
ATOM     10  C   UNL     1       1.759   4.026  20.996  0.00  0.00    +0.000 C 
ATOM     11  C   UNL     1       2.049   5.171  20.442  0.00  0.00    +0.000 C 
ENDBRANCH   8  11
ENDBRANCH   7   8
ENDBRANCH   1   7
BRANCH   6  12
ATOM     12  O   UNL     1       4.520   3.451  18.131  0.00  0.00    +0.000 OA
BRANCH  12  13
ATOM     13  C   UNL     1       4.318   2.475  19.109  0.00  0.00    +0.000 C 
ATOM     14  C   UNL     1       3.295   1.506  18.589  0.00  0.00    +0.000 C 
ATOM     15  O   UNL     1       4.888   2.367  20.182  0.00  0.00    +0.000 OA
ENDBRANCH  12  13
ENDBRANCH   6  12
TORSDOF 5
ENDMDL
