MODEL 1
REMARK VINA RESULT:      -8.3      0.000      0.000
REMARK  Name = 
REMARK  3 active torsions:
REMARK  status: ('A' for Active; 'I' for Inactive)
REMARK    1  A    between atoms: C_2  and  C_3
REMARK    2  A    between atoms: N_22  and  C_23
REMARK    3  A    between atoms: C_26  and  N_27
REMARK                            x       y       z     vdW  Elec       q    Type
REMARK                         _______ _______ _______ _____ _____    ______ ____
ROOT
ATOM      1  O   UNL     1       0.738  12.449  18.211  0.00  0.00    +0.000 OA
ATOM      2  C   UNL     1       0.215  11.595  18.926  0.00  0.00    +0.000 C 
ATOM      3  N   UNL     1       0.547  10.249  18.855  0.00  0.00    +0.000 N 
ATOM      4  C   UNL     1       1.562   9.786  17.876  0.00  0.00    +0.000 C 
ATOM      5  C   UNL     1       2.683   8.974  18.571  0.00  0.00    +0.000 C 
ATOM      6  N   UNL     1       2.081   7.923  19.412  0.00  0.00    +0.000 N 
ATOM      7  C   UNL     1       1.158   8.412  20.423  0.00  0.00    +0.000 C 
ATOM      8  C   UNL     1       0.045   9.194  19.738  0.00  0.00    +0.000 C 
ENDROOT
BRANCH   2   9
ATOM      9  C   UNL     1      -0.758  12.056  19.958  0.00  0.00    +0.000 A 
ATOM     10  C   UNL     1      -0.267  12.311  21.242  0.00  0.00    +0.000 A 
ATOM     11  C   UNL     1      -1.149  12.682  22.258  0.00  0.00    +0.000 A 
ATOM     12  C   UNL     1      -2.520  12.763  21.992  0.00  0.00    +0.000 A 
ATOM     13  C   UNL     1      -3.479  13.152  23.038  0.00  0.00    +0.000 A 
ATOM     14  O   UNL     1      -3.058  13.358  24.171  0.00  0.00    +0.000 OA
ATOM     15  N   UNL     1      -4.810  13.263  22.650  0.00  0.00    +0.000 N 
ATOM     16  C   UNL     1      -5.211  12.946  21.370  0.00  0.00    +0.000 A 
ATOM     17  N   UNL     1      -4.394  12.576  20.433  0.00  0.00    +0.000 NA
ATOM     18  C   UNL     1      -3.026  12.526  20.721  0.00  0.00    +0.000 A 
ATOM     19  C   UNL     1      -2.127  12.228  19.697  0.00  0.00    +0.000 A 
ATOM     20  C   UNL     1      -6.692  13.025  21.031  0.00  0.00    +0.000 C 
ATOM     21  C   UNL     1      -7.519  11.986  21.784  0.00  0.00    +0.000 C 
ATOM     22  C   UNL     1      -7.886  12.411  23.204  0.00  0.00    +0.000 C 
ATOM     23  C   UNL     1      -6.685  12.593  24.127  0.00  0.00    +0.000 C 
ATOM     24  C   UNL     1      -5.754  13.712  23.669  0.00  0.00    +0.000 C 
ENDBRANCH   2   9
BRANCH   6  25
ATOM     25  C   UNL     1       2.476   6.610  19.403  0.00  0.00    +0.000 A 
ATOM     26  C   UNL     1       2.049   5.720  20.393  0.00  0.00    +0.000 A 
ATOM     27  C   UNL     1       2.479   4.396  20.422  0.00  0.00    +0.000 A 
ATOM     28  C   UNL     1       3.371   3.938  19.444  0.00  0.00    +0.000 A 
ATOM     29  C   UNL     1       3.792   4.793  18.422  0.00  0.00    +0.000 A 
ATOM     30  C   UNL     1       3.343   6.111  18.411  0.00  0.00    +0.000 A 
BRANCH  28  31
ATOM     31  N   UNL     1       3.865   2.564  19.503  0.00  0.00    +0.000 N 
ATOM     32  O   UNL     1       4.803   2.321  20.274  0.00  0.00    +0.000 OA
ATOM     33  O   UNL     1       3.322   1.720  18.771  0.00  0.00    +0.000 OA
ENDBRANCH  28  31
ENDBRANCH   6  25
TORSDOF 3
ENDMDL
MODEL 2
REMARK VINA RESULT:      -7.9      0.548      1.070
REMARK  Name = 
REMARK  3 active torsions:
REMARK  status: ('A' for Active; 'I' for Inactive)
REMARK    1  A    between atoms: C_2  and  C_3
REMARK    2  A    between atoms: N_22  and  C_23
REMARK    3  A    between atoms: C_26  and  N_27
REMARK                            x       y       z     vdW  Elec       q    Type
REMARK                         _______ _______ _______ _____ _____    ______ ____
ROOT
ATOM      1  O   UNL     1       0.931  12.702  18.514  0.00  0.00    +0.000 OA
ATOM      2  C   UNL     1       0.293  11.851  19.133  0.00  0.00    +0.000 C 
ATOM      3  N   UNL     1       0.522  10.489  18.990  0.00  0.00    +0.000 N 
ATOM      4  C   UNL     1       1.563  10.007  18.048  0.00  0.00    +0.000 C 
ATOM      5  C   UNL     1       2.566   9.061  18.755  0.00  0.00    +0.000 C 
ATOM      6  N   UNL     1       1.826   8.012  19.481  0.00  0.00    +0.000 N 
ATOM      7  C   UNL     1       0.877   8.511  20.462  0.00  0.00    +0.000 C 
ATOM      8  C   UNL     1      -0.121   9.425  19.764  0.00  0.00    +0.000 C 
ENDROOT
BRANCH   2   9
ATOM      9  C   UNL     1      -0.709  12.324  20.130  0.00  0.00    +0.000 A 
ATOM     10  C   UNL     1      -0.246  12.654  21.408  0.00  0.00    +0.000 A 
ATOM     11  C   UNL     1      -1.155  13.040  22.394  0.00  0.00    +0.000 A 
ATOM     12  C   UNL     1      -2.524  13.062  22.107  0.00  0.00    +0.000 A 
ATOM     13  C   UNL     1      -3.510  13.465  23.121  0.00  0.00    +0.000 A 
ATOM     14  O   UNL     1      -3.112  13.736  24.249  0.00  0.00    +0.000 OA
ATOM     15  N   UNL     1      -4.838  13.513  22.711  0.00  0.00    +0.000 N 
ATOM     16  C   UNL     1      -5.210  13.124  21.442  0.00  0.00    +0.000 A 
ATOM     17  N   UNL     1      -4.367  12.740  20.533  0.00  0.00    +0.000 NA
ATOM     18  C   UNL     1      -3.003  12.750  20.842  0.00  0.00    +0.000 A 
ATOM     19  C   UNL     1      -2.080  12.437  19.844  0.00  0.00    +0.000 A 
ATOM     20  C   UNL     1      -6.687  13.136  21.081  0.00  0.00    +0.000 C 
ATOM     21  C   UNL     1      -7.489  12.105  21.870  0.00  0.00    +0.000 C 
ATOM     22  C   UNL     1      -7.891  12.582  23.264  0.00  0.00    +0.000 C 
ATOM     23  C   UNL     1      -6.710  12.846  24.193  0.00  0.00    +0.000 C 
ATOM     24  C   UNL     1      -5.812  13.975  23.696  0.00  0.00    +0.000 C 
ENDBRANCH   2   9
BRANCH   6  25
ATOM     25  C   UNL     1       2.115   6.674  19.407  0.00  0.00    +0.000 A 
ATOM     26  C   UNL     1       2.661   6.115  18.248  0.00  0.00    +0.000 A 
ATOM     27  C   UNL     1       2.916   4.751  18.142  0.00  0.00    +0.000 A 
ATOM     28  C   UNL     1       2.611   3.907  19.217  0.00  0.00    +0.000 A 
ATOM     29  C   UNL     1       2.093   4.437  20.402  0.00  0.00    +0.000 A 
ATOM     30  C   UNL     1       1.853   5.806  20.485  0.00  0.00    +0.000 A 
BRANCH  28  31
ATOM     31  N   UNL     1       2.828   2.467  19.090  0.00  0.00    +0.000 N 
ATOM     32  O   UNL     1       1.948   1.710  19.521  0.00  0.00    +0.000 OA
ATOM     33  O   UNL     1       3.886   2.085  18.563  0.00  0.00    +0.000 OA
ENDBRANCH  28  31
ENDBRANCH   6  25
TORSDOF 3
ENDMDL
MODEL 3
REMARK VINA RESULT:      -7.6      3.698     10.954
REMARK  Name = 
REMARK  3 active torsions:
REMARK  status: ('A' for Active; 'I' for Inactive)
REMARK    1  A    between atoms: C_2  and  C_3
REMARK    2  A    between atoms: N_22  and  C_23
REMARK    3  A    between atoms: C_26  and  N_27
REMARK                            x       y       z     vdW  Elec       q    Type
REMARK                         _______ _______ _______ _____ _____    ______ ____
ROOT
ATOM      1  O   UNL     1      -0.433   8.749  22.191  0.00  0.00    +0.000 OA
ATOM      2  C   UNL     1       0.120   8.996  21.119  0.00  0.00    +0.000 C 
ATOM      3  N   UNL     1       0.043  10.237  20.502  0.00  0.00    +0.000 N 
ATOM      4  C   UNL     1      -0.743  11.330  21.129  0.00  0.00    +0.000 C 
ATOM      5  C   UNL     1       0.113  12.609  21.302  0.00  0.00    +0.000 C 
ATOM      6  N   UNL     1       0.764  12.944  20.021  0.00  0.00    +0.000 N 
ATOM      7  C   UNL     1       1.600  11.888  19.473  0.00  0.00    +0.000 C 
ATOM      8  C   UNL     1       0.754  10.635  19.285  0.00  0.00    +0.000 C 
ENDROOT
BRANCH   2   9
ATOM      9  C   UNL     1       0.964   7.928  20.513  0.00  0.00    +0.000 A 
ATOM     10  C   UNL     1       0.966   6.674  21.133  0.00  0.00    +0.000 A 
ATOM     11  C   UNL     1       1.790   5.661  20.640  0.00  0.00    +0.000 A 
ATOM     12  C   UNL     1       2.632   5.917  19.552  0.00  0.00    +0.000 A 
ATOM     13  C   UNL     1       3.513   4.873  19.006  0.00  0.00    +0.000 A 
ATOM     14  O   UNL     1       3.534   3.778  19.557  0.00  0.00    +0.000 OA
ATOM     15  N   UNL     1       4.260   5.216  17.884  0.00  0.00    +0.000 N 
ATOM     16  C   UNL     1       4.231   6.494  17.368  0.00  0.00    +0.000 A 
ATOM     17  N   UNL     1       3.484   7.443  17.842  0.00  0.00    +0.000 NA
ATOM     18  C   UNL     1       2.636   7.151  18.916  0.00  0.00    +0.000 A 
ATOM     19  C   UNL     1       1.755   8.132  19.370  0.00  0.00    +0.000 A 
ATOM     20  C   UNL     1       5.125   6.819  16.181  0.00  0.00    +0.000 C 
ATOM     21  C   UNL     1       6.608   6.759  16.534  0.00  0.00    +0.000 C 
ATOM     22  C   UNL     1       7.187   5.347  16.501  0.00  0.00    +0.000 C 
ATOM     23  C   UNL     1       6.575   4.402  17.532  0.00  0.00    +0.000 C 
ATOM     24  C   UNL     1       5.086   4.163  17.301  0.00  0.00    +0.000 C 
ENDBRANCH   2   9
BRANCH   6  25
ATOM     25  C   UNL     1       0.762  14.194  19.460  0.00  0.00    +0.000 A 
ATOM     26  C   UNL     1      -0.424  14.920  19.314  0.00  0.00    +0.000 A 
ATOM     27  C   UNL     1      -0.446  16.172  18.704  0.00  0.00    +0.000 A 
ATOM     28  C   UNL     1       0.745  16.721  18.212  0.00  0.00    +0.000 A 
ATOM     29  C   UNL     1       1.953  16.035  18.370  0.00  0.00    +0.000 A 
ATOM     30  C   UNL     1       1.949  14.788  18.989  0.00  0.00    +0.000 A 
BRANCH  28  31
ATOM     31  N   UNL     1       0.716  18.010  17.524  0.00  0.00    +0.000 N 
ATOM     32  O   UNL     1      -0.380  18.431  17.133  0.00  0.00    +0.000 OA
ATOM     33  O   UNL     1       1.795  18.605  17.363  0.00  0.00    +0.000 OA
ENDBRANCH  28  31
ENDBRANCH   6  25
TORSDOF 3
ENDMDL
MODEL 4
REMARK VINA RESULT:      -7.6      2.544      3.672
REMARK  Name = 
REMARK  3 active torsions:
REMARK  status: ('A' for Active; 'I' for Inactive)
REMARK    1  A    between atoms: C_2  and  C_3
REMARK    2  A    between atoms: N_22  and  C_23
REMARK    3  A    between atoms: C_26  and  N_27
REMARK                            x       y       z     vdW  Elec       q    Type
REMARK                         _______ _______ _______ _____ _____    ______ ____
ROOT
ATOM      1  O   UNL     1       0.332  12.405  18.355  0.00  0.00    +0.000 OA
ATOM      2  C   UNL     1       0.090  11.667  19.310  0.00  0.00    +0.000 C 
ATOM      3  N   UNL     1       0.344  10.302  19.287  0.00  0.00    +0.000 N 
ATOM      4  C   UNL     1       0.919   9.674  18.071  0.00  0.00    +0.000 C 
ATOM      5  C   UNL     1       2.199   8.870  18.407  0.00  0.00    +0.000 C 
ATOM      6  N   UNL     1       1.926   7.954  19.530  0.00  0.00    +0.000 N 
ATOM      7  C   UNL     1       1.449   8.606  20.739  0.00  0.00    +0.000 C 
ATOM      8  C   UNL     1       0.179   9.381  20.414  0.00  0.00    +0.000 C 
ENDROOT
BRANCH   2   9
ATOM      9  C   UNL     1      -0.427  12.296  20.559  0.00  0.00    +0.000 A 
ATOM     10  C   UNL     1      -1.611  11.784  21.099  0.00  0.00    +0.000 A 
ATOM     11  C   UNL     1      -2.169  12.381  22.231  0.00  0.00    +0.000 A 
ATOM     12  C   UNL     1      -1.557  13.504  22.797  0.00  0.00    +0.000 A 
ATOM     13  C   UNL     1      -2.115  14.158  23.990  0.00  0.00    +0.000 A 
ATOM     14  O   UNL     1      -3.164  13.727  24.457  0.00  0.00    +0.000 OA
ATOM     15  N   UNL     1      -1.393  15.228  24.508  0.00  0.00    +0.000 N 
ATOM     16  C   UNL     1      -0.257  15.695  23.881  0.00  0.00    +0.000 A 
ATOM     17  N   UNL     1       0.246  15.156  22.813  0.00  0.00    +0.000 NA
ATOM     18  C   UNL     1      -0.374  14.020  22.283  0.00  0.00    +0.000 A 
ATOM     19  C   UNL     1       0.213  13.371  21.197  0.00  0.00    +0.000 A 
ATOM     20  C   UNL     1       0.446  16.911  24.462  0.00  0.00    +0.000 C 
ATOM     21  C   UNL     1      -0.398  18.179  24.359  0.00  0.00    +0.000 C 
ATOM     22  C   UNL     1      -1.427  18.319  25.477  0.00  0.00    +0.000 C 
ATOM     23  C   UNL     1      -2.492  17.226  25.481  0.00  0.00    +0.000 C 
ATOM     24  C   UNL     1      -1.909  15.837  25.730  0.00  0.00    +0.000 C 
ENDBRANCH   2   9
BRANCH   6  25
ATOM     25  C   UNL     1       2.262   6.625  19.540  0.00  0.00    +0.000 A 
ATOM     26  C   UNL     1       1.878   5.789  20.592  0.00  0.00    +0.000 A 
ATOM     27  C   UNL     1       2.252   4.449  20.637  0.00  0.00    +0.000 A 
ATOM     28  C   UNL     1       3.042   3.918  19.609  0.00  0.00    +0.000 A 
ATOM     29  C   UNL     1       3.417   4.718  18.526  0.00  0.00    +0.000 A 
ATOM     30  C   UNL     1       3.025   6.054  18.502  0.00  0.00    +0.000 A 
BRANCH  28  31
ATOM     31  N   UNL     1       3.481   2.526  19.681  0.00  0.00    +0.000 N 
ATOM     32  O   UNL     1       4.323   2.230  20.538  0.00  0.00    +0.000 OA
ATOM     33  O   UNL     1       2.989   1.721  18.872  0.00  0.00    +0.000 OA
ENDBRANCH  28  31
ENDBRANCH   6  25
TORSDOF 3
ENDMDL
MODEL 5
REMARK VINA RESULT:      -7.5      2.296      3.474
REMARK  Name = 
REMARK  3 active torsions:
REMARK  status: ('A' for Active; 'I' for Inactive)
REMARK    1  A    between atoms: C_2  and  C_3
REMARK    2  A    between atoms: N_22  and  C_23
REMARK    3  A    between atoms: C_26  and  N_27
REMARK                            x       y       z     vdW  Elec       q    Type
REMARK                         _______ _______ _______ _____ _____    ______ ____
ROOT
ATOM      1  O   UNL     1       0.348  12.631  18.206  0.00  0.00    +0.000 OA
ATOM      2  C   UNL     1      -0.045  11.871  19.092  0.00  0.00    +0.000 C 
ATOM      3  N   UNL     1       0.251  10.515  19.104  0.00  0.00    +0.000 N 
ATOM      4  C   UNL     1       1.063   9.923  18.011  0.00  0.00    +0.000 C 
ATOM      5  C   UNL     1       2.282   9.150  18.572  0.00  0.00    +0.000 C 
ATOM      6  N   UNL     1       1.833   8.210  19.616  0.00  0.00    +0.000 N 
ATOM      7  C   UNL     1       1.119   8.829  20.720  0.00  0.00    +0.000 C 
ATOM      8  C   UNL     1      -0.092   9.572  20.171  0.00  0.00    +0.000 C 
ENDROOT
BRANCH   2   9
ATOM      9  C   UNL     1      -0.804  12.465  20.229  0.00  0.00    +0.000 A 
ATOM     10  C   UNL     1      -2.179  12.213  20.290  0.00  0.00    +0.000 A 
ATOM     11  C   UNL     1      -2.945  12.800  21.299  0.00  0.00    +0.000 A 
ATOM     12  C   UNL     1      -2.338  13.661  22.220  0.00  0.00    +0.000 A 
ATOM     13  C   UNL     1      -3.113  14.296  23.297  0.00  0.00    +0.000 A 
ATOM     14  O   UNL     1      -4.322  14.095  23.345  0.00  0.00    +0.000 OA
ATOM     15  N   UNL     1      -2.399  15.083  24.194  0.00  0.00    +0.000 N 
ATOM     16  C   UNL     1      -1.051  15.315  24.028  0.00  0.00    +0.000 A 
ATOM     17  N   UNL     1      -0.345  14.790  23.075  0.00  0.00    +0.000 NA
ATOM     18  C   UNL     1      -0.973  13.915  22.183  0.00  0.00    +0.000 A 
ATOM     19  C   UNL     1      -0.206  13.265  21.216  0.00  0.00    +0.000 A 
ATOM     20  C   UNL     1      -0.346  16.240  25.008  0.00  0.00    +0.000 C 
ATOM     21  C   UNL     1      -0.831  17.683  24.900  0.00  0.00    +0.000 C 
ATOM     22  C   UNL     1      -2.120  17.953  25.672  0.00  0.00    +0.000 C 
ATOM     23  C   UNL     1      -3.325  17.172  25.157  0.00  0.00    +0.000 C 
ATOM     24  C   UNL     1      -3.154  15.662  25.302  0.00  0.00    +0.000 C 
ENDBRANCH   2   9
BRANCH   6  25
ATOM     25  C   UNL     1       2.202   6.891  19.675  0.00  0.00    +0.000 A 
ATOM     26  C   UNL     1       3.122   6.356  18.768  0.00  0.00    +0.000 A 
ATOM     27  C   UNL     1       3.470   5.008  18.787  0.00  0.00    +0.000 A 
ATOM     28  C   UNL     1       2.882   4.157  19.731  0.00  0.00    +0.000 A 
ATOM     29  C   UNL     1       1.982   4.665  20.672  0.00  0.00    +0.000 A 
ATOM     30  C   UNL     1       1.655   6.018  20.636  0.00  0.00    +0.000 A 
BRANCH  28  31
ATOM     31  N   UNL     1       3.205   2.732  19.719  0.00  0.00    +0.000 N 
ATOM     32  O   UNL     1       4.348   2.396  20.053  0.00  0.00    +0.000 OA
ATOM     33  O   UNL     1       2.316   1.938  19.366  0.00  0.00    +0.000 OA
ENDBRANCH  28  31
ENDBRANCH   6  25
TORSDOF 3
ENDMDL
MODEL 6
REMARK VINA RESULT:      -7.5      2.430     10.308
REMARK  Name = 
REMARK  3 active torsions:
REMARK  status: ('A' for Active; 'I' for Inactive)
REMARK    1  A    between atoms: C_2  and  C_3
REMARK    2  A    between atoms: N_22  and  C_23
REMARK    3  A    between atoms: C_26  and  N_27
REMARK                            x       y       z     vdW  Elec       q    Type
REMARK                         _______ _______ _______ _____ _____    ______ ____
ROOT
ATOM      1  O   UNL     1       2.696  11.582  17.904  0.00  0.00    +0.000 OA
ATOM      2  C   UNL     1       1.917  10.745  18.359  0.00  0.00    +0.000 C 
ATOM      3  N   UNL     1       0.651  11.072  18.828  0.00  0.00    +0.000 N 
ATOM      4  C   UNL     1       0.194  12.484  18.803  0.00  0.00    +0.000 C 
ATOM      5  C   UNL     1      -1.161  12.623  18.067  0.00  0.00    +0.000 C 
ATOM      6  N   UNL     1      -2.123  11.649  18.617  0.00  0.00    +0.000 N 
ATOM      7  C   UNL     1      -1.688  10.264  18.545  0.00  0.00    +0.000 C 
ATOM      8  C   UNL     1      -0.365  10.123  19.286  0.00  0.00    +0.000 C 
ENDROOT
BRANCH   2   9
ATOM      9  C   UNL     1       2.339   9.315  18.328  0.00  0.00    +0.000 A 
ATOM     10  C   UNL     1       2.984   8.856  17.175  0.00  0.00    +0.000 A 
ATOM     11  C   UNL     1       3.341   7.510  17.073  0.00  0.00    +0.000 A 
ATOM     12  C   UNL     1       3.021   6.625  18.109  0.00  0.00    +0.000 A 
ATOM     13  C   UNL     1       3.382   5.202  18.036  0.00  0.00    +0.000 A 
ATOM     14  O   UNL     1       3.930   4.788  17.019  0.00  0.00    +0.000 OA
ATOM     15  N   UNL     1       3.074   4.425  19.147  0.00  0.00    +0.000 N 
ATOM     16  C   UNL     1       2.393   4.953  20.223  0.00  0.00    +0.000 A 
ATOM     17  N   UNL     1       2.038   6.199  20.306  0.00  0.00    +0.000 NA
ATOM     18  C   UNL     1       2.392   7.064  19.266  0.00  0.00    +0.000 A 
ATOM     19  C   UNL     1       2.106   8.424  19.389  0.00  0.00    +0.000 A 
ATOM     20  C   UNL     1       2.028   4.032  21.376  0.00  0.00    +0.000 C 
ATOM     21  C   UNL     1       1.010   2.968  20.974  0.00  0.00    +0.000 C 
ATOM     22  C   UNL     1       1.633   1.756  20.286  0.00  0.00    +0.000 C 
ATOM     23  C   UNL     1       2.304   2.076  18.954  0.00  0.00    +0.000 C 
ATOM     24  C   UNL     1       3.489   3.026  19.104  0.00  0.00    +0.000 C 
ENDBRANCH   2   9
BRANCH   6  25
ATOM     25  C   UNL     1      -3.404  11.960  18.993  0.00  0.00    +0.000 A 
ATOM     26  C   UNL     1      -4.488  11.707  18.147  0.00  0.00    +0.000 A 
ATOM     27  C   UNL     1      -5.788  12.061  18.498  0.00  0.00    +0.000 A 
ATOM     28  C   UNL     1      -6.024  12.696  19.724  0.00  0.00    +0.000 A 
ATOM     29  C   UNL     1      -4.967  12.934  20.606  0.00  0.00    +0.000 A 
ATOM     30  C   UNL     1      -3.677  12.566  20.235  0.00  0.00    +0.000 A 
BRANCH  28  31
ATOM     31  N   UNL     1      -7.380  13.116  20.070  0.00  0.00    +0.000 N 
ATOM     32  O   UNL     1      -7.915  13.981  19.365  0.00  0.00    +0.000 OA
ATOM     33  O   UNL     1      -7.916  12.587  21.059  0.00  0.00    +0.000 OA
ENDBRANCH  28  31
ENDBRANCH   6  25
TORSDOF 3
ENDMDL
MODEL 7
REMARK VINA RESULT:      -7.4      3.743      5.548
REMARK  Name = 
REMARK  3 active torsions:
REMARK  status: ('A' for Active; 'I' for Inactive)
REMARK    1  A    between atoms: C_2  and  C_3
REMARK    2  A    between atoms: N_22  and  C_23
REMARK    3  A    between atoms: C_26  and  N_27
REMARK                            x       y       z     vdW  Elec       q    Type
REMARK                         _______ _______ _______ _____ _____    ______ ____
ROOT
ATOM      1  O   UNL     1      -1.606  11.313  23.279  0.00  0.00    +0.000 OA
ATOM      2  C   UNL     1      -0.850  11.618  22.356  0.00  0.00    +0.000 C 
ATOM      3  N   UNL     1       0.096  10.743  21.839  0.00  0.00    +0.000 N 
ATOM      4  C   UNL     1       0.237   9.380  22.411  0.00  0.00    +0.000 C 
ATOM      5  C   UNL     1       0.130   8.296  21.310  0.00  0.00    +0.000 C 
ATOM      6  N   UNL     1       1.050   8.623  20.205  0.00  0.00    +0.000 N 
ATOM      7  C   UNL     1       0.832   9.928  19.603  0.00  0.00    +0.000 C 
ATOM      8  C   UNL     1       0.956  10.996  20.681  0.00  0.00    +0.000 C 
ENDROOT
BRANCH   2   9
ATOM      9  C   UNL     1      -1.026  12.959  21.730  0.00  0.00    +0.000 A 
ATOM     10  C   UNL     1      -2.319  13.490  21.688  0.00  0.00    +0.000 A 
ATOM     11  C   UNL     1      -2.544  14.713  21.055  0.00  0.00    +0.000 A 
ATOM     12  C   UNL     1      -1.481  15.383  20.440  0.00  0.00    +0.000 A 
ATOM     13  C   UNL     1      -1.681  16.675  19.765  0.00  0.00    +0.000 A 
ATOM     14  O   UNL     1      -2.816  17.135  19.708  0.00  0.00    +0.000 OA
ATOM     15  N   UNL     1      -0.545  17.284  19.242  0.00  0.00    +0.000 N 
ATOM     16  C   UNL     1       0.685  16.665  19.288  0.00  0.00    +0.000 A 
ATOM     17  N   UNL     1       0.889  15.515  19.854  0.00  0.00    +0.000 NA
ATOM     18  C   UNL     1      -0.188  14.879  20.481  0.00  0.00    +0.000 A 
ATOM     19  C   UNL     1       0.038  13.693  21.179  0.00  0.00    +0.000 A 
ATOM     20  C   UNL     1       1.873  17.357  18.638  0.00  0.00    +0.000 C 
ATOM     21  C   UNL     1       1.733  17.453  17.121  0.00  0.00    +0.000 C 
ATOM     22  C   UNL     1       0.876  18.630  16.661  0.00  0.00    +0.000 C 
ATOM     23  C   UNL     1      -0.579  18.551  17.112  0.00  0.00    +0.000 C 
ATOM     24  C   UNL     1      -0.729  18.597  18.630  0.00  0.00    +0.000 C 
ENDBRANCH   2   9
BRANCH   6  25
ATOM     25  C   UNL     1       1.920   7.728  19.637  0.00  0.00    +0.000 A 
ATOM     26  C   UNL     1       2.506   7.980  18.393  0.00  0.00    +0.000 A 
ATOM     27  C   UNL     1       3.354   7.059  17.783  0.00  0.00    +0.000 A 
ATOM     28  C   UNL     1       3.625   5.842  18.422  0.00  0.00    +0.000 A 
ATOM     29  C   UNL     1       3.080   5.573  19.681  0.00  0.00    +0.000 A 
ATOM     30  C   UNL     1       2.240   6.512  20.272  0.00  0.00    +0.000 A 
BRANCH  28  31
ATOM     31  N   UNL     1       4.472   4.852  17.760  0.00  0.00    +0.000 N 
ATOM     32  O   UNL     1       4.056   4.346  16.710  0.00  0.00    +0.000 OA
ATOM     33  O   UNL     1       5.557   4.569  18.294  0.00  0.00    +0.000 OA
ENDBRANCH  28  31
ENDBRANCH   6  25
TORSDOF 3
ENDMDL
MODEL 8
REMARK VINA RESULT:      -7.4      2.815      4.068
REMARK  Name = 
REMARK  3 active torsions:
REMARK  status: ('A' for Active; 'I' for Inactive)
REMARK    1  A    between atoms: C_2  and  C_3
REMARK    2  A    between atoms: N_22  and  C_23
REMARK    3  A    between atoms: C_26  and  N_27
REMARK                            x       y       z     vdW  Elec       q    Type
REMARK                         _______ _______ _______ _____ _____    ______ ____
ROOT
ATOM      1  O   UNL     1      -1.893  12.277  18.366  0.00  0.00    +0.000 OA
ATOM      2  C   UNL     1      -1.466  11.726  19.380  0.00  0.00    +0.000 C 
ATOM      3  N   UNL     1      -0.780  10.519  19.348  0.00  0.00    +0.000 N 
ATOM      4  C   UNL     1      -0.545   9.834  18.052  0.00  0.00    +0.000 C 
ATOM      5  C   UNL     1       0.958   9.522  17.846  0.00  0.00    +0.000 C 
ATOM      6  N   UNL     1       1.486   8.832  19.038  0.00  0.00    +0.000 N 
ATOM      7  C   UNL     1       1.324   9.566  20.282  0.00  0.00    +0.000 C 
ATOM      8  C   UNL     1      -0.156   9.857  20.495  0.00  0.00    +0.000 C 
ENDROOT
BRANCH   2   9
ATOM      9  C   UNL     1      -1.638  12.435  20.680  0.00  0.00    +0.000 A 
ATOM     10  C   UNL     1      -2.734  12.078  21.472  0.00  0.00    +0.000 A 
ATOM     11  C   UNL     1      -2.974  12.758  22.667  0.00  0.00    +0.000 A 
ATOM     12  C   UNL     1      -2.137  13.813  23.047  0.00  0.00    +0.000 A 
ATOM     13  C   UNL     1      -2.358  14.551  24.299  0.00  0.00    +0.000 A 
ATOM     14  O   UNL     1      -3.329  14.256  24.988  0.00  0.00    +0.000 OA
ATOM     15  N   UNL     1      -1.430  15.539  24.611  0.00  0.00    +0.000 N 
ATOM     16  C   UNL     1      -0.405  15.856  23.745  0.00  0.00    +0.000 A 
ATOM     17  N   UNL     1      -0.198  15.241  22.622  0.00  0.00    +0.000 NA
ATOM     18  C   UNL     1      -1.037  14.175  22.280  0.00  0.00    +0.000 A 
ATOM     19  C   UNL     1      -0.765  13.441  21.126  0.00  0.00    +0.000 A 
ATOM     20  C   UNL     1       0.535  16.993  24.116  0.00  0.00    +0.000 C 
ATOM     21  C   UNL     1      -0.166  18.348  24.132  0.00  0.00    +0.000 C 
ATOM     22  C   UNL     1      -0.918  18.631  25.430  0.00  0.00    +0.000 C 
ATOM     23  C   UNL     1      -2.074  17.671  25.699  0.00  0.00    +0.000 C 
ATOM     24  C   UNL     1      -1.610  16.229  25.884  0.00  0.00    +0.000 C 
ENDBRANCH   2   9
BRANCH   6  25
ATOM     25  C   UNL     1       2.242   7.689  18.995  0.00  0.00    +0.000 A 
ATOM     26  C   UNL     1       3.086   7.421  17.913  0.00  0.00    +0.000 A 
ATOM     27  C   UNL     1       3.824   6.243  17.835  0.00  0.00    +0.000 A 
ATOM     28  C   UNL     1       3.716   5.292  18.857  0.00  0.00    +0.000 A 
ATOM     29  C   UNL     1       2.906   5.543  19.968  0.00  0.00    +0.000 A 
ATOM     30  C   UNL     1       2.183   6.731  20.026  0.00  0.00    +0.000 A 
BRANCH  28  31
ATOM     31  N   UNL     1       4.447   4.031  18.751  0.00  0.00    +0.000 N 
ATOM     32  O   UNL     1       3.824   3.032  18.370  0.00  0.00    +0.000 OA
ATOM     33  O   UNL     1       5.652   4.032  19.058  0.00  0.00    +0.000 OA
ENDBRANCH  28  31
ENDBRANCH   6  25
TORSDOF 3
ENDMDL
MODEL 9
REMARK VINA RESULT:      -7.3      2.882     10.985
REMARK  Name = 
REMARK  3 active torsions:
REMARK  status: ('A' for Active; 'I' for Inactive)
REMARK    1  A    between atoms: C_2  and  C_3
REMARK    2  A    between atoms: N_22  and  C_23
REMARK    3  A    between atoms: C_26  and  N_27
REMARK                            x       y       z     vdW  Elec       q    Type
REMARK                         _______ _______ _______ _____ _____    ______ ____
ROOT
ATOM      1  O   UNL     1       1.750   9.646  22.362  0.00  0.00    +0.000 OA
ATOM      2  C   UNL     1       1.010   9.184  21.494  0.00  0.00    +0.000 C 
ATOM      3  N   UNL     1      -0.237   9.723  21.205  0.00  0.00    +0.000 N 
ATOM      4  C   UNL     1      -0.731  10.898  21.966  0.00  0.00    +0.000 C 
ATOM      5  C   UNL     1      -1.149  12.048  21.015  0.00  0.00    +0.000 C 
ATOM      6  N   UNL     1      -2.063  11.525  19.982  0.00  0.00    +0.000 N 
ATOM      7  C   UNL     1      -1.520  10.434  19.191  0.00  0.00    +0.000 C 
ATOM      8  C   UNL     1      -1.126   9.295  20.123  0.00  0.00    +0.000 C 
ENDROOT
BRANCH   2   9
ATOM      9  C   UNL     1       1.521   8.046  20.679  0.00  0.00    +0.000 A 
ATOM     10  C   UNL     1       1.244   6.751  21.129  0.00  0.00    +0.000 A 
ATOM     11  C   UNL     1       1.756   5.653  20.436  0.00  0.00    +0.000 A 
ATOM     12  C   UNL     1       2.570   5.857  19.316  0.00  0.00    +0.000 A 
ATOM     13  C   UNL     1       3.126   4.725  18.560  0.00  0.00    +0.000 A 
ATOM     14  O   UNL     1       2.903   3.587  18.962  0.00  0.00    +0.000 OA
ATOM     15  N   UNL     1       3.869   5.039  17.427  0.00  0.00    +0.000 N 
ATOM     16  C   UNL     1       4.132   6.348  17.085  0.00  0.00    +0.000 A 
ATOM     17  N   UNL     1       3.677   7.368  17.745  0.00  0.00    +0.000 NA
ATOM     18  C   UNL     1       2.847   7.134  18.846  0.00  0.00    +0.000 A 
ATOM     19  C   UNL     1       2.270   8.220  19.503  0.00  0.00    +0.000 A 
ATOM     20  C   UNL     1       5.008   6.620  15.871  0.00  0.00    +0.000 C 
ATOM     21  C   UNL     1       6.447   6.153  16.074  0.00  0.00    +0.000 C 
ATOM     22  C   UNL     1       6.648   4.664  15.806  0.00  0.00    +0.000 C 
ATOM     23  C   UNL     1       5.880   3.753  16.759  0.00  0.00    +0.000 C 
ATOM     24  C   UNL     1       4.368   3.916  16.639  0.00  0.00    +0.000 C 
ENDBRANCH   2   9
BRANCH   6  25
ATOM     25  C   UNL     1      -3.252  12.114  19.637  0.00  0.00    +0.000 A 
ATOM     26  C   UNL     1      -3.805  13.136  20.413  0.00  0.00    +0.000 A 
ATOM     27  C   UNL     1      -5.034  13.710  20.099  0.00  0.00    +0.000 A 
ATOM     28  C   UNL     1      -5.746  13.251  18.983  0.00  0.00    +0.000 A 
ATOM     29  C   UNL     1      -5.206  12.252  18.168  0.00  0.00    +0.000 A 
ATOM     30  C   UNL     1      -3.972  11.699  18.500  0.00  0.00    +0.000 A 
BRANCH  28  31
ATOM     31  N   UNL     1      -7.060  13.815  18.683  0.00  0.00    +0.000 N 
ATOM     32  O   UNL     1      -7.443  14.779  19.358  0.00  0.00    +0.000 OA
ATOM     33  O   UNL     1      -7.722  13.289  17.772  0.00  0.00    +0.000 OA
ENDBRANCH  28  31
ENDBRANCH   6  25
TORSDOF 3
ENDMDL
