MODEL 1
REMARK VINA RESULT:      -7.2      0.000      0.000
REMARK  Name = 
REMARK  21 active torsions:
REMARK  status: ('A' for Active; 'I' for Inactive)
REMARK    1  A    between atoms: C_1  and  O_2
REMARK    2  A    between atoms: O_2  and  C_3
REMARK    3  A    between atoms: C_3  and  C_5
REMARK    4  A    between atoms: C_5  and  C_6
REMARK    5  A    between atoms: C_5  and  N_10
REMARK    6  A    between atoms: C_6  and  C_7
REMARK    7  A    between atoms: C_7  and  C_8
REMARK    8  A    between atoms: C_7  and  C_9
REMARK    9  A    between atoms: C_11  and  C_13
REMARK   10  A    between atoms: C_13  and  N_14
REMARK   11  A    between atoms: C_13  and  C_25
REMARK   12  A    between atoms: C_15  and  C_17
REMARK   13  A    between atoms: C_17  and  C_18
REMARK   14  A    between atoms: C_17  and  N_22
REMARK   15  A    between atoms: C_18  and  C_19
REMARK   16  A    between atoms: C_19  and  C_20
REMARK   17  A    between atoms: C_19  and  C_21
REMARK   18  A    between atoms: N_22  and  C_23
REMARK   19  A    between atoms: N_22  and  C_24
REMARK   20  A    between atoms: C_25  and  O_26
REMARK   21  A    between atoms: C_25  and  C_27
REMARK                            x       y       z     vdW  Elec       q    Type
REMARK                         _______ _______ _______ _____ _____    ______ ____
ROOT
ATOM      1  C   UNL     1       3.152   6.815  18.554  0.00  0.00    +0.000 C 
ENDROOT
BRANCH   1   3
ATOM      2  N   UNL     1       1.706   8.546  19.609  0.00  0.00    +0.000 N 
ATOM      3  C   UNL     1       2.318   8.138  18.438  0.00  0.00    +0.000 C 
ATOM      4  O   UNL     1       2.172   8.751  17.374  0.00  0.00    +0.000 OA
ATOM      5  H   UNL     1       1.787   7.925  20.416  0.00  0.00    +0.000 HD
BRANCH   2   6
ATOM      6  C   UNL     1       0.858   9.736  19.757  0.00  0.00    +0.000 C 
BRANCH   6   7
ATOM      7  C   UNL     1       0.790  10.275  21.189  0.00  0.00    +0.000 C 
ATOM      8  O   UNL     1       1.115  11.423  21.505  0.00  0.00    +0.000 OA
BRANCH   7  10
ATOM      9  C   UNL     1      -0.535   9.974  23.098  0.00  0.00    +0.000 C 
ATOM     10  O   UNL     1       0.234   9.376  22.055  0.00  0.00    +0.000 OA
ENDBRANCH   7  10
ENDBRANCH   6   7
BRANCH   6  11
ATOM     11  C   UNL     1      -0.572   9.528  19.199  0.00  0.00    +0.000 C 
BRANCH  11  12
ATOM     12  C   UNL     1      -1.089  10.524  18.131  0.00  0.00    +0.000 C 
ATOM     13  C   UNL     1      -1.988   9.921  17.051  0.00  0.00    +0.000 C 
ATOM     14  C   UNL     1      -1.867  11.660  18.810  0.00  0.00    +0.000 C 
ENDBRANCH  11  12
ENDBRANCH   6  11
ENDBRANCH   2   6
ENDBRANCH   1   3
BRANCH   1  15
ATOM     15  N   UNL     1       4.454   6.948  17.867  0.00  0.00    +0.000 N 
ATOM     16  C   UNL     1       5.481   6.024  17.892  0.00  0.00    +0.000 C 
ATOM     17  O   UNL     1       5.511   5.081  18.671  0.00  0.00    +0.000 OA
ATOM     18  H   UNL     1       4.570   7.722  17.215  0.00  0.00    +0.000 HD
BRANCH  16  19
ATOM     19  C   UNL     1       6.643   6.269  16.869  0.00  0.00    +0.000 C 
BRANCH  19  20
ATOM     20  N   UNL     1       7.848   6.881  17.535  0.00  0.00    +0.000 NA
ATOM     21  C   UNL     1       7.720   8.344  17.629  0.00  0.00    +0.000 C 
ATOM     22  C   UNL     1       8.018   6.385  18.915  0.00  0.00    +0.000 C 
ENDBRANCH  19  20
BRANCH  19  23
ATOM     23  C   UNL     1       6.994   4.933  16.150  0.00  0.00    +0.000 C 
BRANCH  23  24
ATOM     24  C   UNL     1       5.942   4.409  15.144  0.00  0.00    +0.000 C 
ATOM     25  C   UNL     1       6.525   4.233  13.742  0.00  0.00    +0.000 C 
ATOM     26  C   UNL     1       5.360   3.062  15.593  0.00  0.00    +0.000 C 
ENDBRANCH  23  24
ENDBRANCH  19  23
ENDBRANCH  16  19
ENDBRANCH   1  15
BRANCH   1  27
ATOM     27  C   UNL     1       2.261   5.594  18.137  0.00  0.00    +0.000 C 
BRANCH  27  28
ATOM     28  C   UNL     1       1.861   4.672  19.287  0.00  0.00    +0.000 A 
ATOM     29  C   UNL     1       2.368   4.910  20.573  0.00  0.00    +0.000 A 
ATOM     30  C   UNL     1       2.205   3.965  21.590  0.00  0.00    +0.000 A 
ATOM     31  C   UNL     1       1.521   2.779  21.341  0.00  0.00    +0.000 A 
ATOM     32  C   UNL     1       0.946   2.563  20.095  0.00  0.00    +0.000 A 
ATOM     33  C   UNL     1       1.090   3.519  19.088  0.00  0.00    +0.000 A 
ENDBRANCH  27  28
BRANCH  27  34
ATOM     34  O   UNL     1       2.903   4.846  17.085  0.00  0.00    +0.000 OA
ATOM     35  H   UNL     1       3.321   4.075  17.505  0.00  0.00    +0.000 HD
ENDBRANCH  27  34
ENDBRANCH   1  27
TORSDOF 14
ENDMDL
MODEL 2
REMARK VINA RESULT:      -7.2      1.906      7.252
REMARK  Name = 
REMARK  21 active torsions:
REMARK  status: ('A' for Active; 'I' for Inactive)
REMARK    1  A    between atoms: C_1  and  O_2
REMARK    2  A    between atoms: O_2  and  C_3
REMARK    3  A    between atoms: C_3  and  C_5
REMARK    4  A    between atoms: C_5  and  C_6
REMARK    5  A    between atoms: C_5  and  N_10
REMARK    6  A    between atoms: C_6  and  C_7
REMARK    7  A    between atoms: C_7  and  C_8
REMARK    8  A    between atoms: C_7  and  C_9
REMARK    9  A    between atoms: C_11  and  C_13
REMARK   10  A    between atoms: C_13  and  N_14
REMARK   11  A    between atoms: C_13  and  C_25
REMARK   12  A    between atoms: C_15  and  C_17
REMARK   13  A    between atoms: C_17  and  C_18
REMARK   14  A    between atoms: C_17  and  N_22
REMARK   15  A    between atoms: C_18  and  C_19
REMARK   16  A    between atoms: C_19  and  C_20
REMARK   17  A    between atoms: C_19  and  C_21
REMARK   18  A    between atoms: N_22  and  C_23
REMARK   19  A    between atoms: N_22  and  C_24
REMARK   20  A    between atoms: C_25  and  O_26
REMARK   21  A    between atoms: C_25  and  C_27
REMARK                            x       y       z     vdW  Elec       q    Type
REMARK                         _______ _______ _______ _____ _____    ______ ____
ROOT
ATOM      1  C   UNL     1       2.641   6.008  17.861  0.00  0.00    +0.000 C 
ENDROOT
BRANCH   1   3
ATOM      2  N   UNL     1       4.695   4.935  16.949  0.00  0.00    +0.000 N 
ATOM      3  C   UNL     1       4.104   5.486  18.072  0.00  0.00    +0.000 C 
ATOM      4  O   UNL     1       4.678   5.514  19.166  0.00  0.00    +0.000 OA
ATOM      5  H   UNL     1       4.113   4.851  16.112  0.00  0.00    +0.000 HD
BRANCH   2   6
ATOM      6  C   UNL     1       6.045   4.361  16.891  0.00  0.00    +0.000 C 
BRANCH   6   7
ATOM      7  C   UNL     1       7.156   5.352  17.251  0.00  0.00    +0.000 C 
ATOM      8  O   UNL     1       7.291   6.454  16.710  0.00  0.00    +0.000 OA
BRANCH   7  10
ATOM      9  C   UNL     1       7.970   5.843  19.392  0.00  0.00    +0.000 C 
ATOM     10  O   UNL     1       7.915   4.922  18.303  0.00  0.00    +0.000 OA
ENDBRANCH   7  10
ENDBRANCH   6   7
BRANCH   6  11
ATOM     11  C   UNL     1       6.354   3.687  15.532  0.00  0.00    +0.000 C 
BRANCH  11  12
ATOM     12  C   UNL     1       6.151   4.523  14.242  0.00  0.00    +0.000 C 
ATOM     13  C   UNL     1       7.432   5.031  13.580  0.00  0.00    +0.000 C 
ATOM     14  C   UNL     1       5.379   3.699  13.203  0.00  0.00    +0.000 C 
ENDBRANCH  11  12
ENDBRANCH   6  11
ENDBRANCH   2   6
ENDBRANCH   1   3
BRANCH   1  15
ATOM     15  N   UNL     1       2.340   7.125  18.780  0.00  0.00    +0.000 N 
ATOM     16  C   UNL     1       2.059   8.426  18.409  0.00  0.00    +0.000 C 
ATOM     17  O   UNL     1       2.243   8.851  17.277  0.00  0.00    +0.000 OA
ATOM     18  H   UNL     1       2.202   6.906  19.765  0.00  0.00    +0.000 HD
BRANCH  16  19
ATOM     19  C   UNL     1       1.507   9.354  19.546  0.00  0.00    +0.000 C 
BRANCH  19  20
ATOM     20  N   UNL     1       0.992  10.659  18.994  0.00  0.00    +0.000 NA
ATOM     21  C   UNL     1      -0.466  10.619  18.802  0.00  0.00    +0.000 C 
ATOM     22  C   UNL     1       1.264  11.783  19.912  0.00  0.00    +0.000 C 
ENDBRANCH  19  20
BRANCH  19  23
ATOM     23  C   UNL     1       0.414   8.595  20.353  0.00  0.00    +0.000 C 
BRANCH  23  24
ATOM     24  C   UNL     1       0.530   8.679  21.893  0.00  0.00    +0.000 C 
ATOM     25  C   UNL     1       1.915   9.146  22.342  0.00  0.00    +0.000 C 
ATOM     26  C   UNL     1      -0.512   9.639  22.483  0.00  0.00    +0.000 C 
ENDBRANCH  23  24
ENDBRANCH  19  23
ENDBRANCH  16  19
ENDBRANCH   1  15
BRANCH   1  27
ATOM     27  C   UNL     1       1.644   4.798  17.877  0.00  0.00    +0.000 C 
BRANCH  27  28
ATOM     28  C   UNL     1       1.608   4.017  19.189  0.00  0.00    +0.000 A 
ATOM     29  C   UNL     1       1.642   4.710  20.409  0.00  0.00    +0.000 A 
ATOM     30  C   UNL     1       1.836   4.027  21.612  0.00  0.00    +0.000 A 
ATOM     31  C   UNL     1       1.982   2.642  21.615  0.00  0.00    +0.000 A 
ATOM     32  C   UNL     1       1.873   1.934  20.426  0.00  0.00    +0.000 A 
ATOM     33  C   UNL     1       1.655   2.617  19.228  0.00  0.00    +0.000 A 
ENDBRANCH  27  28
BRANCH  27  34
ATOM     34  O   UNL     1       1.912   3.917  16.768  0.00  0.00    +0.000 OA
ATOM     35  H   UNL     1       1.800   3.010  17.098  0.00  0.00    +0.000 HD
ENDBRANCH  27  34
ENDBRANCH   1  27
TORSDOF 14
ENDMDL
MODEL 3
REMARK VINA RESULT:      -7.2      1.870      7.304
REMARK  Name = 
REMARK  21 active torsions:
REMARK  status: ('A' for Active; 'I' for Inactive)
REMARK    1  A    between atoms: C_1  and  O_2
REMARK    2  A    between atoms: O_2  and  C_3
REMARK    3  A    between atoms: C_3  and  C_5
REMARK    4  A    between atoms: C_5  and  C_6
REMARK    5  A    between atoms: C_5  and  N_10
REMARK    6  A    between atoms: C_6  and  C_7
REMARK    7  A    between atoms: C_7  and  C_8
REMARK    8  A    between atoms: C_7  and  C_9
REMARK    9  A    between atoms: C_11  and  C_13
REMARK   10  A    between atoms: C_13  and  N_14
REMARK   11  A    between atoms: C_13  and  C_25
REMARK   12  A    between atoms: C_15  and  C_17
REMARK   13  A    between atoms: C_17  and  C_18
REMARK   14  A    between atoms: C_17  and  N_22
REMARK   15  A    between atoms: C_18  and  C_19
REMARK   16  A    between atoms: C_19  and  C_20
REMARK   17  A    between atoms: C_19  and  C_21
REMARK   18  A    between atoms: N_22  and  C_23
REMARK   19  A    between atoms: N_22  and  C_24
REMARK   20  A    between atoms: C_25  and  O_26
REMARK   21  A    between atoms: C_25  and  C_27
REMARK                            x       y       z     vdW  Elec       q    Type
REMARK                         _______ _______ _______ _____ _____    ______ ____
ROOT
ATOM      1  C   UNL     1       2.579   6.863  18.732  0.00  0.00    +0.000 C 
ENDROOT
BRANCH   1   3
ATOM      2  N   UNL     1       4.798   6.004  18.000  0.00  0.00    +0.000 N 
ATOM      3  C   UNL     1       3.836   6.978  17.803  0.00  0.00    +0.000 C 
ATOM      4  O   UNL     1       3.989   7.894  16.987  0.00  0.00    +0.000 OA
ATOM      5  H   UNL     1       4.643   5.348  18.768  0.00  0.00    +0.000 HD
BRANCH   2   6
ATOM      6  C   UNL     1       6.070   5.903  17.273  0.00  0.00    +0.000 C 
BRANCH   6   7
ATOM      7  C   UNL     1       7.179   6.796  17.839  0.00  0.00    +0.000 C 
ATOM      8  O   UNL     1       7.883   6.485  18.804  0.00  0.00    +0.000 OA
BRANCH   7  10
ATOM      9  C   UNL     1       8.009   8.987  17.797  0.00  0.00    +0.000 C 
ATOM     10  O   UNL     1       7.367   7.925  17.092  0.00  0.00    +0.000 OA
ENDBRANCH   7  10
ENDBRANCH   6   7
BRANCH   6  11
ATOM     11  C   UNL     1       5.914   6.150  15.753  0.00  0.00    +0.000 C 
BRANCH  11  12
ATOM     12  C   UNL     1       5.855   4.916  14.817  0.00  0.00    +0.000 C 
ATOM     13  C   UNL     1       7.043   4.755  13.867  0.00  0.00    +0.000 C 
ATOM     14  C   UNL     1       5.743   3.633  15.651  0.00  0.00    +0.000 C 
ENDBRANCH  11  12
ENDBRANCH   6  11
ENDBRANCH   2   6
ENDBRANCH   1   3
BRANCH   1  15
ATOM     15  N   UNL     1       2.253   8.168  19.346  0.00  0.00    +0.000 N 
ATOM     16  C   UNL     1       1.389   9.113  18.827  0.00  0.00    +0.000 C 
ATOM     17  O   UNL     1       0.960   9.068  17.683  0.00  0.00    +0.000 OA
ATOM     18  H   UNL     1       2.588   8.345  20.291  0.00  0.00    +0.000 HD
BRANCH  16  19
ATOM     19  C   UNL     1       1.003  10.286  19.794  0.00  0.00    +0.000 C 
BRANCH  19  20
ATOM     20  N   UNL     1       0.990  11.612  19.078  0.00  0.00    +0.000 NA
ATOM     21  C   UNL     1      -0.386  12.092  18.869  0.00  0.00    +0.000 C 
ATOM     22  C   UNL     1       1.685  12.657  19.856  0.00  0.00    +0.000 C 
ENDBRANCH  19  20
BRANCH  19  23
ATOM     23  C   UNL     1      -0.367   9.976  20.466  0.00  0.00    +0.000 C 
BRANCH  23  24
ATOM     24  C   UNL     1      -0.316   9.603  21.966  0.00  0.00    +0.000 C 
ATOM     25  C   UNL     1       1.105   9.280  22.430  0.00  0.00    +0.000 C 
ATOM     26  C   UNL     1      -0.859  10.737  22.845  0.00  0.00    +0.000 C 
ENDBRANCH  23  24
ENDBRANCH  19  23
ENDBRANCH  16  19
ENDBRANCH   1  15
BRANCH   1  27
ATOM     27  C   UNL     1       2.758   5.652  19.713  0.00  0.00    +0.000 C 
BRANCH  27  28
ATOM     28  C   UNL     1       2.099   4.355  19.253  0.00  0.00    +0.000 A 
ATOM     29  C   UNL     1       1.042   3.812  19.999  0.00  0.00    +0.000 A 
ATOM     30  C   UNL     1       0.570   2.523  19.737  0.00  0.00    +0.000 A 
ATOM     31  C   UNL     1       1.136   1.765  18.716  0.00  0.00    +0.000 A 
ATOM     32  C   UNL     1       2.129   2.316  17.918  0.00  0.00    +0.000 A 
ATOM     33  C   UNL     1       2.582   3.613  18.167  0.00  0.00    +0.000 A 
ENDBRANCH  27  28
BRANCH  27  34
ATOM     34  O   UNL     1       2.307   6.012  21.034  0.00  0.00    +0.000 OA
ATOM     35  H   UNL     1       1.337   6.056  20.996  0.00  0.00    +0.000 HD
ENDBRANCH  27  34
ENDBRANCH   1  27
TORSDOF 14
ENDMDL
MODEL 4
REMARK VINA RESULT:      -7.2      1.878      7.231
REMARK  Name = 
REMARK  21 active torsions:
REMARK  status: ('A' for Active; 'I' for Inactive)
REMARK    1  A    between atoms: C_1  and  O_2
REMARK    2  A    between atoms: O_2  and  C_3
REMARK    3  A    between atoms: C_3  and  C_5
REMARK    4  A    between atoms: C_5  and  C_6
REMARK    5  A    between atoms: C_5  and  N_10
REMARK    6  A    between atoms: C_6  and  C_7
REMARK    7  A    between atoms: C_7  and  C_8
REMARK    8  A    between atoms: C_7  and  C_9
REMARK    9  A    between atoms: C_11  and  C_13
REMARK   10  A    between atoms: C_13  and  N_14
REMARK   11  A    between atoms: C_13  and  C_25
REMARK   12  A    between atoms: C_15  and  C_17
REMARK   13  A    between atoms: C_17  and  C_18
REMARK   14  A    between atoms: C_17  and  N_22
REMARK   15  A    between atoms: C_18  and  C_19
REMARK   16  A    between atoms: C_19  and  C_20
REMARK   17  A    between atoms: C_19  and  C_21
REMARK   18  A    between atoms: N_22  and  C_23
REMARK   19  A    between atoms: N_22  and  C_24
REMARK   20  A    between atoms: C_25  and  O_26
REMARK   21  A    between atoms: C_25  and  C_27
REMARK                            x       y       z     vdW  Elec       q    Type
REMARK                         _______ _______ _______ _____ _____    ______ ____
ROOT
ATOM      1  C   UNL     1       2.827   6.025  17.928  0.00  0.00    +0.000 C 
ENDROOT
BRANCH   1   3
ATOM      2  N   UNL     1       5.191   5.635  17.249  0.00  0.00    +0.000 N 
ATOM      3  C   UNL     1       4.337   5.853  18.315  0.00  0.00    +0.000 C 
ATOM      4  O   UNL     1       4.738   5.861  19.485  0.00  0.00    +0.000 OA
ATOM      5  H   UNL     1       4.764   5.534  16.326  0.00  0.00    +0.000 HD
BRANCH   2   6
ATOM      6  C   UNL     1       6.641   5.425  17.349  0.00  0.00    +0.000 C 
BRANCH   6   7
ATOM      7  C   UNL     1       7.439   6.712  17.580  0.00  0.00    +0.000 C 
ATOM      8  O   UNL     1       7.504   7.633  16.761  0.00  0.00    +0.000 OA
BRANCH   7  10
ATOM      9  C   UNL     1       8.056   5.500  19.488  0.00  0.00    +0.000 C 
ATOM     10  O   UNL     1       7.984   6.766  18.832  0.00  0.00    +0.000 OA
ENDBRANCH   7  10
ENDBRANCH   6   7
BRANCH   6  11
ATOM     11  C   UNL     1       7.220   4.651  16.139  0.00  0.00    +0.000 C 
BRANCH  11  12
ATOM     12  C   UNL     1       6.628   4.943  14.737  0.00  0.00    +0.000 C 
ATOM     13  C   UNL     1       7.651   5.266  13.647  0.00  0.00    +0.000 C 
ATOM     14  C   UNL     1       5.797   3.744  14.261  0.00  0.00    +0.000 C 
ENDBRANCH  11  12
ENDBRANCH   6  11
ENDBRANCH   2   6
ENDBRANCH   1   3
BRANCH   1  15
ATOM     15  N   UNL     1       2.166   7.016  18.804  0.00  0.00    +0.000 N 
ATOM     16  C   UNL     1       1.887   8.328  18.474  0.00  0.00    +0.000 C 
ATOM     17  O   UNL     1       2.356   8.883  17.490  0.00  0.00    +0.000 OA
ATOM     18  H   UNL     1       1.764   6.683  19.678  0.00  0.00    +0.000 HD
BRANCH  16  19
ATOM     19  C   UNL     1       0.941   9.092  19.464  0.00  0.00    +0.000 C 
BRANCH  19  20
ATOM     20  N   UNL     1       1.045   8.545  20.864  0.00  0.00    +0.000 NA
ATOM     21  C   UNL     1       1.622   9.538  21.784  0.00  0.00    +0.000 C 
ATOM     22  C   UNL     1      -0.280   8.189  21.409  0.00  0.00    +0.000 C 
ENDBRANCH  19  20
BRANCH  19  23
ATOM     23  C   UNL     1       1.255  10.616  19.413  0.00  0.00    +0.000 C 
BRANCH  23  24
ATOM     24  C   UNL     1       0.125  11.522  18.870  0.00  0.00    +0.000 C 
ATOM     25  C   UNL     1      -1.102  11.520  19.782  0.00  0.00    +0.000 C 
ATOM     26  C   UNL     1       0.599  12.973  18.709  0.00  0.00    +0.000 C 
ENDBRANCH  23  24
ENDBRANCH  19  23
ENDBRANCH  16  19
ENDBRANCH   1  15
BRANCH   1  27
ATOM     27  C   UNL     1       2.147   4.616  17.826  0.00  0.00    +0.000 C 
BRANCH  27  28
ATOM     28  C   UNL     1       2.162   3.804  19.119  0.00  0.00    +0.000 A 
ATOM     29  C   UNL     1       1.174   4.027  20.089  0.00  0.00    +0.000 A 
ATOM     30  C   UNL     1       1.287   3.469  21.365  0.00  0.00    +0.000 A 
ATOM     31  C   UNL     1       2.378   2.666  21.684  0.00  0.00    +0.000 A 
ATOM     32  C   UNL     1       3.325   2.371  20.712  0.00  0.00    +0.000 A 
ATOM     33  C   UNL     1       3.197   2.911  19.430  0.00  0.00    +0.000 A 
ENDBRANCH  27  28
BRANCH  27  34
ATOM     34  O   UNL     1       2.728   3.861  16.744  0.00  0.00    +0.000 OA
ATOM     35  H   UNL     1       3.358   3.238  17.144  0.00  0.00    +0.000 HD
ENDBRANCH  27  34
ENDBRANCH   1  27
TORSDOF 14
ENDMDL
MODEL 5
REMARK VINA RESULT:      -7.1      1.773      7.119
REMARK  Name = 
REMARK  21 active torsions:
REMARK  status: ('A' for Active; 'I' for Inactive)
REMARK    1  A    between atoms: C_1  and  O_2
REMARK    2  A    between atoms: O_2  and  C_3
REMARK    3  A    between atoms: C_3  and  C_5
REMARK    4  A    between atoms: C_5  and  C_6
REMARK    5  A    between atoms: C_5  and  N_10
REMARK    6  A    between atoms: C_6  and  C_7
REMARK    7  A    between atoms: C_7  and  C_8
REMARK    8  A    between atoms: C_7  and  C_9
REMARK    9  A    between atoms: C_11  and  C_13
REMARK   10  A    between atoms: C_13  and  N_14
REMARK   11  A    between atoms: C_13  and  C_25
REMARK   12  A    between atoms: C_15  and  C_17
REMARK   13  A    between atoms: C_17  and  C_18
REMARK   14  A    between atoms: C_17  and  N_22
REMARK   15  A    between atoms: C_18  and  C_19
REMARK   16  A    between atoms: C_19  and  C_20
REMARK   17  A    between atoms: C_19  and  C_21
REMARK   18  A    between atoms: N_22  and  C_23
REMARK   19  A    between atoms: N_22  and  C_24
REMARK   20  A    between atoms: C_25  and  O_26
REMARK   21  A    between atoms: C_25  and  C_27
REMARK                            x       y       z     vdW  Elec       q    Type
REMARK                         _______ _______ _______ _____ _____    ______ ____
ROOT
ATOM      1  C   UNL     1       2.581   6.132  17.925  0.00  0.00    +0.000 C 
ENDROOT
BRANCH   1   3
ATOM      2  N   UNL     1       4.935   5.677  17.254  0.00  0.00    +0.000 N 
ATOM      3  C   UNL     1       4.099   6.026  18.300  0.00  0.00    +0.000 C 
ATOM      4  O   UNL     1       4.522   6.190  19.450  0.00  0.00    +0.000 OA
ATOM      5  H   UNL     1       4.492   5.453  16.361  0.00  0.00    +0.000 HD
BRANCH   2   6
ATOM      6  C   UNL     1       6.389   5.495  17.351  0.00  0.00    +0.000 C 
BRANCH   6   7
ATOM      7  C   UNL     1       7.170   6.805  17.494  0.00  0.00    +0.000 C 
ATOM      8  O   UNL     1       6.906   7.832  16.861  0.00  0.00    +0.000 OA
BRANCH   7  10
ATOM      9  C   UNL     1       7.886   5.716  19.440  0.00  0.00    +0.000 C 
ATOM     10  O   UNL     1       8.122   6.737  18.472  0.00  0.00    +0.000 OA
ENDBRANCH   7  10
ENDBRANCH   6   7
BRANCH   6  11
ATOM     11  C   UNL     1       6.968   4.657  16.185  0.00  0.00    +0.000 C 
BRANCH  11  12
ATOM     12  C   UNL     1       6.512   5.002  14.744  0.00  0.00    +0.000 C 
ATOM     13  C   UNL     1       7.638   5.201  13.729  0.00  0.00    +0.000 C 
ATOM     14  C   UNL     1       5.588   3.898  14.210  0.00  0.00    +0.000 C 
ENDBRANCH  11  12
ENDBRANCH   6  11
ENDBRANCH   2   6
ENDBRANCH   1   3
BRANCH   1  15
ATOM     15  N   UNL     1       1.914   7.191  18.712  0.00  0.00    +0.000 N 
ATOM     16  C   UNL     1       1.706   8.494  18.304  0.00  0.00    +0.000 C 
ATOM     17  O   UNL     1       2.249   8.980  17.321  0.00  0.00    +0.000 OA
ATOM     18  H   UNL     1       1.453   6.919  19.578  0.00  0.00    +0.000 HD
BRANCH  16  19
ATOM     19  C   UNL     1       0.740   9.343  19.200  0.00  0.00    +0.000 C 
BRANCH  19  20
ATOM     20  N   UNL     1       1.476  10.003  20.338  0.00  0.00    +0.000 NA
ATOM     21  C   UNL     1       1.095  11.418  20.471  0.00  0.00    +0.000 C 
ATOM     22  C   UNL     1       1.167   9.361  21.631  0.00  0.00    +0.000 C 
ENDBRANCH  19  20
BRANCH  19  23
ATOM     23  C   UNL     1      -0.012  10.382  18.317  0.00  0.00    +0.000 C 
BRANCH  23  24
ATOM     24  C   UNL     1      -1.551  10.239  18.267  0.00  0.00    +0.000 C 
ATOM     25  C   UNL     1      -2.262  11.523  18.697  0.00  0.00    +0.000 C 
ATOM     26  C   UNL     1      -2.035   9.874  16.857  0.00  0.00    +0.000 C 
ENDBRANCH  23  24
ENDBRANCH  19  23
ENDBRANCH  16  19
ENDBRANCH   1  15
BRANCH   1  27
ATOM     27  C   UNL     1       1.927   4.708  17.971  0.00  0.00    +0.000 C 
BRANCH  27  28
ATOM     28  C   UNL     1       2.104   3.965  19.293  0.00  0.00    +0.000 A 
ATOM     29  C   UNL     1       3.187   3.088  19.455  0.00  0.00    +0.000 A 
ATOM     30  C   UNL     1       3.253   2.231  20.557  0.00  0.00    +0.000 A 
ATOM     31  C   UNL     1       2.248   2.250  21.519  0.00  0.00    +0.000 A 
ATOM     32  C   UNL     1       1.209   3.165  21.414  0.00  0.00    +0.000 A 
ATOM     33  C   UNL     1       1.158   4.037  20.325  0.00  0.00    +0.000 A 
ENDBRANCH  27  28
BRANCH  27  34
ATOM     34  O   UNL     1       2.401   3.907  16.870  0.00  0.00    +0.000 OA
ATOM     35  H   UNL     1       2.917   4.497  16.296  0.00  0.00    +0.000 HD
ENDBRANCH  27  34
ENDBRANCH   1  27
TORSDOF 14
ENDMDL
MODEL 6
REMARK VINA RESULT:      -7.1      0.696      1.228
REMARK  Name = 
REMARK  21 active torsions:
REMARK  status: ('A' for Active; 'I' for Inactive)
REMARK    1  A    between atoms: C_1  and  O_2
REMARK    2  A    between atoms: O_2  and  C_3
REMARK    3  A    between atoms: C_3  and  C_5
REMARK    4  A    between atoms: C_5  and  C_6
REMARK    5  A    between atoms: C_5  and  N_10
REMARK    6  A    between atoms: C_6  and  C_7
REMARK    7  A    between atoms: C_7  and  C_8
REMARK    8  A    between atoms: C_7  and  C_9
REMARK    9  A    between atoms: C_11  and  C_13
REMARK   10  A    between atoms: C_13  and  N_14
REMARK   11  A    between atoms: C_13  and  C_25
REMARK   12  A    between atoms: C_15  and  C_17
REMARK   13  A    between atoms: C_17  and  C_18
REMARK   14  A    between atoms: C_17  and  N_22
REMARK   15  A    between atoms: C_18  and  C_19
REMARK   16  A    between atoms: C_19  and  C_20
REMARK   17  A    between atoms: C_19  and  C_21
REMARK   18  A    between atoms: N_22  and  C_23
REMARK   19  A    between atoms: N_22  and  C_24
REMARK   20  A    between atoms: C_25  and  O_26
REMARK   21  A    between atoms: C_25  and  C_27
REMARK                            x       y       z     vdW  Elec       q    Type
REMARK                         _______ _______ _______ _____ _____    ______ ____
ROOT
ATOM      1  C   UNL     1       3.050   6.710  18.668  0.00  0.00    +0.000 C 
ENDROOT
BRANCH   1   3
ATOM      2  N   UNL     1       1.665   8.497  19.710  0.00  0.00    +0.000 N 
ATOM      3  C   UNL     1       2.295   8.079  18.552  0.00  0.00    +0.000 C 
ATOM      4  O   UNL     1       2.220   8.720  17.498  0.00  0.00    +0.000 OA
ATOM      5  H   UNL     1       1.684   7.857  20.507  0.00  0.00    +0.000 HD
BRANCH   2   6
ATOM      6  C   UNL     1       0.879   9.730  19.855  0.00  0.00    +0.000 C 
BRANCH   6   7
ATOM      7  C   UNL     1       1.004  10.387  21.233  0.00  0.00    +0.000 C 
ATOM      8  O   UNL     1       1.019   9.755  22.294  0.00  0.00    +0.000 OA
BRANCH   7  10
ATOM      9  C   UNL     1       0.116  12.512  21.664  0.00  0.00    +0.000 C 
ATOM     10  O   UNL     1       1.198  11.737  21.148  0.00  0.00    +0.000 OA
ENDBRANCH   7  10
ENDBRANCH   6   7
BRANCH   6  11
ATOM     11  C   UNL     1      -0.614   9.536  19.493  0.00  0.00    +0.000 C 
BRANCH  11  12
ATOM     12  C   UNL     1      -1.279  10.580  18.561  0.00  0.00    +0.000 C 
ATOM     13  C   UNL     1      -0.403  11.774  18.180  0.00  0.00    +0.000 C 
ATOM     14  C   UNL     1      -1.741   9.903  17.263  0.00  0.00    +0.000 C 
ENDBRANCH  11  12
ENDBRANCH   6  11
ENDBRANCH   2   6
ENDBRANCH   1   3
BRANCH   1  15
ATOM     15  N   UNL     1       4.324   6.744  17.919  0.00  0.00    +0.000 N 
ATOM     16  C   UNL     1       5.392   5.886  18.100  0.00  0.00    +0.000 C 
ATOM     17  O   UNL     1       5.487   5.132  19.058  0.00  0.00    +0.000 OA
ATOM     18  H   UNL     1       4.386   7.366  17.116  0.00  0.00    +0.000 HD
BRANCH  16  19
ATOM     19  C   UNL     1       6.512   5.952  17.004  0.00  0.00    +0.000 C 
BRANCH  19  20
ATOM     20  N   UNL     1       7.733   6.679  17.503  0.00  0.00    +0.000 NA
ATOM     21  C   UNL     1       7.519   8.135  17.515  0.00  0.00    +0.000 C 
ATOM     22  C   UNL     1       8.068   6.294  18.888  0.00  0.00    +0.000 C 
ENDBRANCH  19  20
BRANCH  19  23
ATOM     23  C   UNL     1       6.852   4.512  16.520  0.00  0.00    +0.000 C 
BRANCH  23  24
ATOM     24  C   UNL     1       6.561   4.212  15.031  0.00  0.00    +0.000 C 
ATOM     25  C   UNL     1       5.087   4.415  14.680  0.00  0.00    +0.000 C 
ATOM     26  C   UNL     1       7.401   5.104  14.106  0.00  0.00    +0.000 C 
ENDBRANCH  23  24
ENDBRANCH  19  23
ENDBRANCH  16  19
ENDBRANCH   1  15
BRANCH   1  27
ATOM     27  C   UNL     1       2.067   5.537  18.326  0.00  0.00    +0.000 C 
BRANCH  27  28
ATOM     28  C   UNL     1       1.771   4.593  19.489  0.00  0.00    +0.000 A 
ATOM     29  C   UNL     1       2.355   4.831  20.742  0.00  0.00    +0.000 A 
ATOM     30  C   UNL     1       2.288   3.872  21.755  0.00  0.00    +0.000 A 
ATOM     31  C   UNL     1       1.621   2.669  21.538  0.00  0.00    +0.000 A 
ATOM     32  C   UNL     1       0.971   2.450  20.331  0.00  0.00    +0.000 A 
ATOM     33  C   UNL     1       1.021   3.420  19.328  0.00  0.00    +0.000 A 
ENDBRANCH  27  28
BRANCH  27  34
ATOM     34  O   UNL     1       2.549   4.802  17.184  0.00  0.00    +0.000 OA
ATOM     35  H   UNL     1       2.014   3.992  17.126  0.00  0.00    +0.000 HD
ENDBRANCH  27  34
ENDBRANCH   1  27
TORSDOF 14
ENDMDL
MODEL 7
REMARK VINA RESULT:      -7.1      0.985      2.498
REMARK  Name = 
REMARK  21 active torsions:
REMARK  status: ('A' for Active; 'I' for Inactive)
REMARK    1  A    between atoms: C_1  and  O_2
REMARK    2  A    between atoms: O_2  and  C_3
REMARK    3  A    between atoms: C_3  and  C_5
REMARK    4  A    between atoms: C_5  and  C_6
REMARK    5  A    between atoms: C_5  and  N_10
REMARK    6  A    between atoms: C_6  and  C_7
REMARK    7  A    between atoms: C_7  and  C_8
REMARK    8  A    between atoms: C_7  and  C_9
REMARK    9  A    between atoms: C_11  and  C_13
REMARK   10  A    between atoms: C_13  and  N_14
REMARK   11  A    between atoms: C_13  and  C_25
REMARK   12  A    between atoms: C_15  and  C_17
REMARK   13  A    between atoms: C_17  and  C_18
REMARK   14  A    between atoms: C_17  and  N_22
REMARK   15  A    between atoms: C_18  and  C_19
REMARK   16  A    between atoms: C_19  and  C_20
REMARK   17  A    between atoms: C_19  and  C_21
REMARK   18  A    between atoms: N_22  and  C_23
REMARK   19  A    between atoms: N_22  and  C_24
REMARK   20  A    between atoms: C_25  and  O_26
REMARK   21  A    between atoms: C_25  and  C_27
REMARK                            x       y       z     vdW  Elec       q    Type
REMARK                         _______ _______ _______ _____ _____    ______ ____
ROOT
ATOM      1  C   UNL     1       2.736   6.900  18.863  0.00  0.00    +0.000 C 
ENDROOT
BRANCH   1   3
ATOM      2  N   UNL     1       1.401   8.836  19.680  0.00  0.00    +0.000 N 
ATOM      3  C   UNL     1       2.091   8.305  18.605  0.00  0.00    +0.000 C 
ATOM      4  O   UNL     1       2.148   8.882  17.513  0.00  0.00    +0.000 OA
ATOM      5  H   UNL     1       1.310   8.247  20.510  0.00  0.00    +0.000 HD
BRANCH   2   6
ATOM      6  C   UNL     1       0.695  10.124  19.686  0.00  0.00    +0.000 C 
BRANCH   6   7
ATOM      7  C   UNL     1       0.376  10.649  21.090  0.00  0.00    +0.000 C 
ATOM      8  O   UNL     1       0.757  11.745  21.514  0.00  0.00    +0.000 OA
BRANCH   7  10
ATOM      9  C   UNL     1      -0.126   9.669  23.157  0.00  0.00    +0.000 C 
ATOM     10  O   UNL     1      -0.460   9.815  21.777  0.00  0.00    +0.000 OA
ENDBRANCH   7  10
ENDBRANCH   6   7
BRANCH   6  11
ATOM     11  C   UNL     1      -0.588  10.110  18.821  0.00  0.00    +0.000 C 
BRANCH  11  12
ATOM     12  C   UNL     1      -1.489  11.371  18.833  0.00  0.00    +0.000 C 
ATOM     13  C   UNL     1      -0.859  12.635  18.248  0.00  0.00    +0.000 C 
ATOM     14  C   UNL     1      -2.787  11.093  18.063  0.00  0.00    +0.000 C 
ENDBRANCH  11  12
ENDBRANCH   6  11
ENDBRANCH   2   6
ENDBRANCH   1   3
BRANCH   1  15
ATOM     15  N   UNL     1       3.980   6.736  18.082  0.00  0.00    +0.000 N 
ATOM     16  C   UNL     1       5.009   5.862  18.372  0.00  0.00    +0.000 C 
ATOM     17  O   UNL     1       5.103   5.273  19.441  0.00  0.00    +0.000 OA
ATOM     18  H   UNL     1       4.042   7.211  17.183  0.00  0.00    +0.000 HD
BRANCH  16  19
ATOM     19  C   UNL     1       6.088   5.681  17.248  0.00  0.00    +0.000 C 
BRANCH  19  20
ATOM     20  N   UNL     1       5.535   4.928  16.066  0.00  0.00    +0.000 NA
ATOM     21  C   UNL     1       6.610   4.496  15.159  0.00  0.00    +0.000 C 
ATOM     22  C   UNL     1       4.822   3.705  16.485  0.00  0.00    +0.000 C 
ENDBRANCH  19  20
BRANCH  19  23
ATOM     23  C   UNL     1       6.649   7.074  16.837  0.00  0.00    +0.000 C 
BRANCH  23  24
ATOM     24  C   UNL     1       7.963   7.505  17.530  0.00  0.00    +0.000 C 
ATOM     25  C   UNL     1       7.972   8.997  17.868  0.00  0.00    +0.000 C 
ATOM     26  C   UNL     1       8.196   6.720  18.828  0.00  0.00    +0.000 C 
ENDBRANCH  23  24
ENDBRANCH  19  23
ENDBRANCH  16  19
ENDBRANCH   1  15
BRANCH   1  27
ATOM     27  C   UNL     1       1.648   5.783  18.690  0.00  0.00    +0.000 C 
BRANCH  27  28
ATOM     28  C   UNL     1       1.832   4.566  19.593  0.00  0.00    +0.000 A 
ATOM     29  C   UNL     1       1.569   3.283  19.090  0.00  0.00    +0.000 A 
ATOM     30  C   UNL     1       1.509   2.180  19.945  0.00  0.00    +0.000 A 
ATOM     31  C   UNL     1       1.728   2.339  21.310  0.00  0.00    +0.000 A 
ATOM     32  C   UNL     1       2.066   3.588  21.813  0.00  0.00    +0.000 A 
ATOM     33  C   UNL     1       2.148   4.685  20.953  0.00  0.00    +0.000 A 
ENDBRANCH  27  28
BRANCH  27  34
ATOM     34  O   UNL     1       1.563   5.382  17.308  0.00  0.00    +0.000 OA
ATOM     35  H   UNL     1       2.070   4.557  17.224  0.00  0.00    +0.000 HD
ENDBRANCH  27  34
ENDBRANCH   1  27
TORSDOF 14
ENDMDL
MODEL 8
REMARK VINA RESULT:      -7.0      1.859      7.377
REMARK  Name = 
REMARK  21 active torsions:
REMARK  status: ('A' for Active; 'I' for Inactive)
REMARK    1  A    between atoms: C_1  and  O_2
REMARK    2  A    between atoms: O_2  and  C_3
REMARK    3  A    between atoms: C_3  and  C_5
REMARK    4  A    between atoms: C_5  and  C_6
REMARK    5  A    between atoms: C_5  and  N_10
REMARK    6  A    between atoms: C_6  and  C_7
REMARK    7  A    between atoms: C_7  and  C_8
REMARK    8  A    between atoms: C_7  and  C_9
REMARK    9  A    between atoms: C_11  and  C_13
REMARK   10  A    between atoms: C_13  and  N_14
REMARK   11  A    between atoms: C_13  and  C_25
REMARK   12  A    between atoms: C_15  and  C_17
REMARK   13  A    between atoms: C_17  and  C_18
REMARK   14  A    between atoms: C_17  and  N_22
REMARK   15  A    between atoms: C_18  and  C_19
REMARK   16  A    between atoms: C_19  and  C_20
REMARK   17  A    between atoms: C_19  and  C_21
REMARK   18  A    between atoms: N_22  and  C_23
REMARK   19  A    between atoms: N_22  and  C_24
REMARK   20  A    between atoms: C_25  and  O_26
REMARK   21  A    between atoms: C_25  and  C_27
REMARK                            x       y       z     vdW  Elec       q    Type
REMARK                         _______ _______ _______ _____ _____    ______ ____
ROOT
ATOM      1  C   UNL     1       2.363   7.382  18.752  0.00  0.00    +0.000 C 
ENDROOT
BRANCH   1   3
ATOM      2  N   UNL     1       4.559   6.406  18.097  0.00  0.00    +0.000 N 
ATOM      3  C   UNL     1       3.562   7.298  17.745  0.00  0.00    +0.000 C 
ATOM      4  O   UNL     1       3.644   8.007  16.735  0.00  0.00    +0.000 OA
ATOM      5  H   UNL     1       4.465   5.940  19.002  0.00  0.00    +0.000 HD
BRANCH   2   6
ATOM      6  C   UNL     1       5.789   6.159  17.334  0.00  0.00    +0.000 C 
BRANCH   6   7
ATOM      7  C   UNL     1       6.911   7.161  17.625  0.00  0.00    +0.000 C 
ATOM      8  O   UNL     1       6.971   8.286  17.121  0.00  0.00    +0.000 OA
BRANCH   7  10
ATOM      9  C   UNL     1       7.845   5.284  18.670  0.00  0.00    +0.000 C 
ATOM     10  O   UNL     1       7.776   6.707  18.580  0.00  0.00    +0.000 OA
ENDBRANCH   7  10
ENDBRANCH   6   7
BRANCH   6  11
ATOM     11  C   UNL     1       5.541   6.068  15.809  0.00  0.00    +0.000 C 
BRANCH  11  12
ATOM     12  C   UNL     1       5.257   4.671  15.199  0.00  0.00    +0.000 C 
ATOM     13  C   UNL     1       6.213   4.232  14.090  0.00  0.00    +0.000 C 
ATOM     14  C   UNL     1       5.292   3.604  16.301  0.00  0.00    +0.000 C 
ENDBRANCH  11  12
ENDBRANCH   6  11
ENDBRANCH   2   6
ENDBRANCH   1   3
BRANCH   1  15
ATOM     15  N   UNL     1       2.117   8.779  19.166  0.00  0.00    +0.000 N 
ATOM     16  C   UNL     1       1.104   9.595  18.700  0.00  0.00    +0.000 C 
ATOM     17  O   UNL     1       0.423   9.321  17.722  0.00  0.00    +0.000 OA
ATOM     18  H   UNL     1       2.653   9.143  19.952  0.00  0.00    +0.000 HD
BRANCH  16  19
ATOM     19  C   UNL     1       0.889  10.932  19.490  0.00  0.00    +0.000 C 
BRANCH  19  20
ATOM     20  N   UNL     1       0.814  12.118  18.563  0.00  0.00    +0.000 NA
ATOM     21  C   UNL     1      -0.334  12.979  18.891  0.00  0.00    +0.000 C 
ATOM     22  C   UNL     1       2.018  12.966  18.666  0.00  0.00    +0.000 C 
ENDBRANCH  19  20
BRANCH  19  23
ATOM     23  C   UNL     1      -0.383  10.812  20.381  0.00  0.00    +0.000 C 
BRANCH  23  24
ATOM     24  C   UNL     1      -0.140  10.799  21.908  0.00  0.00    +0.000 C 
ATOM     25  C   UNL     1      -1.204  11.594  22.667  0.00  0.00    +0.000 C 
ATOM     26  C   UNL     1      -0.128   9.368  22.462  0.00  0.00    +0.000 C 
ENDBRANCH  23  24
ENDBRANCH  19  23
ENDBRANCH  16  19
ENDBRANCH   1  15
BRANCH   1  27
ATOM     27  C   UNL     1       2.568   6.335  19.901  0.00  0.00    +0.000 C 
BRANCH  27  28
ATOM     28  C   UNL     1       2.053   4.933  19.588  0.00  0.00    +0.000 A 
ATOM     29  C   UNL     1       1.946   4.516  18.253  0.00  0.00    +0.000 A 
ATOM     30  C   UNL     1       1.274   3.336  17.926  0.00  0.00    +0.000 A 
ATOM     31  C   UNL     1       0.714   2.547  18.927  0.00  0.00    +0.000 A 
ATOM     32  C   UNL     1       0.879   2.905  20.259  0.00  0.00    +0.000 A 
ATOM     33  C   UNL     1       1.572   4.073  20.585  0.00  0.00    +0.000 A 
ENDBRANCH  27  28
BRANCH  27  34
ATOM     34  O   UNL     1       1.993   6.826  21.129  0.00  0.00    +0.000 OA
ATOM     35  H   UNL     1       1.398   6.132  21.456  0.00  0.00    +0.000 HD
ENDBRANCH  27  34
ENDBRANCH   1  27
TORSDOF 14
ENDMDL
MODEL 9
REMARK VINA RESULT:      -7.0      1.809      2.721
REMARK  Name = 
REMARK  21 active torsions:
REMARK  status: ('A' for Active; 'I' for Inactive)
REMARK    1  A    between atoms: C_1  and  O_2
REMARK    2  A    between atoms: O_2  and  C_3
REMARK    3  A    between atoms: C_3  and  C_5
REMARK    4  A    between atoms: C_5  and  C_6
REMARK    5  A    between atoms: C_5  and  N_10
REMARK    6  A    between atoms: C_6  and  C_7
REMARK    7  A    between atoms: C_7  and  C_8
REMARK    8  A    between atoms: C_7  and  C_9
REMARK    9  A    between atoms: C_11  and  C_13
REMARK   10  A    between atoms: C_13  and  N_14
REMARK   11  A    between atoms: C_13  and  C_25
REMARK   12  A    between atoms: C_15  and  C_17
REMARK   13  A    between atoms: C_17  and  C_18
REMARK   14  A    between atoms: C_17  and  N_22
REMARK   15  A    between atoms: C_18  and  C_19
REMARK   16  A    between atoms: C_19  and  C_20
REMARK   17  A    between atoms: C_19  and  C_21
REMARK   18  A    between atoms: N_22  and  C_23
REMARK   19  A    between atoms: N_22  and  C_24
REMARK   20  A    between atoms: C_25  and  O_26
REMARK   21  A    between atoms: C_25  and  C_27
REMARK                            x       y       z     vdW  Elec       q    Type
REMARK                         _______ _______ _______ _____ _____    ______ ____
ROOT
ATOM      1  C   UNL     1       2.640   7.301  19.356  0.00  0.00    +0.000 C 
ENDROOT
BRANCH   1   3
ATOM      2  N   UNL     1       1.395   9.443  19.609  0.00  0.00    +0.000 N 
ATOM      3  C   UNL     1       1.769   8.444  18.728  0.00  0.00    +0.000 C 
ATOM      4  O   UNL     1       1.398   8.438  17.549  0.00  0.00    +0.000 OA
ATOM      5  H   UNL     1       1.652   9.317  20.590  0.00  0.00    +0.000 HD
BRANCH   2   6
ATOM      6  C   UNL     1       0.567  10.608  19.273  0.00  0.00    +0.000 C 
BRANCH   6   7
ATOM      7  C   UNL     1       0.724  11.781  20.245  0.00  0.00    +0.000 C 
ATOM      8  O   UNL     1       1.534  11.795  21.176  0.00  0.00    +0.000 OA
BRANCH   7  10
ATOM      9  C   UNL     1      -0.597  13.554  21.020  0.00  0.00    +0.000 C 
ATOM     10  O   UNL     1      -0.060  12.847  19.903  0.00  0.00    +0.000 OA
ENDBRANCH   7  10
ENDBRANCH   6   7
BRANCH   6  11
ATOM     11  C   UNL     1      -0.931  10.252  19.108  0.00  0.00    +0.000 C 
BRANCH  11  12
ATOM     12  C   UNL     1      -1.690  10.840  17.891  0.00  0.00    +0.000 C 
ATOM     13  C   UNL     1      -2.081   9.830  16.811  0.00  0.00    +0.000 C 
ATOM     14  C   UNL     1      -2.969  11.543  18.363  0.00  0.00    +0.000 C 
ENDBRANCH  11  12
ENDBRANCH   6  11
ENDBRANCH   2   6
ENDBRANCH   1   3
BRANCH   1  15
ATOM     15  N   UNL     1       3.054   6.325  18.326  0.00  0.00    +0.000 N 
ATOM     16  C   UNL     1       4.272   6.301  17.675  0.00  0.00    +0.000 C 
ATOM     17  O   UNL     1       5.072   7.226  17.723  0.00  0.00    +0.000 OA
ATOM     18  H   UNL     1       2.449   5.522  18.163  0.00  0.00    +0.000 HD
BRANCH  16  19
ATOM     19  C   UNL     1       4.570   5.013  16.833  0.00  0.00    +0.000 C 
BRANCH  19  20
ATOM     20  N   UNL     1       5.765   5.203  15.934  0.00  0.00    +0.000 NA
ATOM     21  C   UNL     1       6.969   4.581  16.509  0.00  0.00    +0.000 C 
ATOM     22  C   UNL     1       5.558   4.575  14.614  0.00  0.00    +0.000 C 
ENDBRANCH  19  20
BRANCH  19  23
ATOM     23  C   UNL     1       4.751   3.797  17.787  0.00  0.00    +0.000 C 
BRANCH  23  24
ATOM     24  C   UNL     1       3.476   2.971  18.080  0.00  0.00    +0.000 C 
ATOM     25  C   UNL     1       2.415   3.145  16.992  0.00  0.00    +0.000 C 
ATOM     26  C   UNL     1       3.793   1.475  18.204  0.00  0.00    +0.000 C 
ENDBRANCH  23  24
ENDBRANCH  19  23
ENDBRANCH  16  19
ENDBRANCH   1  15
BRANCH   1  27
ATOM     27  C   UNL     1       1.916   6.722  20.620  0.00  0.00    +0.000 C 
BRANCH  27  28
ATOM     28  C   UNL     1       1.830   5.199  20.666  0.00  0.00    +0.000 A 
ATOM     29  C   UNL     1       0.768   4.545  20.024  0.00  0.00    +0.000 A 
ATOM     30  C   UNL     1       0.537   3.183  20.233  0.00  0.00    +0.000 A 
ATOM     31  C   UNL     1       1.372   2.452  21.073  0.00  0.00    +0.000 A 
ATOM     32  C   UNL     1       2.473   3.066  21.655  0.00  0.00    +0.000 A 
ATOM     33  C   UNL     1       2.716   4.421  21.425  0.00  0.00    +0.000 A 
ENDBRANCH  27  28
BRANCH  27  34
ATOM     34  O   UNL     1       0.606   7.309  20.755  0.00  0.00    +0.000 OA
ATOM     35  H   UNL     1       0.062   6.948  20.036  0.00  0.00    +0.000 HD
ENDBRANCH  27  34
ENDBRANCH   1  27
TORSDOF 14
ENDMDL
