MODEL 1
REMARK VINA RESULT:      -7.5      0.000      0.000
REMARK  Name = 
REMARK  4 active torsions:
REMARK  status: ('A' for Active; 'I' for Inactive)
REMARK    1  A    between atoms: C_1  and  C_2
REMARK    2  A    between atoms: C_6  and  O_7
REMARK    3  A    between atoms: O_7  and  C_8
REMARK    4  A    between atoms: C_13  and  N_14
REMARK                            x       y       z     vdW  Elec       q    Type
REMARK                         _______ _______ _______ _____ _____    ______ ____
ROOT
ATOM      1  C   UNL     1       3.491   4.275  19.718  0.00  0.00    +0.000 A 
ATOM      2  C   UNL     1       2.563   5.232  20.149  0.00  0.00    +0.000 A 
ATOM      3  C   UNL     1       1.272   4.853  20.532  0.00  0.00    +0.000 A 
ATOM      4  C   UNL     1       0.906   3.508  20.542  0.00  0.00    +0.000 A 
ATOM      5  C   UNL     1       1.840   2.532  20.196  0.00  0.00    +0.000 A 
ATOM      6  C   UNL     1       3.124   2.928  19.792  0.00  0.00    +0.000 A 
ENDROOT
BRANCH   6   7
ATOM      7  N   UNL     1       4.084   1.887  19.481  0.00  0.00    +0.000 N 
ATOM      8  O   UNL     1       3.881   1.206  18.467  0.00  0.00    +0.000 OA
ATOM      9  O   UNL     1       5.010   1.717  20.287  0.00  0.00    +0.000 OA
ENDBRANCH   6   7
BRANCH   1  10
ATOM     10  O   UNL     1       4.762   4.611  19.306  0.00  0.00    +0.000 OA
BRANCH  10  16
ATOM     11  C   UNL     1       6.075   3.797  14.585  0.00  0.00    +0.000 C 
ATOM     12  C   UNL     1       5.595   4.704  15.680  0.00  0.00    +0.000 A 
ATOM     13  C   UNL     1       5.289   6.045  15.422  0.00  0.00    +0.000 A 
ATOM     14  C   UNL     1       4.851   6.879  16.453  0.00  0.00    +0.000 A 
ATOM     15  C   UNL     1       4.690   6.373  17.744  0.00  0.00    +0.000 A 
ATOM     16  C   UNL     1       4.962   5.031  18.008  0.00  0.00    +0.000 A 
ATOM     17  C   UNL     1       5.458   4.211  16.985  0.00  0.00    +0.000 A 
ENDBRANCH  10  16
ENDBRANCH   1  10
TORSDOF 3
ENDMDL
MODEL 2
REMARK VINA RESULT:      -7.1      2.071      5.430
REMARK  Name = 
REMARK  4 active torsions:
REMARK  status: ('A' for Active; 'I' for Inactive)
REMARK    1  A    between atoms: C_1  and  C_2
REMARK    2  A    between atoms: C_6  and  O_7
REMARK    3  A    between atoms: O_7  and  C_8
REMARK    4  A    between atoms: C_13  and  N_14
REMARK                            x       y       z     vdW  Elec       q    Type
REMARK                         _______ _______ _______ _____ _____    ______ ____
ROOT
ATOM      1  C   UNL     1       5.701   4.400  17.722  0.00  0.00    +0.000 A 
ATOM      2  C   UNL     1       4.956   3.845  16.672  0.00  0.00    +0.000 A 
ATOM      3  C   UNL     1       5.236   4.182  15.344  0.00  0.00    +0.000 A 
ATOM      4  C   UNL     1       6.297   5.034  15.040  0.00  0.00    +0.000 A 
ATOM      5  C   UNL     1       7.101   5.531  16.064  0.00  0.00    +0.000 A 
ATOM      6  C   UNL     1       6.796   5.205  17.394  0.00  0.00    +0.000 A 
ENDROOT
BRANCH   6   7
ATOM      7  N   UNL     1       7.679   5.703  18.430  0.00  0.00    +0.000 N 
ATOM      8  O   UNL     1       7.876   6.924  18.475  0.00  0.00    +0.000 OA
ATOM      9  O   UNL     1       8.218   4.861  19.161  0.00  0.00    +0.000 OA
ENDBRANCH   6   7
BRANCH   1  10
ATOM     10  O   UNL     1       5.439   4.117  19.044  0.00  0.00    +0.000 OA
BRANCH  10  16
ATOM     11  C   UNL     1       1.310   2.727  21.430  0.00  0.00    +0.000 C 
ATOM     12  C   UNL     1       2.131   3.756  20.710  0.00  0.00    +0.000 A 
ATOM     13  C   UNL     1       1.664   5.065  20.548  0.00  0.00    +0.000 A 
ATOM     14  C   UNL     1       2.436   6.011  19.870  0.00  0.00    +0.000 A 
ATOM     15  C   UNL     1       3.692   5.663  19.372  0.00  0.00    +0.000 A 
ATOM     16  C   UNL     1       4.183   4.370  19.554  0.00  0.00    +0.000 A 
ATOM     17  C   UNL     1       3.382   3.408  20.183  0.00  0.00    +0.000 A 
ENDBRANCH  10  16
ENDBRANCH   1  10
TORSDOF 3
ENDMDL
MODEL 3
REMARK VINA RESULT:      -7.1      2.163      3.062
REMARK  Name = 
REMARK  4 active torsions:
REMARK  status: ('A' for Active; 'I' for Inactive)
REMARK    1  A    between atoms: C_1  and  C_2
REMARK    2  A    between atoms: C_6  and  O_7
REMARK    3  A    between atoms: O_7  and  C_8
REMARK    4  A    between atoms: C_13  and  N_14
REMARK                            x       y       z     vdW  Elec       q    Type
REMARK                         _______ _______ _______ _____ _____    ______ ____
ROOT
ATOM      1  C   UNL     1       3.318   3.222  19.062  0.00  0.00    +0.000 A 
ATOM      2  C   UNL     1       3.614   2.437  20.185  0.00  0.00    +0.000 A 
ATOM      3  C   UNL     1       2.905   2.604  21.379  0.00  0.00    +0.000 A 
ATOM      4  C   UNL     1       1.854   3.518  21.454  0.00  0.00    +0.000 A 
ATOM      5  C   UNL     1       1.490   4.250  20.325  0.00  0.00    +0.000 A 
ATOM      6  C   UNL     1       2.224   4.090  19.140  0.00  0.00    +0.000 A 
ENDROOT
BRANCH   6   7
ATOM      7  N   UNL     1       1.791   4.833  17.973  0.00  0.00    +0.000 N 
ATOM      8  O   UNL     1       2.159   6.011  17.877  0.00  0.00    +0.000 OA
ATOM      9  O   UNL     1       1.034   4.249  17.185  0.00  0.00    +0.000 OA
ENDBRANCH   6   7
BRANCH   1  10
ATOM     10  O   UNL     1       4.011   3.109  17.878  0.00  0.00    +0.000 OA
BRANCH  10  16
ATOM     11  C   UNL     1       7.876   5.989  19.080  0.00  0.00    +0.000 C 
ATOM     12  C   UNL     1       6.869   5.483  18.088  0.00  0.00    +0.000 A 
ATOM     13  C   UNL     1       6.885   5.920  16.759  0.00  0.00    +0.000 A 
ATOM     14  C   UNL     1       5.938   5.446  15.849  0.00  0.00    +0.000 A 
ATOM     15  C   UNL     1       4.984   4.510  16.254  0.00  0.00    +0.000 A 
ATOM     16  C   UNL     1       4.977   4.043  17.568  0.00  0.00    +0.000 A 
ATOM     17  C   UNL     1       5.890   4.565  18.493  0.00  0.00    +0.000 A 
ENDBRANCH  10  16
ENDBRANCH   1  10
TORSDOF 3
ENDMDL
MODEL 4
REMARK VINA RESULT:      -7.0      2.210      5.282
REMARK  Name = 
REMARK  4 active torsions:
REMARK  status: ('A' for Active; 'I' for Inactive)
REMARK    1  A    between atoms: C_1  and  C_2
REMARK    2  A    between atoms: C_6  and  O_7
REMARK    3  A    between atoms: O_7  and  C_8
REMARK    4  A    between atoms: C_13  and  N_14
REMARK                            x       y       z     vdW  Elec       q    Type
REMARK                         _______ _______ _______ _____ _____    ______ ____
ROOT
ATOM      1  C   UNL     1       5.528   4.971  18.218  0.00  0.00    +0.000 A 
ATOM      2  C   UNL     1       4.438   5.617  17.617  0.00  0.00    +0.000 A 
ATOM      3  C   UNL     1       4.598   6.861  17.000  0.00  0.00    +0.000 A 
ATOM      4  C   UNL     1       5.858   7.455  16.926  0.00  0.00    +0.000 A 
ATOM      5  C   UNL     1       6.969   6.792  17.445  0.00  0.00    +0.000 A 
ATOM      6  C   UNL     1       6.791   5.555  18.082  0.00  0.00    +0.000 A 
ENDROOT
BRANCH   6   7
ATOM      7  N   UNL     1       7.972   4.872  18.571  0.00  0.00    +0.000 N 
ATOM      8  O   UNL     1       8.519   4.061  17.813  0.00  0.00    +0.000 OA
ATOM      9  O   UNL     1       8.316   5.110  19.738  0.00  0.00    +0.000 OA
ENDBRANCH   6   7
BRANCH   1  10
ATOM     10  O   UNL     1       5.406   3.759  18.861  0.00  0.00    +0.000 OA
BRANCH  10  16
ATOM     11  C   UNL     1       1.351   2.792  21.562  0.00  0.00    +0.000 C 
ATOM     12  C   UNL     1       2.141   2.688  20.290  0.00  0.00    +0.000 A 
ATOM     13  C   UNL     1       1.618   2.035  19.169  0.00  0.00    +0.000 A 
ATOM     14  C   UNL     1       2.368   1.941  17.994  0.00  0.00    +0.000 A 
ATOM     15  C   UNL     1       3.635   2.522  17.923  0.00  0.00    +0.000 A 
ATOM     16  C   UNL     1       4.155   3.202  19.023  0.00  0.00    +0.000 A 
ATOM     17  C   UNL     1       3.426   3.245  20.218  0.00  0.00    +0.000 A 
ENDBRANCH  10  16
ENDBRANCH   1  10
TORSDOF 3
ENDMDL
MODEL 5
REMARK VINA RESULT:      -7.0      2.608      4.377
REMARK  Name = 
REMARK  4 active torsions:
REMARK  status: ('A' for Active; 'I' for Inactive)
REMARK    1  A    between atoms: C_1  and  C_2
REMARK    2  A    between atoms: C_6  and  O_7
REMARK    3  A    between atoms: O_7  and  C_8
REMARK    4  A    between atoms: C_13  and  N_14
REMARK                            x       y       z     vdW  Elec       q    Type
REMARK                         _______ _______ _______ _____ _____    ______ ____
ROOT
ATOM      1  C   UNL     1       2.497   4.571  19.590  0.00  0.00    +0.000 A 
ATOM      2  C   UNL     1       1.235   4.160  20.041  0.00  0.00    +0.000 A 
ATOM      3  C   UNL     1       0.681   2.952  19.609  0.00  0.00    +0.000 A 
ATOM      4  C   UNL     1       1.400   2.109  18.762  0.00  0.00    +0.000 A 
ATOM      5  C   UNL     1       2.689   2.459  18.366  0.00  0.00    +0.000 A 
ATOM      6  C   UNL     1       3.225   3.685  18.789  0.00  0.00    +0.000 A 
ENDROOT
BRANCH   6   7
ATOM      7  N   UNL     1       4.585   3.998  18.395  0.00  0.00    +0.000 N 
ATOM      8  O   UNL     1       5.486   3.755  19.209  0.00  0.00    +0.000 OA
ATOM      9  O   UNL     1       4.740   4.541  17.293  0.00  0.00    +0.000 OA
ENDBRANCH   6   7
BRANCH   1  10
ATOM     10  O   UNL     1       3.066   5.766  19.969  0.00  0.00    +0.000 OA
BRANCH  10  16
ATOM     11  C   UNL     1       0.489   9.911  20.896  0.00  0.00    +0.000 C 
ATOM     12  C   UNL     1       1.218   8.997  19.955  0.00  0.00    +0.000 A 
ATOM     13  C   UNL     1       1.371   9.327  18.604  0.00  0.00    +0.000 A 
ATOM     14  C   UNL     1       2.046   8.464  17.739  0.00  0.00    +0.000 A 
ATOM     15  C   UNL     1       2.597   7.276  18.223  0.00  0.00    +0.000 A 
ATOM     16  C   UNL     1       2.479   6.950  19.573  0.00  0.00    +0.000 A 
ATOM     17  C   UNL     1       1.751   7.789  20.426  0.00  0.00    +0.000 A 
ENDBRANCH  10  16
ENDBRANCH   1  10
TORSDOF 3
ENDMDL
MODEL 6
REMARK VINA RESULT:      -7.0      1.548      2.312
REMARK  Name = 
REMARK  4 active torsions:
REMARK  status: ('A' for Active; 'I' for Inactive)
REMARK    1  A    between atoms: C_1  and  C_2
REMARK    2  A    between atoms: C_6  and  O_7
REMARK    3  A    between atoms: O_7  and  C_8
REMARK    4  A    between atoms: C_13  and  N_14
REMARK                            x       y       z     vdW  Elec       q    Type
REMARK                         _______ _______ _______ _____ _____    ______ ____
ROOT
ATOM      1  C   UNL     1       2.648   4.550  18.650  0.00  0.00    +0.000 A 
ATOM      2  C   UNL     1       2.351   5.514  19.624  0.00  0.00    +0.000 A 
ATOM      3  C   UNL     1       1.725   5.150  20.821  0.00  0.00    +0.000 A 
ATOM      4  C   UNL     1       1.436   3.812  21.087  0.00  0.00    +0.000 A 
ATOM      5  C   UNL     1       1.798   2.828  20.168  0.00  0.00    +0.000 A 
ATOM      6  C   UNL     1       2.403   3.209  18.961  0.00  0.00    +0.000 A 
ENDROOT
BRANCH   6   7
ATOM      7  N   UNL     1       2.806   2.158  18.048  0.00  0.00    +0.000 N 
ATOM      8  O   UNL     1       2.144   2.016  17.012  0.00  0.00    +0.000 OA
ATOM      9  O   UNL     1       3.752   1.440  18.400  0.00  0.00    +0.000 OA
ENDBRANCH   6   7
BRANCH   1  10
ATOM     10  O   UNL     1       3.237   4.872  17.448  0.00  0.00    +0.000 OA
BRANCH  10  16
ATOM     11  C   UNL     1       7.804   5.767  19.185  0.00  0.00    +0.000 C 
ATOM     12  C   UNL     1       6.877   5.249  18.124  0.00  0.00    +0.000 A 
ATOM     13  C   UNL     1       7.375   4.659  16.957  0.00  0.00    +0.000 A 
ATOM     14  C   UNL     1       6.501   4.188  15.976  0.00  0.00    +0.000 A 
ATOM     15  C   UNL     1       5.121   4.279  16.165  0.00  0.00    +0.000 A 
ATOM     16  C   UNL     1       4.610   4.836  17.337  0.00  0.00    +0.000 A 
ATOM     17  C   UNL     1       5.489   5.361  18.293  0.00  0.00    +0.000 A 
ENDBRANCH  10  16
ENDBRANCH   1  10
TORSDOF 3
ENDMDL
MODEL 7
REMARK VINA RESULT:      -7.0      2.817      5.469
REMARK  Name = 
REMARK  4 active torsions:
REMARK  status: ('A' for Active; 'I' for Inactive)
REMARK    1  A    between atoms: C_1  and  C_2
REMARK    2  A    between atoms: C_6  and  O_7
REMARK    3  A    between atoms: O_7  and  C_8
REMARK    4  A    between atoms: C_13  and  N_14
REMARK                            x       y       z     vdW  Elec       q    Type
REMARK                         _______ _______ _______ _____ _____    ______ ____
ROOT
ATOM      1  C   UNL     1       6.034   4.829  17.813  0.00  0.00    +0.000 A 
ATOM      2  C   UNL     1       6.580   4.928  19.100  0.00  0.00    +0.000 A 
ATOM      3  C   UNL     1       7.553   5.889  19.391  0.00  0.00    +0.000 A 
ATOM      4  C   UNL     1       7.956   6.802  18.418  0.00  0.00    +0.000 A 
ATOM      5  C   UNL     1       7.366   6.775  17.155  0.00  0.00    +0.000 A 
ATOM      6  C   UNL     1       6.408   5.790  16.869  0.00  0.00    +0.000 A 
ENDROOT
BRANCH   6   7
ATOM      7  N   UNL     1       5.784   5.818  15.561  0.00  0.00    +0.000 N 
ATOM      8  O   UNL     1       4.993   6.740  15.324  0.00  0.00    +0.000 OA
ATOM      9  O   UNL     1       6.044   4.880  14.794  0.00  0.00    +0.000 OA
ENDBRANCH   6   7
BRANCH   1  10
ATOM     10  O   UNL     1       5.097   3.878  17.478  0.00  0.00    +0.000 OA
BRANCH  10  16
ATOM     11  C   UNL     1       2.284   2.798  21.427  0.00  0.00    +0.000 C 
ATOM     12  C   UNL     1       2.451   3.351  20.042  0.00  0.00    +0.000 A 
ATOM     13  C   UNL     1       1.370   3.915  19.356  0.00  0.00    +0.000 A 
ATOM     14  C   UNL     1       1.540   4.419  18.065  0.00  0.00    +0.000 A 
ATOM     15  C   UNL     1       2.797   4.387  17.459  0.00  0.00    +0.000 A 
ATOM     16  C   UNL     1       3.889   3.856  18.144  0.00  0.00    +0.000 A 
ATOM     17  C   UNL     1       3.704   3.298  19.416  0.00  0.00    +0.000 A 
ENDBRANCH  10  16
ENDBRANCH   1  10
TORSDOF 3
ENDMDL
MODEL 8
REMARK VINA RESULT:      -7.0      1.382      2.392
REMARK  Name = 
REMARK  4 active torsions:
REMARK  status: ('A' for Active; 'I' for Inactive)
REMARK    1  A    between atoms: C_1  and  C_2
REMARK    2  A    between atoms: C_6  and  O_7
REMARK    3  A    between atoms: O_7  and  C_8
REMARK    4  A    between atoms: C_13  and  N_14
REMARK                            x       y       z     vdW  Elec       q    Type
REMARK                         _______ _______ _______ _____ _____    ______ ____
ROOT
ATOM      1  C   UNL     1       2.655   2.925  18.832  0.00  0.00    +0.000 A 
ATOM      2  C   UNL     1       1.282   3.207  18.867  0.00  0.00    +0.000 A 
ATOM      3  C   UNL     1       0.570   3.137  20.068  0.00  0.00    +0.000 A 
ATOM      4  C   UNL     1       1.226   2.838  21.261  0.00  0.00    +0.000 A 
ATOM      5  C   UNL     1       2.605   2.635  21.262  0.00  0.00    +0.000 A 
ATOM      6  C   UNL     1       3.304   2.685  20.046  0.00  0.00    +0.000 A 
ENDROOT
BRANCH   6   7
ATOM      7  N   UNL     1       4.743   2.513  20.089  0.00  0.00    +0.000 N 
ATOM      8  O   UNL     1       5.445   3.496  19.818  0.00  0.00    +0.000 OA
ATOM      9  O   UNL     1       5.165   1.375  20.339  0.00  0.00    +0.000 OA
ENDBRANCH   6   7
BRANCH   1  10
ATOM     10  O   UNL     1       3.386   2.955  17.665  0.00  0.00    +0.000 OA
BRANCH  10  16
ATOM     11  C   UNL     1       3.496   7.921  17.632  0.00  0.00    +0.000 C 
ATOM     12  C   UNL     1       3.977   6.590  17.132  0.00  0.00    +0.000 A 
ATOM     13  C   UNL     1       4.992   6.505  16.173  0.00  0.00    +0.000 A 
ATOM     14  C   UNL     1       5.425   5.260  15.712  0.00  0.00    +0.000 A 
ATOM     15  C   UNL     1       4.864   4.089  16.225  0.00  0.00    +0.000 A 
ATOM     16  C   UNL     1       3.873   4.159  17.203  0.00  0.00    +0.000 A 
ATOM     17  C   UNL     1       3.400   5.410  17.621  0.00  0.00    +0.000 A 
ENDBRANCH  10  16
ENDBRANCH   1  10
TORSDOF 3
ENDMDL
MODEL 9
REMARK VINA RESULT:      -7.0      1.013      1.286
REMARK  Name = 
REMARK  4 active torsions:
REMARK  status: ('A' for Active; 'I' for Inactive)
REMARK    1  A    between atoms: C_1  and  C_2
REMARK    2  A    between atoms: C_6  and  O_7
REMARK    3  A    between atoms: O_7  and  C_8
REMARK    4  A    between atoms: C_13  and  N_14
REMARK                            x       y       z     vdW  Elec       q    Type
REMARK                         _______ _______ _______ _____ _____    ______ ____
ROOT
ATOM      1  C   UNL     1       3.958   4.221  19.681  0.00  0.00    +0.000 A 
ATOM      2  C   UNL     1       3.177   5.353  19.951  0.00  0.00    +0.000 A 
ATOM      3  C   UNL     1       1.793   5.241  20.118  0.00  0.00    +0.000 A 
ATOM      4  C   UNL     1       1.175   3.992  20.072  0.00  0.00    +0.000 A 
ATOM      5  C   UNL     1       1.945   2.845  19.886  0.00  0.00    +0.000 A 
ATOM      6  C   UNL     1       3.329   2.973  19.697  0.00  0.00    +0.000 A 
ENDROOT
BRANCH   6   7
ATOM      7  N   UNL     1       4.105   1.757  19.550  0.00  0.00    +0.000 N 
ATOM      8  O   UNL     1       5.001   1.547  20.378  0.00  0.00    +0.000 OA
ATOM      9  O   UNL     1       3.850   1.043  18.570  0.00  0.00    +0.000 OA
ENDBRANCH   6   7
BRANCH   1  10
ATOM     10  O   UNL     1       5.319   4.293  19.481  0.00  0.00    +0.000 OA
BRANCH  10  16
ATOM     11  C   UNL     1       5.528   4.292  14.518  0.00  0.00    +0.000 C 
ATOM     12  C   UNL     1       5.957   4.825  15.854  0.00  0.00    +0.000 A 
ATOM     13  C   UNL     1       6.866   5.885  15.948  0.00  0.00    +0.000 A 
ATOM     14  C   UNL     1       7.261   6.366  17.197  0.00  0.00    +0.000 A 
ATOM     15  C   UNL     1       6.732   5.809  18.363  0.00  0.00    +0.000 A 
ATOM     16  C   UNL     1       5.802   4.773  18.283  0.00  0.00    +0.000 A 
ATOM     17  C   UNL     1       5.452   4.253  17.030  0.00  0.00    +0.000 A 
ENDBRANCH  10  16
ENDBRANCH   1  10
TORSDOF 3
ENDMDL
