MODEL 1
REMARK VINA RESULT:      -8.0      0.000      0.000
REMARK  Name = 
REMARK  3 active torsions:
REMARK  status: ('A' for Active; 'I' for Inactive)
REMARK    1  A    between atoms: N_11  and  C_12
REMARK    2  A    between atoms: C_12  and  N_13
REMARK    3  A    between atoms: N_19  and  N_20
REMARK                            x       y       z     vdW  Elec       q    Type
REMARK                         _______ _______ _______ _____ _____    ______ ____
ROOT
ATOM      1  N   UNL     1       2.756   4.051  18.516  0.00  0.00    +0.000 N 
ATOM      2  C   UNL     1       2.438   2.746  18.804  0.00  0.00    +0.000 C 
ATOM      3  O   UNL     1       2.850   1.768  18.186  0.00  0.00    +0.000 OA
ATOM      4  C   UNL     1       1.529   2.639  20.000  0.00  0.00    +0.000 C 
ATOM      5  S   UNL     1       1.036   4.331  20.391  0.00  0.00    +0.000 S 
ATOM      6  C   UNL     1       2.257   5.016  19.343  0.00  0.00    +0.000 C 
ATOM      7  N   UNL     1       2.656   6.248  19.293  0.00  0.00    +0.000 NA
ENDROOT
BRANCH   7   8
ATOM      8  N   UNL     1       1.963   7.122  20.122  0.00  0.00    +0.000 NA
ATOM      9  C   UNL     1       1.469   8.174  19.543  0.00  0.00    +0.000 C 
ATOM     10  C   UNL     1       0.561   9.065  20.364  0.00  0.00    +0.000 C 
ATOM     11  C   UNL     1       1.028  10.510  20.278  0.00  0.00    +0.000 C 
ATOM     12  C   UNL     1       1.153  10.970  18.826  0.00  0.00    +0.000 C 
ATOM     13  C   UNL     1       2.075  10.051  18.022  0.00  0.00    +0.000 C 
ATOM     14  C   UNL     1       1.651   8.582  18.093  0.00  0.00    +0.000 C 
ENDBRANCH   7   8
BRANCH   1  15
ATOM     15  C   UNL     1       3.596   4.368  17.391  0.00  0.00    +0.000 C 
BRANCH  15  26
ATOM     16  O   UNL     1       5.892   3.922  19.319  0.00  0.00    +0.000 OA
ATOM     17  C   UNL     1       5.764   4.865  18.563  0.00  0.00    +0.000 C 
ATOM     18  C   UNL     1       6.729   5.958  18.470  0.00  0.00    +0.000 A 
ATOM     19  C   UNL     1       7.892   6.177  19.178  0.00  0.00    +0.000 A 
ATOM     20  C   UNL     1       8.615   7.334  18.874  0.00  0.00    +0.000 A 
ATOM     21  C   UNL     1       8.163   8.229  17.882  0.00  0.00    +0.000 A 
ATOM     22  C   UNL     1       6.977   7.986  17.179  0.00  0.00    +0.000 A 
ATOM     23  C   UNL     1       6.282   6.839  17.501  0.00  0.00    +0.000 A 
ATOM     24  C   UNL     1       5.027   6.310  16.980  0.00  0.00    +0.000 C 
ATOM     25  O   UNL     1       4.357   6.843  16.115  0.00  0.00    +0.000 OA
ATOM     26  N   UNL     1       4.780   5.146  17.657  0.00  0.00    +0.000 N 
ENDBRANCH  15  26
ENDBRANCH   1  15
TORSDOF 3
ENDMDL
MODEL 2
REMARK VINA RESULT:      -7.9      0.088      1.717
REMARK  Name = 
REMARK  3 active torsions:
REMARK  status: ('A' for Active; 'I' for Inactive)
REMARK    1  A    between atoms: N_11  and  C_12
REMARK    2  A    between atoms: C_12  and  N_13
REMARK    3  A    between atoms: N_19  and  N_20
REMARK                            x       y       z     vdW  Elec       q    Type
REMARK                         _______ _______ _______ _____ _____    ______ ____
ROOT
ATOM      1  N   UNL     1       2.737   4.000  18.552  0.00  0.00    +0.000 N 
ATOM      2  C   UNL     1       2.421   2.701  18.868  0.00  0.00    +0.000 C 
ATOM      3  O   UNL     1       2.823   1.712  18.262  0.00  0.00    +0.000 OA
ATOM      4  C   UNL     1       1.531   2.617  20.079  0.00  0.00    +0.000 C 
ATOM      5  S   UNL     1       1.046   4.317  20.447  0.00  0.00    +0.000 S 
ATOM      6  C   UNL     1       2.252   4.980  19.369  0.00  0.00    +0.000 C 
ATOM      7  N   UNL     1       2.651   6.211  19.290  0.00  0.00    +0.000 NA
ENDROOT
BRANCH   7   8
ATOM      8  N   UNL     1       1.973   7.100  20.114  0.00  0.00    +0.000 NA
ATOM      9  C   UNL     1       1.486   8.152  19.527  0.00  0.00    +0.000 C 
ATOM     10  C   UNL     1       0.591   9.060  20.343  0.00  0.00    +0.000 C 
ATOM     11  C   UNL     1       1.073  10.499  20.239  0.00  0.00    +0.000 C 
ATOM     12  C   UNL     1       1.193  10.942  18.782  0.00  0.00    +0.000 C 
ATOM     13  C   UNL     1       2.101  10.005  17.982  0.00  0.00    +0.000 C 
ATOM     14  C   UNL     1       1.663   8.542  18.071  0.00  0.00    +0.000 C 
ENDBRANCH   7   8
BRANCH   1  15
ATOM     15  C   UNL     1       3.560   4.296  17.408  0.00  0.00    +0.000 C 
BRANCH  15  26
ATOM     16  O   UNL     1       4.311   6.960  16.174  0.00  0.00    +0.000 OA
ATOM     17  C   UNL     1       4.953   6.350  17.006  0.00  0.00    +0.000 C 
ATOM     18  C   UNL     1       6.223   6.826  17.551  0.00  0.00    +0.000 A 
ATOM     19  C   UNL     1       6.946   7.962  17.252  0.00  0.00    +0.000 A 
ATOM     20  C   UNL     1       8.149   8.149  17.937  0.00  0.00    +0.000 A 
ATOM     21  C   UNL     1       8.592   7.208  18.891  0.00  0.00    +0.000 A 
ATOM     22  C   UNL     1       7.842   6.062  19.174  0.00  0.00    +0.000 A 
ATOM     23  C   UNL     1       6.659   5.900  18.482  0.00  0.00    +0.000 A 
ATOM     24  C   UNL     1       5.670   4.829  18.525  0.00  0.00    +0.000 C 
ATOM     25  O   UNL     1       5.747   3.845  19.238  0.00  0.00    +0.000 OA
ATOM     26  N   UNL     1       4.695   5.159  17.625  0.00  0.00    +0.000 N 
ENDBRANCH  15  26
ENDBRANCH   1  15
TORSDOF 3
ENDMDL
MODEL 3
REMARK VINA RESULT:      -7.6      2.239      5.164
REMARK  Name = 
REMARK  3 active torsions:
REMARK  status: ('A' for Active; 'I' for Inactive)
REMARK    1  A    between atoms: N_11  and  C_12
REMARK    2  A    between atoms: C_12  and  N_13
REMARK    3  A    between atoms: N_19  and  N_20
REMARK                            x       y       z     vdW  Elec       q    Type
REMARK                         _______ _______ _______ _____ _____    ______ ____
ROOT
ATOM      1  N   UNL     1       5.682   5.174  16.937  0.00  0.00    +0.000 N 
ATOM      2  C   UNL     1       7.046   5.292  16.837  0.00  0.00    +0.000 C 
ATOM      3  O   UNL     1       7.821   4.361  16.634  0.00  0.00    +0.000 OA
ATOM      4  C   UNL     1       7.499   6.721  16.982  0.00  0.00    +0.000 C 
ATOM      5  S   UNL     1       6.035   7.648  17.491  0.00  0.00    +0.000 S 
ATOM      6  C   UNL     1       4.962   6.322  17.106  0.00  0.00    +0.000 C 
ATOM      7  N   UNL     1       3.670   6.354  17.005  0.00  0.00    +0.000 NA
ENDROOT
BRANCH   7   8
ATOM      8  N   UNL     1       3.089   7.575  17.321  0.00  0.00    +0.000 NA
ATOM      9  C   UNL     1       2.750   7.732  18.565  0.00  0.00    +0.000 C 
ATOM     10  C   UNL     1       2.275   9.104  18.995  0.00  0.00    +0.000 C 
ATOM     11  C   UNL     1       0.945   8.992  19.724  0.00  0.00    +0.000 C 
ATOM     12  C   UNL     1       1.028   8.004  20.886  0.00  0.00    +0.000 C 
ATOM     13  C   UNL     1       1.512   6.628  20.422  0.00  0.00    +0.000 C 
ATOM     14  C   UNL     1       2.842   6.695  19.668  0.00  0.00    +0.000 C 
ENDBRANCH   7   8
BRANCH   1  15
ATOM     15  C   UNL     1       5.051   3.882  16.851  0.00  0.00    +0.000 C 
BRANCH  15  26
ATOM     16  O   UNL     1       2.070   3.371  16.654  0.00  0.00    +0.000 OA
ATOM     17  C   UNL     1       2.733   3.360  17.673  0.00  0.00    +0.000 C 
ATOM     18  C   UNL     1       2.172   3.090  18.995  0.00  0.00    +0.000 A 
ATOM     19  C   UNL     1       0.869   2.840  19.371  0.00  0.00    +0.000 A 
ATOM     20  C   UNL     1       0.629   2.627  20.731  0.00  0.00    +0.000 A 
ATOM     21  C   UNL     1       1.685   2.666  21.667  0.00  0.00    +0.000 A 
ATOM     22  C   UNL     1       2.998   2.924  21.259  0.00  0.00    +0.000 A 
ATOM     23  C   UNL     1       3.207   3.135  19.912  0.00  0.00    +0.000 A 
ATOM     24  C   UNL     1       4.427   3.440  19.175  0.00  0.00    +0.000 C 
ATOM     25  O   UNL     1       5.529   3.560  19.679  0.00  0.00    +0.000 OA
ATOM     26  N   UNL     1       4.070   3.565  17.860  0.00  0.00    +0.000 N 
ENDBRANCH  15  26
ENDBRANCH   1  15
TORSDOF 3
ENDMDL
MODEL 4
REMARK VINA RESULT:      -7.4      2.248      4.981
REMARK  Name = 
REMARK  3 active torsions:
REMARK  status: ('A' for Active; 'I' for Inactive)
REMARK    1  A    between atoms: N_11  and  C_12
REMARK    2  A    between atoms: C_12  and  N_13
REMARK    3  A    between atoms: N_19  and  N_20
REMARK                            x       y       z     vdW  Elec       q    Type
REMARK                         _______ _______ _______ _____ _____    ______ ____
ROOT
ATOM      1  N   UNL     1       5.671   5.194  16.932  0.00  0.00    +0.000 N 
ATOM      2  C   UNL     1       7.032   5.300  16.787  0.00  0.00    +0.000 C 
ATOM      3  O   UNL     1       7.794   4.360  16.583  0.00  0.00    +0.000 OA
ATOM      4  C   UNL     1       7.498   6.730  16.883  0.00  0.00    +0.000 C 
ATOM      5  S   UNL     1       6.057   7.678  17.415  0.00  0.00    +0.000 S 
ATOM      6  C   UNL     1       4.964   6.351  17.096  0.00  0.00    +0.000 C 
ATOM      7  N   UNL     1       3.669   6.389  17.035  0.00  0.00    +0.000 NA
ENDROOT
BRANCH   7   8
ATOM      8  N   UNL     1       3.106   7.622  17.338  0.00  0.00    +0.000 NA
ATOM      9  C   UNL     1       2.745   7.786  18.575  0.00  0.00    +0.000 C 
ATOM     10  C   UNL     1       2.289   9.167  18.996  0.00  0.00    +0.000 C 
ATOM     11  C   UNL     1       0.943   9.081  19.698  0.00  0.00    +0.000 C 
ATOM     12  C   UNL     1       0.984   8.093  20.862  0.00  0.00    +0.000 C 
ATOM     13  C   UNL     1       1.450   6.708  20.409  0.00  0.00    +0.000 C 
ATOM     14  C   UNL     1       2.796   6.748  19.681  0.00  0.00    +0.000 C 
ENDBRANCH   7   8
BRANCH   1  15
ATOM     15  C   UNL     1       5.029   3.905  16.898  0.00  0.00    +0.000 C 
BRANCH  15  26
ATOM     16  O   UNL     1       5.481   3.603  19.879  0.00  0.00    +0.000 OA
ATOM     17  C   UNL     1       4.421   3.472  19.299  0.00  0.00    +0.000 C 
ATOM     18  C   UNL     1       3.169   3.140  19.974  0.00  0.00    +0.000 A 
ATOM     19  C   UNL     1       2.921   2.884  21.307  0.00  0.00    +0.000 A 
ATOM     20  C   UNL     1       1.605   2.578  21.662  0.00  0.00    +0.000 A 
ATOM     21  C   UNL     1       0.584   2.537  20.688  0.00  0.00    +0.000 A 
ATOM     22  C   UNL     1       0.862   2.798  19.342  0.00  0.00    +0.000 A 
ATOM     23  C   UNL     1       2.170   3.094  19.018  0.00  0.00    +0.000 A 
ATOM     24  C   UNL     1       2.787   3.392  17.731  0.00  0.00    +0.000 C 
ATOM     25  O   UNL     1       2.192   3.428  16.670  0.00  0.00    +0.000 OA
ATOM     26  N   UNL     1       4.118   3.599  17.973  0.00  0.00    +0.000 N 
ENDBRANCH  15  26
ENDBRANCH   1  15
TORSDOF 3
ENDMDL
MODEL 5
REMARK VINA RESULT:      -7.0      6.119      8.718
REMARK  Name = 
REMARK  3 active torsions:
REMARK  status: ('A' for Active; 'I' for Inactive)
REMARK    1  A    between atoms: N_11  and  C_12
REMARK    2  A    between atoms: C_12  and  N_13
REMARK    3  A    between atoms: N_19  and  N_20
REMARK                            x       y       z     vdW  Elec       q    Type
REMARK                         _______ _______ _______ _____ _____    ______ ____
ROOT
ATOM      1  N   UNL     1      -1.831  13.387  22.197  0.00  0.00    +0.000 N 
ATOM      2  C   UNL     1      -2.205  13.784  23.457  0.00  0.00    +0.000 C 
ATOM      3  O   UNL     1      -1.430  14.128  24.345  0.00  0.00    +0.000 OA
ATOM      4  C   UNL     1      -3.701  13.777  23.628  0.00  0.00    +0.000 C 
ATOM      5  S   UNL     1      -4.358  12.984  22.145  0.00  0.00    +0.000 S 
ATOM      6  C   UNL     1      -2.827  13.094  21.310  0.00  0.00    +0.000 C 
ATOM      7  N   UNL     1      -2.600  12.911  20.046  0.00  0.00    +0.000 NA
ENDROOT
BRANCH   7   8
ATOM      8  N   UNL     1      -3.704  12.507  19.306  0.00  0.00    +0.000 NA
ATOM      9  C   UNL     1      -3.523  11.469  18.547  0.00  0.00    +0.000 C 
ATOM     10  C   UNL     1      -4.737  10.884  17.856  0.00  0.00    +0.000 C 
ATOM     11  C   UNL     1      -4.467  10.729  16.368  0.00  0.00    +0.000 C 
ATOM     12  C   UNL     1      -3.196   9.921  16.113  0.00  0.00    +0.000 C 
ATOM     13  C   UNL     1      -1.987  10.534  16.824  0.00  0.00    +0.000 C 
ATOM     14  C   UNL     1      -2.220  10.723  18.324  0.00  0.00    +0.000 C 
ENDBRANCH   7   8
BRANCH   1  15
ATOM     15  C   UNL     1      -0.439  13.301  21.839  0.00  0.00    +0.000 C 
BRANCH  15  26
ATOM     16  O   UNL     1      -0.290  10.623  23.250  0.00  0.00    +0.000 OA
ATOM     17  C   UNL     1       0.081  10.857  22.116  0.00  0.00    +0.000 C 
ATOM     18  C   UNL     1       0.672   9.849  21.239  0.00  0.00    +0.000 A 
ATOM     19  C   UNL     1       0.956   8.521  21.479  0.00  0.00    +0.000 A 
ATOM     20  C   UNL     1       1.541   7.797  20.437  0.00  0.00    +0.000 A 
ATOM     21  C   UNL     1       1.821   8.411  19.198  0.00  0.00    +0.000 A 
ATOM     22  C   UNL     1       1.526   9.761  18.981  0.00  0.00    +0.000 A 
ATOM     23  C   UNL     1       0.952  10.453  20.027  0.00  0.00    +0.000 A 
ATOM     24  C   UNL     1       0.545  11.850  20.133  0.00  0.00    +0.000 C 
ATOM     25  O   UNL     1       0.658  12.674  19.244  0.00  0.00    +0.000 OA
ATOM     26  N   UNL     1       0.045  12.017  21.396  0.00  0.00    +0.000 N 
ENDBRANCH  15  26
ENDBRANCH   1  15
TORSDOF 3
ENDMDL
MODEL 6
REMARK VINA RESULT:      -7.0      2.553      3.419
REMARK  Name = 
REMARK  3 active torsions:
REMARK  status: ('A' for Active; 'I' for Inactive)
REMARK    1  A    between atoms: N_11  and  C_12
REMARK    2  A    between atoms: C_12  and  N_13
REMARK    3  A    between atoms: N_19  and  N_20
REMARK                            x       y       z     vdW  Elec       q    Type
REMARK                         _______ _______ _______ _____ _____    ______ ____
ROOT
ATOM      1  N   UNL     1       4.347   5.457  18.688  0.00  0.00    +0.000 N 
ATOM      2  C   UNL     1       4.495   4.275  19.372  0.00  0.00    +0.000 C 
ATOM      3  O   UNL     1       5.541   3.637  19.457  0.00  0.00    +0.000 OA
ATOM      4  C   UNL     1       3.216   3.849  20.044  0.00  0.00    +0.000 C 
ATOM      5  S   UNL     1       1.945   4.974  19.430  0.00  0.00    +0.000 S 
ATOM      6  C   UNL     1       3.126   6.066  18.746  0.00  0.00    +0.000 C 
ATOM      7  N   UNL     1       2.932   7.274  18.317  0.00  0.00    +0.000 NA
ENDROOT
BRANCH   7   8
ATOM      8  N   UNL     1       1.609   7.699  18.344  0.00  0.00    +0.000 NA
ATOM      9  C   UNL     1       1.416   8.953  18.069  0.00  0.00    +0.000 C 
ATOM     10  C   UNL     1      -0.014   9.425  17.912  0.00  0.00    +0.000 C 
ATOM     11  C   UNL     1      -0.260  10.646  18.784  0.00  0.00    +0.000 C 
ATOM     12  C   UNL     1       0.759  11.748  18.501  0.00  0.00    +0.000 C 
ATOM     13  C   UNL     1       2.194  11.242  18.665  0.00  0.00    +0.000 C 
ATOM     14  C   UNL     1       2.482  10.002  17.815  0.00  0.00    +0.000 C 
ENDBRANCH   7   8
BRANCH   1  15
ATOM     15  C   UNL     1       5.450   6.022  17.955  0.00  0.00    +0.000 C 
BRANCH  15  26
ATOM     16  O   UNL     1       3.860   4.094  16.240  0.00  0.00    +0.000 OA
ATOM     17  C   UNL     1       4.918   4.612  15.942  0.00  0.00    +0.000 C 
ATOM     18  C   UNL     1       5.601   4.375  14.673  0.00  0.00    +0.000 A 
ATOM     19  C   UNL     1       5.257   3.553  13.620  0.00  0.00    +0.000 A 
ATOM     20  C   UNL     1       6.125   3.522  12.526  0.00  0.00    +0.000 A 
ATOM     21  C   UNL     1       7.299   4.305  12.512  0.00  0.00    +0.000 A 
ATOM     22  C   UNL     1       7.627   5.129  13.594  0.00  0.00    +0.000 A 
ATOM     23  C   UNL     1       6.755   5.138  14.662  0.00  0.00    +0.000 A 
ATOM     24  C   UNL     1       6.811   5.858  15.929  0.00  0.00    +0.000 C 
ATOM     25  O   UNL     1       7.704   6.619  16.254  0.00  0.00    +0.000 OA
ATOM     26  N   UNL     1       5.697   5.495  16.636  0.00  0.00    +0.000 N 
ENDBRANCH  15  26
ENDBRANCH   1  15
TORSDOF 3
ENDMDL
MODEL 7
REMARK VINA RESULT:      -6.9      9.423     13.324
REMARK  Name = 
REMARK  3 active torsions:
REMARK  status: ('A' for Active; 'I' for Inactive)
REMARK    1  A    between atoms: N_11  and  C_12
REMARK    2  A    between atoms: C_12  and  N_13
REMARK    3  A    between atoms: N_19  and  N_20
REMARK                            x       y       z     vdW  Elec       q    Type
REMARK                         _______ _______ _______ _____ _____    ______ ____
ROOT
ATOM      1  N   UNL     1      -6.526  12.716  21.822  0.00  0.00    +0.000 N 
ATOM      2  C   UNL     1      -6.793  12.853  23.162  0.00  0.00    +0.000 C 
ATOM      3  O   UNL     1      -7.917  12.889  23.656  0.00  0.00    +0.000 OA
ATOM      4  C   UNL     1      -5.532  12.930  23.982  0.00  0.00    +0.000 C 
ATOM      5  S   UNL     1      -4.183  13.070  22.790  0.00  0.00    +0.000 S 
ATOM      6  C   UNL     1      -5.215  12.634  21.448  0.00  0.00    +0.000 C 
ATOM      7  N   UNL     1      -4.855  12.298  20.249  0.00  0.00    +0.000 NA
ENDROOT
BRANCH   7   8
ATOM      8  N   UNL     1      -3.490  12.377  20.005  0.00  0.00    +0.000 NA
ATOM      9  C   UNL     1      -3.083  11.829  18.900  0.00  0.00    +0.000 C 
ATOM     10  C   UNL     1      -1.637  12.039  18.502  0.00  0.00    +0.000 C 
ATOM     11  C   UNL     1      -0.981  10.702  18.194  0.00  0.00    +0.000 C 
ATOM     12  C   UNL     1      -1.773   9.920  17.148  0.00  0.00    +0.000 C 
ATOM     13  C   UNL     1      -3.230   9.725  17.575  0.00  0.00    +0.000 C 
ATOM     14  C   UNL     1      -3.927  11.046  17.911  0.00  0.00    +0.000 C 
ENDBRANCH   7   8
BRANCH   1  15
ATOM     15  C   UNL     1      -7.600  12.649  20.865  0.00  0.00    +0.000 C 
BRANCH  15  26
ATOM     16  O   UNL     1      -7.803  15.671  20.980  0.00  0.00    +0.000 OA
ATOM     17  C   UNL     1      -7.715  14.997  19.972  0.00  0.00    +0.000 C 
ATOM     18  C   UNL     1      -7.692  15.563  18.625  0.00  0.00    +0.000 A 
ATOM     19  C   UNL     1      -7.793  16.875  18.213  0.00  0.00    +0.000 A 
ATOM     20  C   UNL     1      -7.752  17.114  16.837  0.00  0.00    +0.000 A 
ATOM     21  C   UNL     1      -7.611  16.050  15.921  0.00  0.00    +0.000 A 
ATOM     22  C   UNL     1      -7.514  14.726  16.366  0.00  0.00    +0.000 A 
ATOM     23  C   UNL     1      -7.561  14.518  17.728  0.00  0.00    +0.000 A 
ATOM     24  C   UNL     1      -7.506  13.284  18.504  0.00  0.00    +0.000 C 
ATOM     25  O   UNL     1      -7.399  12.170  18.026  0.00  0.00    +0.000 OA
ATOM     26  N   UNL     1      -7.608  13.644  19.820  0.00  0.00    +0.000 N 
ENDBRANCH  15  26
ENDBRANCH   1  15
TORSDOF 3
ENDMDL
MODEL 8
REMARK VINA RESULT:      -6.9      7.977     10.426
REMARK  Name = 
REMARK  3 active torsions:
REMARK  status: ('A' for Active; 'I' for Inactive)
REMARK    1  A    between atoms: N_11  and  C_12
REMARK    2  A    between atoms: C_12  and  N_13
REMARK    3  A    between atoms: N_19  and  N_20
REMARK                            x       y       z     vdW  Elec       q    Type
REMARK                         _______ _______ _______ _____ _____    ______ ____
ROOT
ATOM      1  N   UNL     1      -4.258  14.201  22.383  0.00  0.00    +0.000 N 
ATOM      2  C   UNL     1      -5.112  14.645  23.362  0.00  0.00    +0.000 C 
ATOM      3  O   UNL     1      -4.767  15.234  24.383  0.00  0.00    +0.000 OA
ATOM      4  C   UNL     1      -6.551  14.350  23.030  0.00  0.00    +0.000 C 
ATOM      5  S   UNL     1      -6.507  13.286  21.572  0.00  0.00    +0.000 S 
ATOM      6  C   UNL     1      -4.815  13.617  21.282  0.00  0.00    +0.000 C 
ATOM      7  N   UNL     1      -4.129  13.350  20.214  0.00  0.00    +0.000 NA
ENDROOT
BRANCH   7   8
ATOM      8  N   UNL     1      -4.821  12.652  19.233  0.00  0.00    +0.000 NA
ATOM      9  C   UNL     1      -4.129  11.771  18.576  0.00  0.00    +0.000 C 
ATOM     10  C   UNL     1      -4.875  10.863  17.620  0.00  0.00    +0.000 C 
ATOM     11  C   UNL     1      -4.209  10.884  16.253  0.00  0.00    +0.000 C 
ATOM     12  C   UNL     1      -2.723  10.545  16.352  0.00  0.00    +0.000 C 
ATOM     13  C   UNL     1      -1.997  11.476  17.325  0.00  0.00    +0.000 C 
ATOM     14  C   UNL     1      -2.643  11.498  18.712  0.00  0.00    +0.000 C 
ENDBRANCH   7   8
BRANCH   1  15
ATOM     15  C   UNL     1      -2.834  14.364  22.524  0.00  0.00    +0.000 C 
BRANCH  15  26
ATOM     16  O   UNL     1      -3.044  11.684  23.924  0.00  0.00    +0.000 OA
ATOM     17  C   UNL     1      -2.196  12.005  23.114  0.00  0.00    +0.000 C 
ATOM     18  C   UNL     1      -1.119  11.117  22.683  0.00  0.00    +0.000 A 
ATOM     19  C   UNL     1      -0.815   9.832  23.082  0.00  0.00    +0.000 A 
ATOM     20  C   UNL     1       0.301   9.230  22.494  0.00  0.00    +0.000 A 
ATOM     21  C   UNL     1       1.072   9.919  21.534  0.00  0.00    +0.000 A 
ATOM     22  C   UNL     1       0.744  11.223  21.148  0.00  0.00    +0.000 A 
ATOM     23  C   UNL     1      -0.359  11.795  21.746  0.00  0.00    +0.000 A 
ATOM     24  C   UNL     1      -0.950  13.119  21.585  0.00  0.00    +0.000 C 
ATOM     25  O   UNL     1      -0.524  13.980  20.837  0.00  0.00    +0.000 OA
ATOM     26  N   UNL     1      -2.027  13.174  22.427  0.00  0.00    +0.000 N 
ENDBRANCH  15  26
ENDBRANCH   1  15
TORSDOF 3
ENDMDL
MODEL 9
REMARK VINA RESULT:      -6.8      2.393      6.225
REMARK  Name = 
REMARK  3 active torsions:
REMARK  status: ('A' for Active; 'I' for Inactive)
REMARK    1  A    between atoms: N_11  and  C_12
REMARK    2  A    between atoms: C_12  and  N_13
REMARK    3  A    between atoms: N_19  and  N_20
REMARK                            x       y       z     vdW  Elec       q    Type
REMARK                         _______ _______ _______ _____ _____    ______ ____
ROOT
ATOM      1  N   UNL     1       2.555   5.203  20.106  0.00  0.00    +0.000 N 
ATOM      2  C   UNL     1       1.393   4.479  19.994  0.00  0.00    +0.000 C 
ATOM      3  O   UNL     1       0.314   4.801  20.482  0.00  0.00    +0.000 OA
ATOM      4  C   UNL     1       1.584   3.235  19.167  0.00  0.00    +0.000 C 
ATOM      5  S   UNL     1       3.363   3.100  18.890  0.00  0.00    +0.000 S 
ATOM      6  C   UNL     1       3.655   4.731  19.449  0.00  0.00    +0.000 C 
ATOM      7  N   UNL     1       4.738   5.431  19.314  0.00  0.00    +0.000 NA
ENDROOT
BRANCH   7   8
ATOM      8  N   UNL     1       5.800   4.759  18.722  0.00  0.00    +0.000 NA
ATOM      9  C   UNL     1       6.150   5.185  17.546  0.00  0.00    +0.000 C 
ATOM     10  C   UNL     1       7.407   4.604  16.935  0.00  0.00    +0.000 C 
ATOM     11  C   UNL     1       7.121   4.102  15.528  0.00  0.00    +0.000 C 
ATOM     12  C   UNL     1       6.494   5.194  14.664  0.00  0.00    +0.000 C 
ATOM     13  C   UNL     1       5.227   5.763  15.306  0.00  0.00    +0.000 C 
ATOM     14  C   UNL     1       5.466   6.267  16.732  0.00  0.00    +0.000 C 
ENDBRANCH   7   8
BRANCH   1  15
ATOM     15  C   UNL     1       2.590   6.417  20.879  0.00  0.00    +0.000 C 
BRANCH  15  26
ATOM     16  O   UNL     1       2.541   7.601  18.090  0.00  0.00    +0.000 OA
ATOM     17  C   UNL     1       1.939   8.023  19.057  0.00  0.00    +0.000 C 
ATOM     18  C   UNL     1       1.075   9.201  19.016  0.00  0.00    +0.000 A 
ATOM     19  C   UNL     1       0.791  10.057  17.973  0.00  0.00    +0.000 A 
ATOM     20  C   UNL     1      -0.076  11.120  18.240  0.00  0.00    +0.000 A 
ATOM     21  C   UNL     1      -0.629  11.297  19.526  0.00  0.00    +0.000 A 
ATOM     22  C   UNL     1      -0.323  10.416  20.568  0.00  0.00    +0.000 A 
ATOM     23  C   UNL     1       0.537   9.377  20.279  0.00  0.00    +0.000 A 
ATOM     24  C   UNL     1       1.064   8.314  21.127  0.00  0.00    +0.000 C 
ATOM     25  O   UNL     1       0.799   8.174  22.307  0.00  0.00    +0.000 OA
ATOM     26  N   UNL     1       1.888   7.556  20.340  0.00  0.00    +0.000 N 
ENDBRANCH  15  26
ENDBRANCH   1  15
TORSDOF 3
ENDMDL
