MODEL 1
REMARK VINA RESULT:      -6.8      0.000      0.000
REMARK  Name = 
REMARK  7 active torsions:
REMARK  status: ('A' for Active; 'I' for Inactive)
REMARK    1  A    between atoms: C_1  and  N_2
REMARK    2  A    between atoms: N_2  and  C_3
REMARK    3  A    between atoms: N_5  and  C_6
REMARK    4  A    between atoms: C_6  and  C_7
REMARK    5  A    between atoms: N_9  and  C_10
REMARK    6  A    between atoms: N_16  and  C_17
REMARK    7  A    between atoms: N_16  and  C_18
REMARK                            x       y       z     vdW  Elec       q    Type
REMARK                         _______ _______ _______ _____ _____    ______ ____
ROOT
ATOM      1  C   UNL     1       7.234   5.039  17.029  0.00  0.00    +0.000 C 
ATOM      2  O   UNL     1       8.070   4.140  17.087  0.00  0.00    +0.000 OA
ATOM      3  N   UNL     1       6.628   5.518  15.877  0.00  0.00    +0.000 N 
ATOM      4  H   UNL     1       6.155   6.409  15.972  0.00  0.00    +0.000 HD
ENDROOT
BRANCH   3   5
ATOM      5  C   UNL     1       6.706   4.959  14.587  0.00  0.00    +0.000 A 
ATOM      6  C   UNL     1       5.864   3.939  14.138  0.00  0.00    +0.000 A 
ATOM      7  C   UNL     1       5.993   3.430  12.843  0.00  0.00    +0.000 A 
ATOM      8  C   UNL     1       6.962   3.941  11.984  0.00  0.00    +0.000 A 
ATOM      9  C   UNL     1       7.793   4.972  12.415  0.00  0.00    +0.000 A 
ATOM     10  C   UNL     1       7.660   5.484  13.709  0.00  0.00    +0.000 A 
ENDBRANCH   3   5
BRANCH   1  11
ATOM     11  C   UNL     1       6.703   5.714  18.288  0.00  0.00    +0.000 C 
BRANCH  11  16
ATOM     12  C   UNL     1       4.223   6.990  17.575  0.00  0.00    +0.000 C 
ATOM     13  N   UNL     1       3.689   5.878  18.358  0.00  0.00    +0.000 N 
ATOM     14  C   UNL     1       2.232   5.801  18.266  0.00  0.00    +0.000 C 
ATOM     15  C   UNL     1       4.499   4.896  18.946  0.00  0.00    +0.000 C 
ATOM     16  N   UNL     1       5.796   4.821  18.974  0.00  0.00    +0.000 NA
ATOM     17  N   UNL     1       3.848   3.802  19.521  0.00  0.00    +0.000 N 
ATOM     18  C   UNL     1       2.738   3.864  20.462  0.00  0.00    +0.000 C 
ATOM     19  C   UNL     1       4.570   2.521  19.633  0.00  0.00    +0.000 C 
ENDBRANCH  11  16
ENDBRANCH   1  11
TORSDOF 3
ENDMDL
MODEL 2
REMARK VINA RESULT:      -6.8      0.183      1.144
REMARK  Name = 
REMARK  7 active torsions:
REMARK  status: ('A' for Active; 'I' for Inactive)
REMARK    1  A    between atoms: C_1  and  N_2
REMARK    2  A    between atoms: N_2  and  C_3
REMARK    3  A    between atoms: N_5  and  C_6
REMARK    4  A    between atoms: C_6  and  C_7
REMARK    5  A    between atoms: N_9  and  C_10
REMARK    6  A    between atoms: N_16  and  C_17
REMARK    7  A    between atoms: N_16  and  C_18
REMARK                            x       y       z     vdW  Elec       q    Type
REMARK                         _______ _______ _______ _____ _____    ______ ____
ROOT
ATOM      1  C   UNL     1       7.179   5.134  16.978  0.00  0.00    +0.000 C 
ATOM      2  O   UNL     1       8.007   4.229  17.056  0.00  0.00    +0.000 OA
ATOM      3  N   UNL     1       6.581   5.597  15.815  0.00  0.00    +0.000 N 
ATOM      4  H   UNL     1       6.115   6.493  15.892  0.00  0.00    +0.000 HD
ENDROOT
BRANCH   3   5
ATOM      5  C   UNL     1       6.658   5.012  14.537  0.00  0.00    +0.000 A 
ATOM      6  C   UNL     1       7.648   5.328  13.604  0.00  0.00    +0.000 A 
ATOM      7  C   UNL     1       7.669   4.706  12.352  0.00  0.00    +0.000 A 
ATOM      8  C   UNL     1       6.702   3.760  12.025  0.00  0.00    +0.000 A 
ATOM      9  C   UNL     1       5.722   3.423  12.956  0.00  0.00    +0.000 A 
ATOM     10  C   UNL     1       5.705   4.041  14.210  0.00  0.00    +0.000 A 
ENDBRANCH   3   5
BRANCH   1  11
ATOM     11  C   UNL     1       6.651   5.837  18.223  0.00  0.00    +0.000 C 
BRANCH  11  16
ATOM     12  C   UNL     1       4.164   7.101  17.510  0.00  0.00    +0.000 C 
ATOM     13  N   UNL     1       3.637   6.005  18.318  0.00  0.00    +0.000 N 
ATOM     14  C   UNL     1       2.180   5.927  18.242  0.00  0.00    +0.000 C 
ATOM     15  C   UNL     1       4.452   5.033  18.916  0.00  0.00    +0.000 C 
ATOM     16  N   UNL     1       5.749   4.958  18.933  0.00  0.00    +0.000 NA
ATOM     17  N   UNL     1       3.806   3.950  19.518  0.00  0.00    +0.000 N 
ATOM     18  C   UNL     1       2.706   4.030  20.468  0.00  0.00    +0.000 C 
ATOM     19  C   UNL     1       4.528   2.672  19.647  0.00  0.00    +0.000 C 
ENDBRANCH  11  16
ENDBRANCH   1  11
TORSDOF 3
ENDMDL
MODEL 3
REMARK VINA RESULT:      -6.8      1.014      1.014
REMARK  Name = 
REMARK  7 active torsions:
REMARK  status: ('A' for Active; 'I' for Inactive)
REMARK    1  A    between atoms: C_1  and  N_2
REMARK    2  A    between atoms: N_2  and  C_3
REMARK    3  A    between atoms: N_5  and  C_6
REMARK    4  A    between atoms: C_6  and  C_7
REMARK    5  A    between atoms: N_9  and  C_10
REMARK    6  A    between atoms: N_16  and  C_17
REMARK    7  A    between atoms: N_16  and  C_18
REMARK                            x       y       z     vdW  Elec       q    Type
REMARK                         _______ _______ _______ _____ _____    ______ ____
ROOT
ATOM      1  C   UNL     1       6.875   4.655  17.048  0.00  0.00    +0.000 C 
ATOM      2  O   UNL     1       8.009   4.181  17.050  0.00  0.00    +0.000 OA
ATOM      3  N   UNL     1       6.123   4.972  15.926  0.00  0.00    +0.000 N 
ATOM      4  H   UNL     1       5.323   5.570  16.094  0.00  0.00    +0.000 HD
ENDROOT
BRANCH   3   5
ATOM      5  C   UNL     1       6.425   4.649  14.590  0.00  0.00    +0.000 A 
ATOM      6  C   UNL     1       5.725   3.692  13.852  0.00  0.00    +0.000 A 
ATOM      7  C   UNL     1       6.075   3.422  12.525  0.00  0.00    +0.000 A 
ATOM      8  C   UNL     1       7.125   4.112  11.925  0.00  0.00    +0.000 A 
ATOM      9  C   UNL     1       7.816   5.083  12.646  0.00  0.00    +0.000 A 
ATOM     10  C   UNL     1       7.462   5.356  13.970  0.00  0.00    +0.000 A 
ENDBRANCH   3   5
BRANCH   1  11
ATOM     11  C   UNL     1       6.114   4.898  18.346  0.00  0.00    +0.000 C 
BRANCH  11  16
ATOM     12  C   UNL     1       3.679   6.390  17.978  0.00  0.00    +0.000 C 
ATOM     13  N   UNL     1       3.101   5.073  18.232  0.00  0.00    +0.000 N 
ATOM     14  C   UNL     1       1.658   5.060  18.003  0.00  0.00    +0.000 C 
ATOM     15  C   UNL     1       3.877   3.928  18.463  0.00  0.00    +0.000 C 
ATOM     16  N   UNL     1       5.168   3.826  18.564  0.00  0.00    +0.000 NA
ATOM     17  N   UNL     1       3.199   2.707  18.523  0.00  0.00    +0.000 N 
ATOM     18  C   UNL     1       2.016   2.424  19.325  0.00  0.00    +0.000 C 
ATOM     19  C   UNL     1       3.928   1.470  18.195  0.00  0.00    +0.000 C 
ENDBRANCH  11  16
ENDBRANCH   1  11
TORSDOF 3
ENDMDL
MODEL 4
REMARK VINA RESULT:      -6.7      1.020      1.520
REMARK  Name = 
REMARK  7 active torsions:
REMARK  status: ('A' for Active; 'I' for Inactive)
REMARK    1  A    between atoms: C_1  and  N_2
REMARK    2  A    between atoms: N_2  and  C_3
REMARK    3  A    between atoms: N_5  and  C_6
REMARK    4  A    between atoms: C_6  and  C_7
REMARK    5  A    between atoms: N_9  and  C_10
REMARK    6  A    between atoms: N_16  and  C_17
REMARK    7  A    between atoms: N_16  and  C_18
REMARK                            x       y       z     vdW  Elec       q    Type
REMARK                         _______ _______ _______ _____ _____    ______ ____
ROOT
ATOM      1  C   UNL     1       6.837   4.758  17.080  0.00  0.00    +0.000 C 
ATOM      2  O   UNL     1       7.977   4.298  17.102  0.00  0.00    +0.000 OA
ATOM      3  N   UNL     1       6.104   5.074  15.946  0.00  0.00    +0.000 N 
ATOM      4  H   UNL     1       5.293   5.661  16.101  0.00  0.00    +0.000 HD
ENDROOT
BRANCH   3   5
ATOM      5  C   UNL     1       6.438   4.765  14.613  0.00  0.00    +0.000 A 
ATOM      6  C   UNL     1       7.520   5.334  13.938  0.00  0.00    +0.000 A 
ATOM      7  C   UNL     1       7.798   4.980  12.615  0.00  0.00    +0.000 A 
ATOM      8  C   UNL     1       6.999   4.049  11.957  0.00  0.00    +0.000 A 
ATOM      9  C   UNL     1       5.930   3.460  12.629  0.00  0.00    +0.000 A 
ATOM     10  C   UNL     1       5.655   3.810  13.954  0.00  0.00    +0.000 A 
ENDBRANCH   3   5
BRANCH   1  11
ATOM     11  C   UNL     1       6.046   4.982  18.364  0.00  0.00    +0.000 C 
BRANCH  11  16
ATOM     12  C   UNL     1       3.569   6.386  17.939  0.00  0.00    +0.000 C 
ATOM     13  N   UNL     1       3.033   5.051  18.193  0.00  0.00    +0.000 N 
ATOM     14  C   UNL     1       1.595   4.987  17.937  0.00  0.00    +0.000 C 
ATOM     15  C   UNL     1       3.842   3.935  18.447  0.00  0.00    +0.000 C 
ATOM     16  N   UNL     1       5.134   3.880  18.573  0.00  0.00    +0.000 NA
ATOM     17  N   UNL     1       3.206   2.692  18.505  0.00  0.00    +0.000 N 
ATOM     18  C   UNL     1       2.019   2.374  19.287  0.00  0.00    +0.000 C 
ATOM     19  C   UNL     1       3.984   1.479  18.200  0.00  0.00    +0.000 C 
ENDBRANCH  11  16
ENDBRANCH   1  11
TORSDOF 3
ENDMDL
MODEL 5
REMARK VINA RESULT:      -6.6      0.861      2.474
REMARK  Name = 
REMARK  7 active torsions:
REMARK  status: ('A' for Active; 'I' for Inactive)
REMARK    1  A    between atoms: C_1  and  N_2
REMARK    2  A    between atoms: N_2  and  C_3
REMARK    3  A    between atoms: N_5  and  C_6
REMARK    4  A    between atoms: C_6  and  C_7
REMARK    5  A    between atoms: N_9  and  C_10
REMARK    6  A    between atoms: N_16  and  C_17
REMARK    7  A    between atoms: N_16  and  C_18
REMARK                            x       y       z     vdW  Elec       q    Type
REMARK                         _______ _______ _______ _____ _____    ______ ____
ROOT
ATOM      1  C   UNL     1       6.944   4.626  17.147  0.00  0.00    +0.000 C 
ATOM      2  O   UNL     1       8.092   4.187  17.140  0.00  0.00    +0.000 OA
ATOM      3  N   UNL     1       6.198   4.982  16.033  0.00  0.00    +0.000 N 
ATOM      4  H   UNL     1       5.377   5.545  16.220  0.00  0.00    +0.000 HD
ENDROOT
BRANCH   3   5
ATOM      5  C   UNL     1       6.528   4.743  14.685  0.00  0.00    +0.000 A 
ATOM      6  C   UNL     1       7.553   5.412  14.013  0.00  0.00    +0.000 A 
ATOM      7  C   UNL     1       7.831   5.124  12.674  0.00  0.00    +0.000 A 
ATOM      8  C   UNL     1       7.090   4.159  11.997  0.00  0.00    +0.000 A 
ATOM      9  C   UNL     1       6.080   3.470  12.665  0.00  0.00    +0.000 A 
ATOM     10  C   UNL     1       5.805   3.756  14.006  0.00  0.00    +0.000 A 
ENDBRANCH   3   5
BRANCH   1  11
ATOM     11  C   UNL     1       6.158   4.774  18.444  0.00  0.00    +0.000 C 
BRANCH  11  16
ATOM     12  C   UNL     1       4.833   2.561  19.723  0.00  0.00    +0.000 C 
ATOM     13  N   UNL     1       3.657   3.283  19.244  0.00  0.00    +0.000 N 
ATOM     14  C   UNL     1       2.418   2.708  19.765  0.00  0.00    +0.000 C 
ATOM     15  C   UNL     1       3.734   4.496  18.545  0.00  0.00    +0.000 C 
ATOM     16  N   UNL     1       4.791   5.139  18.146  0.00  0.00    +0.000 NA
ATOM     17  N   UNL     1       2.530   5.160  18.296  0.00  0.00    +0.000 N 
ATOM     18  C   UNL     1       1.330   4.570  17.720  0.00  0.00    +0.000 C 
ATOM     19  C   UNL     1       2.549   6.621  18.105  0.00  0.00    +0.000 C 
ENDBRANCH  11  16
ENDBRANCH   1  11
TORSDOF 3
ENDMDL
MODEL 6
REMARK VINA RESULT:      -6.5      0.920      2.241
REMARK  Name = 
REMARK  7 active torsions:
REMARK  status: ('A' for Active; 'I' for Inactive)
REMARK    1  A    between atoms: C_1  and  N_2
REMARK    2  A    between atoms: N_2  and  C_3
REMARK    3  A    between atoms: N_5  and  C_6
REMARK    4  A    between atoms: C_6  and  C_7
REMARK    5  A    between atoms: N_9  and  C_10
REMARK    6  A    between atoms: N_16  and  C_17
REMARK    7  A    between atoms: N_16  and  C_18
REMARK                            x       y       z     vdW  Elec       q    Type
REMARK                         _______ _______ _______ _____ _____    ______ ____
ROOT
ATOM      1  C   UNL     1       6.914   4.477  17.076  0.00  0.00    +0.000 C 
ATOM      2  O   UNL     1       8.100   4.155  17.066  0.00  0.00    +0.000 OA
ATOM      3  N   UNL     1       6.136   4.766  15.964  0.00  0.00    +0.000 N 
ATOM      4  H   UNL     1       5.263   5.243  16.155  0.00  0.00    +0.000 HD
ENDROOT
BRANCH   3   5
ATOM      5  C   UNL     1       6.488   4.573  14.615  0.00  0.00    +0.000 A 
ATOM      6  C   UNL     1       5.856   3.651  13.778  0.00  0.00    +0.000 A 
ATOM      7  C   UNL     1       6.253   3.512  12.445  0.00  0.00    +0.000 A 
ATOM      8  C   UNL     1       7.283   4.298  11.936  0.00  0.00    +0.000 A 
ATOM      9  C   UNL     1       7.906   5.235  12.757  0.00  0.00    +0.000 A 
ATOM     10  C   UNL     1       7.505   5.377  14.088  0.00  0.00    +0.000 A 
ENDBRANCH   3   5
BRANCH   1  11
ATOM     11  C   UNL     1       6.116   4.534  18.373  0.00  0.00    +0.000 C 
BRANCH  11  16
ATOM     12  C   UNL     1       4.688   2.441  19.741  0.00  0.00    +0.000 C 
ATOM     13  N   UNL     1       3.548   3.224  19.270  0.00  0.00    +0.000 N 
ATOM     14  C   UNL     1       2.289   2.741  19.834  0.00  0.00    +0.000 C 
ATOM     15  C   UNL     1       3.683   4.411  18.537  0.00  0.00    +0.000 C 
ATOM     16  N   UNL     1       4.767   4.976  18.097  0.00  0.00    +0.000 NA
ATOM     17  N   UNL     1       2.517   5.143  18.298  0.00  0.00    +0.000 N 
ATOM     18  C   UNL     1       1.269   4.614  17.765  0.00  0.00    +0.000 C 
ATOM     19  C   UNL     1       2.621   6.595  18.067  0.00  0.00    +0.000 C 
ENDBRANCH  11  16
ENDBRANCH   1  11
TORSDOF 3
ENDMDL
MODEL 7
REMARK VINA RESULT:      -6.4      1.657      1.790
REMARK  Name = 
REMARK  7 active torsions:
REMARK  status: ('A' for Active; 'I' for Inactive)
REMARK    1  A    between atoms: C_1  and  N_2
REMARK    2  A    between atoms: N_2  and  C_3
REMARK    3  A    between atoms: N_5  and  C_6
REMARK    4  A    between atoms: C_6  and  C_7
REMARK    5  A    between atoms: N_9  and  C_10
REMARK    6  A    between atoms: N_16  and  C_17
REMARK    7  A    between atoms: N_16  and  C_18
REMARK                            x       y       z     vdW  Elec       q    Type
REMARK                         _______ _______ _______ _____ _____    ______ ____
ROOT
ATOM      1  C   UNL     1       5.130   6.020  16.208  0.00  0.00    +0.000 C 
ATOM      2  O   UNL     1       4.932   7.021  15.524  0.00  0.00    +0.000 OA
ATOM      3  N   UNL     1       5.570   4.788  15.747  0.00  0.00    +0.000 N 
ATOM      4  H   UNL     1       5.448   4.014  16.389  0.00  0.00    +0.000 HD
ENDROOT
BRANCH   3   5
ATOM      5  C   UNL     1       6.048   4.492  14.456  0.00  0.00    +0.000 A 
ATOM      6  C   UNL     1       5.374   3.664  13.556  0.00  0.00    +0.000 A 
ATOM      7  C   UNL     1       5.903   3.415  12.286  0.00  0.00    +0.000 A 
ATOM      8  C   UNL     1       7.109   3.997  11.905  0.00  0.00    +0.000 A 
ATOM      9  C   UNL     1       7.778   4.841  12.788  0.00  0.00    +0.000 A 
ATOM     10  C   UNL     1       7.246   5.094  14.055  0.00  0.00    +0.000 A 
ENDBRANCH   3   5
BRANCH   1  11
ATOM     11  C   UNL     1       4.963   6.047  17.723  0.00  0.00    +0.000 C 
BRANCH  11  16
ATOM     12  C   UNL     1       2.817   6.861  19.462  0.00  0.00    +0.000 C 
ATOM     13  N   UNL     1       2.724   5.415  19.648  0.00  0.00    +0.000 N 
ATOM     14  C   UNL     1       1.539   5.044  20.420  0.00  0.00    +0.000 C 
ATOM     15  C   UNL     1       3.558   4.502  18.988  0.00  0.00    +0.000 C 
ATOM     16  N   UNL     1       4.556   4.741  18.192  0.00  0.00    +0.000 NA
ATOM     17  N   UNL     1       3.248   3.147  19.129  0.00  0.00    +0.000 N 
ATOM     18  C   UNL     1       2.995   2.453  20.385  0.00  0.00    +0.000 C 
ATOM     19  C   UNL     1       3.671   2.205  18.077  0.00  0.00    +0.000 C 
ENDBRANCH  11  16
ENDBRANCH   1  11
TORSDOF 3
ENDMDL
MODEL 8
REMARK VINA RESULT:      -6.4      1.665      2.117
REMARK  Name = 
REMARK  7 active torsions:
REMARK  status: ('A' for Active; 'I' for Inactive)
REMARK    1  A    between atoms: C_1  and  N_2
REMARK    2  A    between atoms: N_2  and  C_3
REMARK    3  A    between atoms: N_5  and  C_6
REMARK    4  A    between atoms: C_6  and  C_7
REMARK    5  A    between atoms: N_9  and  C_10
REMARK    6  A    between atoms: N_16  and  C_17
REMARK    7  A    between atoms: N_16  and  C_18
REMARK                            x       y       z     vdW  Elec       q    Type
REMARK                         _______ _______ _______ _____ _____    ______ ____
ROOT
ATOM      1  C   UNL     1       5.116   6.051  16.231  0.00  0.00    +0.000 C 
ATOM      2  O   UNL     1       4.884   7.050  15.553  0.00  0.00    +0.000 OA
ATOM      3  N   UNL     1       5.624   4.848  15.765  0.00  0.00    +0.000 N 
ATOM      4  H   UNL     1       5.528   4.061  16.396  0.00  0.00    +0.000 HD
ENDROOT
BRANCH   3   5
ATOM      5  C   UNL     1       6.142   4.591  14.482  0.00  0.00    +0.000 A 
ATOM      6  C   UNL     1       7.333   5.146  14.007  0.00  0.00    +0.000 A 
ATOM      7  C   UNL     1       7.794   4.846  12.722  0.00  0.00    +0.000 A 
ATOM      8  C   UNL     1       7.070   3.984  11.902  0.00  0.00    +0.000 A 
ATOM      9  C   UNL     1       5.892   3.409  12.374  0.00  0.00    +0.000 A 
ATOM     10  C   UNL     1       5.434   3.705  13.662  0.00  0.00    +0.000 A 
ENDBRANCH   3   5
BRANCH   1  11
ATOM     11  C   UNL     1       4.917   6.052  17.742  0.00  0.00    +0.000 C 
BRANCH  11  16
ATOM     12  C   UNL     1       2.761   6.829  19.484  0.00  0.00    +0.000 C 
ATOM     13  N   UNL     1       2.667   5.380  19.639  0.00  0.00    +0.000 N 
ATOM     14  C   UNL     1       1.478   4.992  20.396  0.00  0.00    +0.000 C 
ATOM     15  C   UNL     1       3.505   4.481  18.965  0.00  0.00    +0.000 C 
ATOM     16  N   UNL     1       4.508   4.737  18.180  0.00  0.00    +0.000 NA
ATOM     17  N   UNL     1       3.195   3.123  19.076  0.00  0.00    +0.000 N 
ATOM     18  C   UNL     1       2.935   2.403  20.315  0.00  0.00    +0.000 C 
ATOM     19  C   UNL     1       3.624   2.204  18.007  0.00  0.00    +0.000 C 
ENDBRANCH  11  16
ENDBRANCH   1  11
TORSDOF 3
ENDMDL
MODEL 9
REMARK VINA RESULT:      -6.3      1.106      1.658
REMARK  Name = 
REMARK  7 active torsions:
REMARK  status: ('A' for Active; 'I' for Inactive)
REMARK    1  A    between atoms: C_1  and  N_2
REMARK    2  A    between atoms: N_2  and  C_3
REMARK    3  A    between atoms: N_5  and  C_6
REMARK    4  A    between atoms: C_6  and  C_7
REMARK    5  A    between atoms: N_9  and  C_10
REMARK    6  A    between atoms: N_16  and  C_17
REMARK    7  A    between atoms: N_16  and  C_18
REMARK                            x       y       z     vdW  Elec       q    Type
REMARK                         _______ _______ _______ _____ _____    ______ ____
ROOT
ATOM      1  C   UNL     1       6.215   5.052  16.968  0.00  0.00    +0.000 C 
ATOM      2  O   UNL     1       7.264   4.454  17.198  0.00  0.00    +0.000 OA
ATOM      3  N   UNL     1       5.710   5.364  15.714  0.00  0.00    +0.000 N 
ATOM      4  H   UNL     1       4.974   6.060  15.702  0.00  0.00    +0.000 HD
ENDROOT
BRANCH   3   5
ATOM      5  C   UNL     1       6.191   4.905  14.473  0.00  0.00    +0.000 A 
ATOM      6  C   UNL     1       7.368   5.372  13.884  0.00  0.00    +0.000 A 
ATOM      7  C   UNL     1       7.792   4.871  12.650  0.00  0.00    +0.000 A 
ATOM      8  C   UNL     1       7.044   3.895  11.997  0.00  0.00    +0.000 A 
ATOM      9  C   UNL     1       5.880   3.408  12.587  0.00  0.00    +0.000 A 
ATOM     10  C   UNL     1       5.459   3.905  13.823  0.00  0.00    +0.000 A 
ENDBRANCH   3   5
BRANCH   1  11
ATOM     11  C   UNL     1       5.281   5.481  18.094  0.00  0.00    +0.000 C 
BRANCH  11  16
ATOM     12  C   UNL     1       2.958   6.666  19.314  0.00  0.00    +0.000 C 
ATOM     13  N   UNL     1       2.796   5.297  19.799  0.00  0.00    +0.000 N 
ATOM     14  C   UNL     1       1.512   5.109  20.472  0.00  0.00    +0.000 C 
ATOM     15  C   UNL     1       3.679   4.259  19.471  0.00  0.00    +0.000 C 
ATOM     16  N   UNL     1       4.777   4.312  18.781  0.00  0.00    +0.000 NA
ATOM     17  N   UNL     1       3.311   2.969  19.866  0.00  0.00    +0.000 N 
ATOM     18  C   UNL     1       2.879   2.573  21.199  0.00  0.00    +0.000 C 
ATOM     19  C   UNL     1       3.834   1.817  19.111  0.00  0.00    +0.000 C 
ENDBRANCH  11  16
ENDBRANCH   1  11
TORSDOF 3
ENDMDL
