MODEL 1
REMARK VINA RESULT:      -6.9      0.000      0.000
REMARK  Name = 
REMARK  5 active torsions:
REMARK  status: ('A' for Active; 'I' for Inactive)
REMARK    1  A    between atoms: C_1  and  C_2
REMARK    2  A    between atoms: C_4  and  C_5
REMARK    3  A    between atoms: N_7  and  C_8
REMARK    4  A    between atoms: C_12  and  N_13
REMARK    5  A    between atoms: C_16  and  C_17
REMARK                            x       y       z     vdW  Elec       q    Type
REMARK                         _______ _______ _______ _____ _____    ______ ____
ROOT
ATOM      1  C   UNL     1       5.326   4.907  17.013  0.00  0.00    +0.000 C 
ATOM      2  O   UNL     1       6.071   4.977  17.992  0.00  0.00    +0.000 OA
ATOM      3  N   UNL     1       3.943   4.983  17.081  0.00  0.00    +0.000 N 
ATOM      4  H   UNL     1       3.442   4.543  16.329  0.00  0.00    +0.000 HD
ENDROOT
BRANCH   3   5
ATOM      5  C   UNL     1       3.254   5.202  18.300  0.00  0.00    +0.000 A 
ATOM      6  C   UNL     1       2.950   6.517  18.696  0.00  0.00    +0.000 A 
ATOM      7  C   UNL     1       2.262   6.771  19.887  0.00  0.00    +0.000 A 
ATOM      8  C   UNL     1       1.885   5.710  20.697  0.00  0.00    +0.000 A 
ATOM      9  C   UNL     1       2.192   4.400  20.302  0.00  0.00    +0.000 A 
ATOM     10  C   UNL     1       2.881   4.109  19.101  0.00  0.00    +0.000 A 
ATOM     11  C   UNL     1       3.298   2.716  18.719  0.00  0.00    +0.000 C 
BRANCH   9  12
ATOM     12  N   UNL     1       1.787   3.338  21.206  0.00  0.00    +0.000 N 
ATOM     13  O   UNL     1       0.764   2.706  20.909  0.00  0.00    +0.000 OA
ATOM     14  O   UNL     1       2.505   3.132  22.192  0.00  0.00    +0.000 OA
ENDBRANCH   9  12
ENDBRANCH   3   5
BRANCH   1  18
ATOM     15  C   UNL     1       5.871   3.182  12.165  0.00  0.00    +0.000 C 
ATOM     16  C   UNL     1       6.102   3.866  13.469  0.00  0.00    +0.000 A 
ATOM     17  C   UNL     1       5.323   3.849  14.611  0.00  0.00    +0.000 A 
ATOM     18  C   UNL     1       5.869   4.650  15.674  0.00  0.00    +0.000 A 
ATOM     19  C   UNL     1       7.053   5.240  15.265  0.00  0.00    +0.000 A 
ATOM     20  S   UNL     1       7.492   4.840  13.668  0.00  0.00    +0.000 S 
ENDBRANCH   1  18
TORSDOF 3
ENDMDL
MODEL 2
REMARK VINA RESULT:      -6.7      3.429      7.153
REMARK  Name = 
REMARK  5 active torsions:
REMARK  status: ('A' for Active; 'I' for Inactive)
REMARK    1  A    between atoms: C_1  and  C_2
REMARK    2  A    between atoms: C_4  and  C_5
REMARK    3  A    between atoms: N_7  and  C_8
REMARK    4  A    between atoms: C_12  and  N_13
REMARK    5  A    between atoms: C_16  and  C_17
REMARK                            x       y       z     vdW  Elec       q    Type
REMARK                         _______ _______ _______ _____ _____    ______ ____
ROOT
ATOM      1  C   UNL     1       2.560   6.668  19.485  0.00  0.00    +0.000 C 
ATOM      2  O   UNL     1       2.842   5.779  20.290  0.00  0.00    +0.000 OA
ATOM      3  N   UNL     1       2.972   6.676  18.160  0.00  0.00    +0.000 N 
ATOM      4  H   UNL     1       3.024   7.579  17.723  0.00  0.00    +0.000 HD
ENDROOT
BRANCH   3   5
ATOM      5  C   UNL     1       3.723   5.618  17.593  0.00  0.00    +0.000 A 
ATOM      6  C   UNL     1       3.130   4.352  17.440  0.00  0.00    +0.000 A 
ATOM      7  C   UNL     1       3.838   3.286  16.874  0.00  0.00    +0.000 A 
ATOM      8  C   UNL     1       5.151   3.478  16.469  0.00  0.00    +0.000 A 
ATOM      9  C   UNL     1       5.742   4.740  16.626  0.00  0.00    +0.000 A 
ATOM     10  C   UNL     1       5.052   5.839  17.189  0.00  0.00    +0.000 A 
ATOM     11  C   UNL     1       5.708   7.166  17.447  0.00  0.00    +0.000 C 
BRANCH   9  12
ATOM     12  N   UNL     1       7.125   4.866  16.201  0.00  0.00    +0.000 N 
ATOM     13  O   UNL     1       7.992   4.430  16.970  0.00  0.00    +0.000 OA
ATOM     14  O   UNL     1       7.331   5.382  15.095  0.00  0.00    +0.000 OA
ENDBRANCH   9  12
ENDBRANCH   3   5
BRANCH   1  18
ATOM     15  C   UNL     1      -0.093  10.048  22.367  0.00  0.00    +0.000 C 
ATOM     16  C   UNL     1       0.614   9.389  21.233  0.00  0.00    +0.000 A 
ATOM     17  C   UNL     1       1.213   8.144  21.187  0.00  0.00    +0.000 A 
ATOM     18  C   UNL     1       1.812   7.857  19.910  0.00  0.00    +0.000 A 
ATOM     19  C   UNL     1       1.628   8.924  19.048  0.00  0.00    +0.000 A 
ATOM     20  S   UNL     1       0.763  10.216  19.745  0.00  0.00    +0.000 S 
ENDBRANCH   1  18
TORSDOF 3
ENDMDL
MODEL 3
REMARK VINA RESULT:      -6.6      3.624      7.017
REMARK  Name = 
REMARK  5 active torsions:
REMARK  status: ('A' for Active; 'I' for Inactive)
REMARK    1  A    between atoms: C_1  and  C_2
REMARK    2  A    between atoms: C_4  and  C_5
REMARK    3  A    between atoms: N_7  and  C_8
REMARK    4  A    between atoms: C_12  and  N_13
REMARK    5  A    between atoms: C_16  and  C_17
REMARK                            x       y       z     vdW  Elec       q    Type
REMARK                         _______ _______ _______ _____ _____    ______ ____
ROOT
ATOM      1  C   UNL     1       2.471   6.875  19.264  0.00  0.00    +0.000 C 
ATOM      2  O   UNL     1       2.531   5.939  20.063  0.00  0.00    +0.000 OA
ATOM      3  N   UNL     1       3.086   6.876  18.021  0.00  0.00    +0.000 N 
ATOM      4  H   UNL     1       3.298   7.780  17.637  0.00  0.00    +0.000 HD
ENDROOT
BRANCH   3   5
ATOM      5  C   UNL     1       3.808   5.760  17.531  0.00  0.00    +0.000 A 
ATOM      6  C   UNL     1       3.169   4.510  17.434  0.00  0.00    +0.000 A 
ATOM      7  C   UNL     1       3.847   3.389  16.944  0.00  0.00    +0.000 A 
ATOM      8  C   UNL     1       5.175   3.508  16.560  0.00  0.00    +0.000 A 
ATOM      9  C   UNL     1       5.811   4.754  16.660  0.00  0.00    +0.000 A 
ATOM     10  C   UNL     1       5.152   5.908  17.145  0.00  0.00    +0.000 A 
ATOM     11  C   UNL     1       5.854   7.221  17.345  0.00  0.00    +0.000 C 
BRANCH   9  12
ATOM     12  N   UNL     1       7.206   4.804  16.261  0.00  0.00    +0.000 N 
ATOM     13  O   UNL     1       8.037   4.360  17.064  0.00  0.00    +0.000 OA
ATOM     14  O   UNL     1       7.457   5.269  15.141  0.00  0.00    +0.000 OA
ENDBRANCH   9  12
ENDBRANCH   3   5
BRANCH   1  18
ATOM     15  C   UNL     1       0.176  11.500  18.940  0.00  0.00    +0.000 C 
ATOM     16  C   UNL     1       0.740  10.223  19.460  0.00  0.00    +0.000 A 
ATOM     17  C   UNL     1       1.400   9.220  18.774  0.00  0.00    +0.000 A 
ATOM     18  C   UNL     1       1.789   8.124  19.621  0.00  0.00    +0.000 A 
ATOM     19  C   UNL     1       1.391   8.366  20.924  0.00  0.00    +0.000 A 
ATOM     20  S   UNL     1       0.588   9.855  21.122  0.00  0.00    +0.000 S 
ENDBRANCH   1  18
TORSDOF 3
ENDMDL
MODEL 4
REMARK VINA RESULT:      -6.6      4.016      6.865
REMARK  Name = 
REMARK  5 active torsions:
REMARK  status: ('A' for Active; 'I' for Inactive)
REMARK    1  A    between atoms: C_1  and  C_2
REMARK    2  A    between atoms: C_4  and  C_5
REMARK    3  A    between atoms: N_7  and  C_8
REMARK    4  A    between atoms: C_12  and  N_13
REMARK    5  A    between atoms: C_16  and  C_17
REMARK                            x       y       z     vdW  Elec       q    Type
REMARK                         _______ _______ _______ _____ _____    ______ ____
ROOT
ATOM      1  C   UNL     1       1.908   8.011  19.195  0.00  0.00    +0.000 C 
ATOM      2  O   UNL     1       1.886   8.119  17.968  0.00  0.00    +0.000 OA
ATOM      3  N   UNL     1       2.557   6.991  19.874  0.00  0.00    +0.000 N 
ATOM      4  H   UNL     1       2.203   6.781  20.792  0.00  0.00    +0.000 HD
ENDROOT
BRANCH   3   5
ATOM      5  C   UNL     1       3.308   5.993  19.206  0.00  0.00    +0.000 A 
ATOM      6  C   UNL     1       4.075   6.341  18.079  0.00  0.00    +0.000 A 
ATOM      7  C   UNL     1       4.837   5.385  17.401  0.00  0.00    +0.000 A 
ATOM      8  C   UNL     1       4.827   4.068  17.839  0.00  0.00    +0.000 A 
ATOM      9  C   UNL     1       4.060   3.722  18.961  0.00  0.00    +0.000 A 
ATOM     10  C   UNL     1       3.282   4.666  19.673  0.00  0.00    +0.000 A 
ATOM     11  C   UNL     1       2.384   4.285  20.815  0.00  0.00    +0.000 C 
BRANCH   9  12
ATOM     12  N   UNL     1       4.078   2.324  19.354  0.00  0.00    +0.000 N 
ATOM     13  O   UNL     1       4.874   2.001  20.245  0.00  0.00    +0.000 OA
ATOM     14  O   UNL     1       3.284   1.567  18.781  0.00  0.00    +0.000 OA
ENDBRANCH   9  12
ENDBRANCH   3   5
BRANCH   1  18
ATOM     15  C   UNL     1      -0.664  10.052  23.194  0.00  0.00    +0.000 C 
ATOM     16  C   UNL     1      -0.005   9.862  21.871  0.00  0.00    +0.000 A 
ATOM     17  C   UNL     1       0.622   8.739  21.365  0.00  0.00    +0.000 A 
ATOM     18  C   UNL     1       1.156   8.943  20.044  0.00  0.00    +0.000 A 
ATOM     19  C   UNL     1       0.898  10.236  19.621  0.00  0.00    +0.000 A 
ATOM     20  S   UNL     1       0.042  11.164  20.764  0.00  0.00    +0.000 S 
ENDBRANCH   1  18
TORSDOF 3
ENDMDL
MODEL 5
REMARK VINA RESULT:      -6.6      3.753      7.159
REMARK  Name = 
REMARK  5 active torsions:
REMARK  status: ('A' for Active; 'I' for Inactive)
REMARK    1  A    between atoms: C_1  and  C_2
REMARK    2  A    between atoms: C_4  and  C_5
REMARK    3  A    between atoms: N_7  and  C_8
REMARK    4  A    between atoms: C_12  and  N_13
REMARK    5  A    between atoms: C_16  and  C_17
REMARK                            x       y       z     vdW  Elec       q    Type
REMARK                         _______ _______ _______ _____ _____    ______ ____
ROOT
ATOM      1  C   UNL     1       3.199   6.758  18.207  0.00  0.00    +0.000 C 
ATOM      2  O   UNL     1       2.802   5.598  18.080  0.00  0.00    +0.000 OA
ATOM      3  N   UNL     1       4.513   7.156  18.007  0.00  0.00    +0.000 N 
ATOM      4  H   UNL     1       4.797   7.989  18.493  0.00  0.00    +0.000 HD
ENDROOT
BRANCH   3   5
ATOM      5  C   UNL     1       5.521   6.257  17.582  0.00  0.00    +0.000 A 
ATOM      6  C   UNL     1       6.310   5.597  18.542  0.00  0.00    +0.000 A 
ATOM      7  C   UNL     1       7.308   4.694  18.159  0.00  0.00    +0.000 A 
ATOM      8  C   UNL     1       7.532   4.456  16.811  0.00  0.00    +0.000 A 
ATOM      9  C   UNL     1       6.746   5.117  15.855  0.00  0.00    +0.000 A 
ATOM     10  C   UNL     1       5.726   6.031  16.209  0.00  0.00    +0.000 A 
ATOM     11  C   UNL     1       4.946   6.813  15.191  0.00  0.00    +0.000 C 
BRANCH   9  12
ATOM     12  N   UNL     1       7.046   4.837  14.462  0.00  0.00    +0.000 N 
ATOM     13  O   UNL     1       7.907   5.543  13.920  0.00  0.00    +0.000 OA
ATOM     14  O   UNL     1       6.434   3.903  13.929  0.00  0.00    +0.000 OA
ENDBRANCH   9  12
ENDBRANCH   3   5
BRANCH   1  18
ATOM     15  C   UNL     1       0.251   9.736  21.242  0.00  0.00    +0.000 C 
ATOM     16  C   UNL     1       0.963   9.166  20.063  0.00  0.00    +0.000 A 
ATOM     17  C   UNL     1       1.766   8.042  19.992  0.00  0.00    +0.000 A 
ATOM     18  C   UNL     1       2.293   7.815  18.672  0.00  0.00    +0.000 A 
ATOM     19  C   UNL     1       1.851   8.799  17.806  0.00  0.00    +0.000 A 
ATOM     20  S   UNL     1       0.835   9.948  18.549  0.00  0.00    +0.000 S 
ENDBRANCH   1  18
TORSDOF 3
ENDMDL
MODEL 6
REMARK VINA RESULT:      -6.5      3.801      7.056
REMARK  Name = 
REMARK  5 active torsions:
REMARK  status: ('A' for Active; 'I' for Inactive)
REMARK    1  A    between atoms: C_1  and  C_2
REMARK    2  A    between atoms: C_4  and  C_5
REMARK    3  A    between atoms: N_7  and  C_8
REMARK    4  A    between atoms: C_12  and  N_13
REMARK    5  A    between atoms: C_16  and  C_17
REMARK                            x       y       z     vdW  Elec       q    Type
REMARK                         _______ _______ _______ _____ _____    ______ ____
ROOT
ATOM      1  C   UNL     1       3.204   6.713  18.337  0.00  0.00    +0.000 C 
ATOM      2  O   UNL     1       2.832   5.540  18.283  0.00  0.00    +0.000 OA
ATOM      3  N   UNL     1       4.495   7.133  18.051  0.00  0.00    +0.000 N 
ATOM      4  H   UNL     1       4.782   7.994  18.483  0.00  0.00    +0.000 HD
ENDROOT
BRANCH   3   5
ATOM      5  C   UNL     1       5.504   6.239  17.613  0.00  0.00    +0.000 A 
ATOM      6  C   UNL     1       6.302   5.577  18.564  0.00  0.00    +0.000 A 
ATOM      7  C   UNL     1       7.300   4.680  18.169  0.00  0.00    +0.000 A 
ATOM      8  C   UNL     1       7.515   4.450  16.817  0.00  0.00    +0.000 A 
ATOM      9  C   UNL     1       6.720   5.114  15.871  0.00  0.00    +0.000 A 
ATOM     10  C   UNL     1       5.699   6.022  16.238  0.00  0.00    +0.000 A 
ATOM     11  C   UNL     1       4.910   6.809  15.230  0.00  0.00    +0.000 C 
BRANCH   9  12
ATOM     12  N   UNL     1       7.011   4.843  14.475  0.00  0.00    +0.000 N 
ATOM     13  O   UNL     1       6.365   3.938  13.931  0.00  0.00    +0.000 OA
ATOM     14  O   UNL     1       7.868   5.550  13.930  0.00  0.00    +0.000 OA
ENDBRANCH   9  12
ENDBRANCH   3   5
BRANCH   1  18
ATOM     15  C   UNL     1       0.037  10.804  18.419  0.00  0.00    +0.000 C 
ATOM     16  C   UNL     1       0.852   9.624  18.825  0.00  0.00    +0.000 A 
ATOM     17  C   UNL     1       1.683   8.833  18.054  0.00  0.00    +0.000 A 
ATOM     18  C   UNL     1       2.296   7.768  18.802  0.00  0.00    +0.000 A 
ATOM     19  C   UNL     1       1.884   7.816  20.123  0.00  0.00    +0.000 A 
ATOM     20  S   UNL     1       0.808   9.096  20.450  0.00  0.00    +0.000 S 
ENDBRANCH   1  18
TORSDOF 3
ENDMDL
MODEL 7
REMARK VINA RESULT:      -6.4      0.856      1.406
REMARK  Name = 
REMARK  5 active torsions:
REMARK  status: ('A' for Active; 'I' for Inactive)
REMARK    1  A    between atoms: C_1  and  C_2
REMARK    2  A    between atoms: C_4  and  C_5
REMARK    3  A    between atoms: N_7  and  C_8
REMARK    4  A    between atoms: C_12  and  N_13
REMARK    5  A    between atoms: C_16  and  C_17
REMARK                            x       y       z     vdW  Elec       q    Type
REMARK                         _______ _______ _______ _____ _____    ______ ____
ROOT
ATOM      1  C   UNL     1       5.329   4.972  17.062  0.00  0.00    +0.000 C 
ATOM      2  O   UNL     1       6.073   5.017  18.044  0.00  0.00    +0.000 OA
ATOM      3  N   UNL     1       3.945   5.014  17.133  0.00  0.00    +0.000 N 
ATOM      4  H   UNL     1       3.453   4.595  16.363  0.00  0.00    +0.000 HD
ENDROOT
BRANCH   3   5
ATOM      5  C   UNL     1       3.252   5.167  18.360  0.00  0.00    +0.000 A 
ATOM      6  C   UNL     1       2.899   6.456  18.799  0.00  0.00    +0.000 A 
ATOM      7  C   UNL     1       2.206   6.644  20.000  0.00  0.00    +0.000 A 
ATOM      8  C   UNL     1       1.872   5.543  20.775  0.00  0.00    +0.000 A 
ATOM      9  C   UNL     1       2.228   4.259  20.337  0.00  0.00    +0.000 A 
ATOM     10  C   UNL     1       2.924   4.034  19.126  0.00  0.00    +0.000 A 
ATOM     11  C   UNL     1       3.392   2.672  18.698  0.00  0.00    +0.000 C 
BRANCH   9  12
ATOM     12  N   UNL     1       1.867   3.153  21.206  0.00  0.00    +0.000 N 
ATOM     13  O   UNL     1       2.682   2.840  22.085  0.00  0.00    +0.000 OA
ATOM     14  O   UNL     1       0.766   2.621  21.015  0.00  0.00    +0.000 OA
ENDBRANCH   9  12
ENDBRANCH   3   5
BRANCH   1  18
ATOM     15  C   UNL     1       8.270   5.436  12.830  0.00  0.00    +0.000 C 
ATOM     16  C   UNL     1       7.226   4.997  13.799  0.00  0.00    +0.000 A 
ATOM     17  C   UNL     1       6.967   5.469  15.073  0.00  0.00    +0.000 A 
ATOM     18  C   UNL     1       5.877   4.783  15.714  0.00  0.00    +0.000 A 
ATOM     19  C   UNL     1       5.365   3.812  14.871  0.00  0.00    +0.000 A 
ATOM     20  S   UNL     1       6.159   3.734  13.366  0.00  0.00    +0.000 S 
ENDBRANCH   1  18
TORSDOF 3
ENDMDL
MODEL 8
REMARK VINA RESULT:      -6.3      4.201      6.959
REMARK  Name = 
REMARK  5 active torsions:
REMARK  status: ('A' for Active; 'I' for Inactive)
REMARK    1  A    between atoms: C_1  and  C_2
REMARK    2  A    between atoms: C_4  and  C_5
REMARK    3  A    between atoms: N_7  and  C_8
REMARK    4  A    between atoms: C_12  and  N_13
REMARK    5  A    between atoms: C_16  and  C_17
REMARK                            x       y       z     vdW  Elec       q    Type
REMARK                         _______ _______ _______ _____ _____    ______ ____
ROOT
ATOM      1  C   UNL     1       1.867   8.076  19.333  0.00  0.00    +0.000 C 
ATOM      2  O   UNL     1       1.777   8.365  18.138  0.00  0.00    +0.000 OA
ATOM      3  N   UNL     1       2.481   6.928  19.811  0.00  0.00    +0.000 N 
ATOM      4  H   UNL     1       2.171   6.608  20.711  0.00  0.00    +0.000 HD
ENDROOT
BRANCH   3   5
ATOM      5  C   UNL     1       3.114   5.994  18.955  0.00  0.00    +0.000 A 
ATOM      6  C   UNL     1       4.139   6.428  18.094  0.00  0.00    +0.000 A 
ATOM      7  C   UNL     1       4.794   5.532  17.243  0.00  0.00    +0.000 A 
ATOM      8  C   UNL     1       4.419   4.196  17.238  0.00  0.00    +0.000 A 
ATOM      9  C   UNL     1       3.395   3.766  18.095  0.00  0.00    +0.000 A 
ATOM     10  C   UNL     1       2.717   4.645  18.972  0.00  0.00    +0.000 A 
ATOM     11  C   UNL     1       1.556   4.211  19.822  0.00  0.00    +0.000 C 
BRANCH   9  12
ATOM     12  N   UNL     1       3.038   2.360  18.025  0.00  0.00    +0.000 N 
ATOM     13  O   UNL     1       2.102   2.054  17.274  0.00  0.00    +0.000 OA
ATOM     14  O   UNL     1       3.708   1.573  18.706  0.00  0.00    +0.000 OA
ENDBRANCH   9  12
ENDBRANCH   3   5
BRANCH   1  18
ATOM     15  C   UNL     1      -0.408  12.067  21.714  0.00  0.00    +0.000 C 
ATOM     16  C   UNL     1       0.198  10.736  21.426  0.00  0.00    +0.000 A 
ATOM     17  C   UNL     1       0.770  10.275  20.255  0.00  0.00    +0.000 A 
ATOM     18  C   UNL     1       1.239   8.918  20.358  0.00  0.00    +0.000 A 
ATOM     19  C   UNL     1       0.989   8.422  21.625  0.00  0.00    +0.000 A 
ATOM     20  S   UNL     1       0.226   9.547  22.653  0.00  0.00    +0.000 S 
ENDBRANCH   1  18
TORSDOF 3
ENDMDL
MODEL 9
REMARK VINA RESULT:      -6.3      1.080      1.446
REMARK  Name = 
REMARK  5 active torsions:
REMARK  status: ('A' for Active; 'I' for Inactive)
REMARK    1  A    between atoms: C_1  and  C_2
REMARK    2  A    between atoms: C_4  and  C_5
REMARK    3  A    between atoms: N_7  and  C_8
REMARK    4  A    between atoms: C_12  and  N_13
REMARK    5  A    between atoms: C_16  and  C_17
REMARK                            x       y       z     vdW  Elec       q    Type
REMARK                         _______ _______ _______ _____ _____    ______ ____
ROOT
ATOM      1  C   UNL     1       5.305   4.658  16.837  0.00  0.00    +0.000 C 
ATOM      2  O   UNL     1       5.956   4.365  17.842  0.00  0.00    +0.000 OA
ATOM      3  N   UNL     1       3.953   4.971  16.852  0.00  0.00    +0.000 N 
ATOM      4  H   UNL     1       3.458   4.814  15.991  0.00  0.00    +0.000 HD
ENDROOT
BRANCH   3   5
ATOM      5  C   UNL     1       3.201   5.030  18.050  0.00  0.00    +0.000 A 
ATOM      6  C   UNL     1       3.166   6.229  18.787  0.00  0.00    +0.000 A 
ATOM      7  C   UNL     1       2.425   6.328  19.969  0.00  0.00    +0.000 A 
ATOM      8  C   UNL     1       1.723   5.223  20.430  0.00  0.00    +0.000 A 
ATOM      9  C   UNL     1       1.762   4.028  19.696  0.00  0.00    +0.000 A 
ATOM     10  C   UNL     1       2.497   3.897  18.494  0.00  0.00    +0.000 A 
ATOM     11  C   UNL     1       2.620   2.595  17.754  0.00  0.00    +0.000 C 
BRANCH   9  12
ATOM     12  N   UNL     1       1.023   2.905  20.244  0.00  0.00    +0.000 N 
ATOM     13  O   UNL     1       0.120   2.429  19.543  0.00  0.00    +0.000 OA
ATOM     14  O   UNL     1       1.363   2.497  21.362  0.00  0.00    +0.000 OA
ENDBRANCH   9  12
ENDBRANCH   3   5
BRANCH   1  18
ATOM     15  C   UNL     1       8.421   5.610  12.819  0.00  0.00    +0.000 C 
ATOM     16  C   UNL     1       7.348   5.052  13.689  0.00  0.00    +0.000 A 
ATOM     17  C   UNL     1       7.017   5.390  14.988  0.00  0.00    +0.000 A 
ATOM     18  C   UNL     1       5.919   4.617  15.505  0.00  0.00    +0.000 A 
ATOM     19  C   UNL     1       5.476   3.720  14.549  0.00  0.00    +0.000 A 
ATOM     20  S   UNL     1       6.341   3.810  13.084  0.00  0.00    +0.000 S 
ENDBRANCH   1  18
TORSDOF 3
ENDMDL
