MODEL 1
REMARK VINA RESULT:      -7.6      0.000      0.000
REMARK  Name = 
REMARK  6 active torsions:
REMARK  status: ('A' for Active; 'I' for Inactive)
REMARK    1  A    between atoms: C_1  and  C_2
REMARK    2  A    between atoms: C_8  and  O_9
REMARK    3  A    between atoms: O_9  and  C_10
REMARK    4  A    between atoms: C_13  and  C_15
REMARK    5  A    between atoms: N_18  and  S_19
REMARK    6  A    between atoms: S_19  and  C_20
REMARK                            x       y       z     vdW  Elec       q    Type
REMARK                         _______ _______ _______ _____ _____    ______ ____
ROOT
ATOM      1  C   UNL     1       1.695   6.332  19.978  0.00  0.00    +0.000 C 
ATOM      2  C   UNL     1       1.292   7.052  21.288  0.00  0.00    +0.000 C 
ATOM      3  N   UNL     1       1.500   8.300  20.559  0.00  0.00    +0.000 N 
ATOM      4  C   UNL     1       0.661   9.387  20.518  0.00  0.00    +0.000 C 
ATOM      5  O   UNL     1      -0.245   9.523  21.337  0.00  0.00    +0.000 OA
ATOM      6  C   UNL     1       2.377   7.667  19.582  0.00  0.00    +0.000 C 
ENDROOT
BRANCH   4   7
ATOM      7  C   UNL     1       0.916  10.424  19.420  0.00  0.00    +0.000 C 
ATOM      8  C   UNL     1       0.060  11.676  19.590  0.00  0.00    +0.000 C 
ATOM      9  C   UNL     1      -1.416  11.430  19.286  0.00  0.00    +0.000 C 
ATOM     10  N   UNL     1      -1.615  10.796  17.962  0.00  0.00    +0.000 NA
ATOM     11  C   UNL     1      -0.767   9.618  17.662  0.00  0.00    +0.000 C 
ATOM     12  C   UNL     1       0.698   9.865  18.007  0.00  0.00    +0.000 C 
BRANCH  10  13
ATOM     13  S   UNL     1      -3.242  10.670  17.444  0.00  0.00    +0.000 S 
ATOM     14  C   UNL     1      -3.148  10.894  15.670  0.00  0.00    +0.000 C 
ATOM     15  O   UNL     1      -3.683   9.312  17.691  0.00  0.00    +0.000 OA
ATOM     16  O   UNL     1      -3.966  11.798  17.986  0.00  0.00    +0.000 OA
ENDBRANCH  10  13
ENDBRANCH   4   7
BRANCH   1  17
ATOM     17  O   UNL     1       2.526   5.165  20.161  0.00  0.00    +0.000 OA
BRANCH  17  25
ATOM     18  C   UNL     1       7.734   5.695  19.153  0.00  0.00    +0.000 C 
ATOM     19  C   UNL     1       6.858   5.113  18.082  0.00  0.00    +0.000 A 
ATOM     20  C   UNL     1       7.430   4.698  16.862  0.00  0.00    +0.000 A 
ATOM     21  C   UNL     1       6.648   4.177  15.835  0.00  0.00    +0.000 A 
ATOM     22  C   UNL     1       5.266   4.058  15.985  0.00  0.00    +0.000 A 
ATOM     23  C   UNL     1       4.693   4.454  17.205  0.00  0.00    +0.000 A 
ATOM     24  S   UNL     1       3.040   4.404  17.686  0.00  0.00    +0.000 S 
ATOM     25  C   UNL     1       3.466   5.013  19.228  0.00  0.00    +0.000 A 
ATOM     26  N   UNL     1       4.736   5.290  19.408  0.00  0.00    +0.000 NA
ATOM     27  C   UNL     1       5.456   4.970  18.256  0.00  0.00    +0.000 A 
ENDBRANCH  17  25
ENDBRANCH   1  17
TORSDOF 4
ENDMDL
MODEL 2
REMARK VINA RESULT:      -7.5      1.882      2.597
REMARK  Name = 
REMARK  6 active torsions:
REMARK  status: ('A' for Active; 'I' for Inactive)
REMARK    1  A    between atoms: C_1  and  C_2
REMARK    2  A    between atoms: C_8  and  O_9
REMARK    3  A    between atoms: O_9  and  C_10
REMARK    4  A    between atoms: C_13  and  C_15
REMARK    5  A    between atoms: N_18  and  S_19
REMARK    6  A    between atoms: S_19  and  C_20
REMARK                            x       y       z     vdW  Elec       q    Type
REMARK                         _______ _______ _______ _____ _____    ______ ____
ROOT
ATOM      1  C   UNL     1       1.790   6.424  20.009  0.00  0.00    +0.000 C 
ATOM      2  C   UNL     1       1.531   7.421  21.166  0.00  0.00    +0.000 C 
ATOM      3  N   UNL     1       1.483   8.459  20.140  0.00  0.00    +0.000 N 
ATOM      4  C   UNL     1       0.538   9.446  20.002  0.00  0.00    +0.000 C 
ATOM      5  O   UNL     1      -0.233   9.722  20.919  0.00  0.00    +0.000 OA
ATOM      6  C   UNL     1       2.251   7.660  19.195  0.00  0.00    +0.000 C 
ENDROOT
BRANCH   4   7
ATOM      7  C   UNL     1       0.499  10.192  18.665  0.00  0.00    +0.000 C 
ATOM      8  C   UNL     1       1.482  11.358  18.619  0.00  0.00    +0.000 C 
ATOM      9  C   UNL     1       1.058  12.527  19.506  0.00  0.00    +0.000 C 
ATOM     10  N   UNL     1      -0.332  12.960  19.231  0.00  0.00    +0.000 NA
ATOM     11  C   UNL     1      -1.356  11.890  19.169  0.00  0.00    +0.000 C 
ATOM     12  C   UNL     1      -0.901  10.713  18.311  0.00  0.00    +0.000 C 
BRANCH  10  13
ATOM     13  S   UNL     1      -0.826  14.392  20.027  0.00  0.00    +0.000 S 
ATOM     14  C   UNL     1       0.267  14.500  21.441  0.00  0.00    +0.000 C 
ATOM     15  O   UNL     1      -0.525  15.511  19.156  0.00  0.00    +0.000 OA
ATOM     16  O   UNL     1      -2.166  14.180  20.528  0.00  0.00    +0.000 OA
ENDBRANCH  10  13
ENDBRANCH   4   7
BRANCH   1  17
ATOM     17  O   UNL     1       2.759   5.396  20.303  0.00  0.00    +0.000 OA
BRANCH  17  25
ATOM     18  C   UNL     1       7.910   5.753  18.974  0.00  0.00    +0.000 C 
ATOM     19  C   UNL     1       6.959   5.145  17.982  0.00  0.00    +0.000 A 
ATOM     20  C   UNL     1       7.450   4.663  16.752  0.00  0.00    +0.000 A 
ATOM     21  C   UNL     1       6.598   4.117  15.796  0.00  0.00    +0.000 A 
ATOM     22  C   UNL     1       5.224   4.040  16.031  0.00  0.00    +0.000 A 
ATOM     23  C   UNL     1       4.733   4.502  17.263  0.00  0.00    +0.000 A 
ATOM     24  S   UNL     1       3.111   4.515  17.840  0.00  0.00    +0.000 S 
ATOM     25  C   UNL     1       3.639   5.180  19.325  0.00  0.00    +0.000 A 
ATOM     26  N   UNL     1       4.923   5.433  19.419  0.00  0.00    +0.000 NA
ATOM     27  C   UNL     1       5.567   5.045  18.243  0.00  0.00    +0.000 A 
ENDBRANCH  17  25
ENDBRANCH   1  17
TORSDOF 4
ENDMDL
MODEL 3
REMARK VINA RESULT:      -7.4      3.866      5.306
REMARK  Name = 
REMARK  6 active torsions:
REMARK  status: ('A' for Active; 'I' for Inactive)
REMARK    1  A    between atoms: C_1  and  C_2
REMARK    2  A    between atoms: C_8  and  O_9
REMARK    3  A    between atoms: O_9  and  C_10
REMARK    4  A    between atoms: C_13  and  C_15
REMARK    5  A    between atoms: N_18  and  S_19
REMARK    6  A    between atoms: S_19  and  C_20
REMARK                            x       y       z     vdW  Elec       q    Type
REMARK                         _______ _______ _______ _____ _____    ______ ____
ROOT
ATOM      1  C   UNL     1       1.229   8.552  20.736  0.00  0.00    +0.000 C 
ATOM      2  C   UNL     1       1.300   9.016  22.212  0.00  0.00    +0.000 C 
ATOM      3  N   UNL     1       0.508  10.170  21.792  0.00  0.00    +0.000 N 
ATOM      4  C   UNL     1      -0.609  10.678  22.409  0.00  0.00    +0.000 C 
ATOM      5  O   UNL     1      -0.898  10.365  23.562  0.00  0.00    +0.000 OA
ATOM      6  C   UNL     1       0.917  10.033  20.400  0.00  0.00    +0.000 C 
ENDROOT
BRANCH   4   7
ATOM      7  C   UNL     1      -1.464  11.661  21.603  0.00  0.00    +0.000 C 
ATOM      8  C   UNL     1      -0.630  12.761  20.951  0.00  0.00    +0.000 C 
ATOM      9  C   UNL     1      -0.081  13.765  21.961  0.00  0.00    +0.000 C 
ATOM     10  N   UNL     1      -1.143  14.316  22.835  0.00  0.00    +0.000 NA
ATOM     11  C   UNL     1      -2.065  13.333  23.452  0.00  0.00    +0.000 C 
ATOM     12  C   UNL     1      -2.574  12.313  22.438  0.00  0.00    +0.000 C 
BRANCH  10  13
ATOM     13  S   UNL     1      -0.660  15.601  23.858  0.00  0.00    +0.000 S 
ATOM     14  C   UNL     1      -1.790  16.928  23.446  0.00  0.00    +0.000 C 
ATOM     15  O   UNL     1      -0.931  15.204  25.225  0.00  0.00    +0.000 OA
ATOM     16  O   UNL     1       0.664  16.016  23.451  0.00  0.00    +0.000 OA
ENDBRANCH  10  13
ENDBRANCH   4   7
BRANCH   1  17
ATOM     17  O   UNL     1       2.451   7.977  20.225  0.00  0.00    +0.000 OA
BRANCH  17  25
ATOM     18  C   UNL     1       1.456   2.985  21.812  0.00  0.00    +0.000 C 
ATOM     19  C   UNL     1       1.642   3.242  20.344  0.00  0.00    +0.000 A 
ATOM     20  C   UNL     1       1.521   2.176  19.430  0.00  0.00    +0.000 A 
ATOM     21  C   UNL     1       1.710   2.367  18.065  0.00  0.00    +0.000 A 
ATOM     22  C   UNL     1       2.037   3.628  17.563  0.00  0.00    +0.000 A 
ATOM     23  C   UNL     1       2.141   4.697  18.468  0.00  0.00    +0.000 A 
ATOM     24  S   UNL     1       2.502   6.350  18.147  0.00  0.00    +0.000 S 
ATOM     25  C   UNL     1       2.327   6.716  19.809  0.00  0.00    +0.000 A 
ATOM     26  N   UNL     1       2.059   5.702  20.598  0.00  0.00    +0.000 NA
ATOM     27  C   UNL     1       1.945   4.534  19.842  0.00  0.00    +0.000 A 
ENDBRANCH  17  25
ENDBRANCH   1  17
TORSDOF 4
ENDMDL
MODEL 4
REMARK VINA RESULT:      -7.3      2.572      3.466
REMARK  Name = 
REMARK  6 active torsions:
REMARK  status: ('A' for Active; 'I' for Inactive)
REMARK    1  A    between atoms: C_1  and  C_2
REMARK    2  A    between atoms: C_8  and  O_9
REMARK    3  A    between atoms: O_9  and  C_10
REMARK    4  A    between atoms: C_13  and  C_15
REMARK    5  A    between atoms: N_18  and  S_19
REMARK    6  A    between atoms: S_19  and  C_20
REMARK                            x       y       z     vdW  Elec       q    Type
REMARK                         _______ _______ _______ _____ _____    ______ ____
ROOT
ATOM      1  C   UNL     1       1.891   8.574  18.361  0.00  0.00    +0.000 C 
ATOM      2  C   UNL     1       1.436   8.917  19.802  0.00  0.00    +0.000 C 
ATOM      3  N   UNL     1       0.890  10.149  19.238  0.00  0.00    +0.000 N 
ATOM      4  C   UNL     1      -0.357  10.681  19.459  0.00  0.00    +0.000 C 
ATOM      5  O   UNL     1      -1.056  10.299  20.395  0.00  0.00    +0.000 OA
ATOM      6  C   UNL     1       1.772  10.094  18.079  0.00  0.00    +0.000 C 
ENDROOT
BRANCH   4   7
ATOM      7  C   UNL     1      -0.828  11.777  18.497  0.00  0.00    +0.000 C 
ATOM      8  C   UNL     1      -1.200  13.067  19.222  0.00  0.00    +0.000 C 
ATOM      9  C   UNL     1      -2.494  12.944  20.025  0.00  0.00    +0.000 C 
ATOM     10  N   UNL     1      -3.612  12.424  19.204  0.00  0.00    +0.000 NA
ATOM     11  C   UNL     1      -3.328  11.217  18.392  0.00  0.00    +0.000 C 
ATOM     12  C   UNL     1      -2.014  11.339  17.627  0.00  0.00    +0.000 C 
BRANCH  10  13
ATOM     13  S   UNL     1      -5.149  12.447  19.958  0.00  0.00    +0.000 S 
ATOM     14  C   UNL     1      -6.005  11.050  19.235  0.00  0.00    +0.000 C 
ATOM     15  O   UNL     1      -4.957  12.161  21.366  0.00  0.00    +0.000 OA
ATOM     16  O   UNL     1      -5.834  13.645  19.528  0.00  0.00    +0.000 OA
ENDBRANCH  10  13
ENDBRANCH   4   7
BRANCH   1  17
ATOM     17  O   UNL     1       3.196   7.961  18.271  0.00  0.00    +0.000 OA
BRANCH  17  25
ATOM     18  C   UNL     1       0.851   3.694  20.443  0.00  0.00    +0.000 C 
ATOM     19  C   UNL     1       1.870   3.473  19.362  0.00  0.00    +0.000 A 
ATOM     20  C   UNL     1       2.157   2.161  18.933  0.00  0.00    +0.000 A 
ATOM     21  C   UNL     1       3.112   1.913  17.952  0.00  0.00    +0.000 A 
ATOM     22  C   UNL     1       3.823   2.964  17.370  0.00  0.00    +0.000 A 
ATOM     23  C   UNL     1       3.528   4.274  17.782  0.00  0.00    +0.000 A 
ATOM     24  S   UNL     1       4.213   5.756  17.235  0.00  0.00    +0.000 S 
ATOM     25  C   UNL     1       3.172   6.628  18.276  0.00  0.00    +0.000 A 
ATOM     26  N   UNL     1       2.377   5.907  19.031  0.00  0.00    +0.000 NA
ATOM     27  C   UNL     1       2.566   4.552  18.757  0.00  0.00    +0.000 A 
ENDBRANCH  17  25
ENDBRANCH   1  17
TORSDOF 4
ENDMDL
MODEL 5
REMARK VINA RESULT:      -7.2      2.399      3.278
REMARK  Name = 
REMARK  6 active torsions:
REMARK  status: ('A' for Active; 'I' for Inactive)
REMARK    1  A    between atoms: C_1  and  C_2
REMARK    2  A    between atoms: C_8  and  O_9
REMARK    3  A    between atoms: O_9  and  C_10
REMARK    4  A    between atoms: C_13  and  C_15
REMARK    5  A    between atoms: N_18  and  S_19
REMARK    6  A    between atoms: S_19  and  C_20
REMARK                            x       y       z     vdW  Elec       q    Type
REMARK                         _______ _______ _______ _____ _____    ______ ____
ROOT
ATOM      1  C   UNL     1       1.810   8.307  18.630  0.00  0.00    +0.000 C 
ATOM      2  C   UNL     1       1.321   8.886  19.982  0.00  0.00    +0.000 C 
ATOM      3  N   UNL     1       0.744   9.977  19.202  0.00  0.00    +0.000 N 
ATOM      4  C   UNL     1      -0.523  10.496  19.312  0.00  0.00    +0.000 C 
ATOM      5  O   UNL     1      -1.223  10.263  20.295  0.00  0.00    +0.000 OA
ATOM      6  C   UNL     1       1.644   9.747  18.080  0.00  0.00    +0.000 C 
ENDROOT
BRANCH   4   7
ATOM      7  C   UNL     1      -1.015  11.385  18.166  0.00  0.00    +0.000 C 
ATOM      8  C   UNL     1      -1.671  12.670  18.665  0.00  0.00    +0.000 C 
ATOM      9  C   UNL     1      -3.030  12.426  19.318  0.00  0.00    +0.000 C 
ATOM     10  N   UNL     1      -3.935  11.641  18.447  0.00  0.00    +0.000 NA
ATOM     11  C   UNL     1      -3.366  10.414  17.840  0.00  0.00    +0.000 C 
ATOM     12  C   UNL     1      -1.992  10.664  17.226  0.00  0.00    +0.000 C 
BRANCH  10  13
ATOM     13  S   UNL     1      -5.547  11.495  19.004  0.00  0.00    +0.000 S 
ATOM     14  C   UNL     1      -6.475  12.586  17.930  0.00  0.00    +0.000 C 
ATOM     15  O   UNL     1      -5.987  10.140  18.738  0.00  0.00    +0.000 OA
ATOM     16  O   UNL     1      -5.605  12.048  20.339  0.00  0.00    +0.000 OA
ENDBRANCH  10  13
ENDBRANCH   4   7
BRANCH   1  17
ATOM     17  O   UNL     1       3.134   7.733  18.663  0.00  0.00    +0.000 OA
BRANCH  17  25
ATOM     18  C   UNL     1       1.097   3.295  20.802  0.00  0.00    +0.000 C 
ATOM     19  C   UNL     1       2.036   3.158  19.638  0.00  0.00    +0.000 A 
ATOM     20  C   UNL     1       2.330   1.877  19.127  0.00  0.00    +0.000 A 
ATOM     21  C   UNL     1       3.214   1.706  18.066  0.00  0.00    +0.000 A 
ATOM     22  C   UNL     1       3.845   2.806  17.483  0.00  0.00    +0.000 A 
ATOM     23  C   UNL     1       3.542   4.086  17.977  0.00  0.00    +0.000 A 
ATOM     24  S   UNL     1       4.137   5.613  17.451  0.00  0.00    +0.000 S 
ATOM     25  C   UNL     1       3.152   6.401  18.607  0.00  0.00    +0.000 A 
ATOM     26  N   UNL     1       2.440   5.621  19.386  0.00  0.00    +0.000 NA
ATOM     27  C   UNL     1       2.650   4.286  19.034  0.00  0.00    +0.000 A 
ENDBRANCH  17  25
ENDBRANCH   1  17
TORSDOF 4
ENDMDL
MODEL 6
REMARK VINA RESULT:      -7.2      2.652      3.771
REMARK  Name = 
REMARK  6 active torsions:
REMARK  status: ('A' for Active; 'I' for Inactive)
REMARK    1  A    between atoms: C_1  and  C_2
REMARK    2  A    between atoms: C_8  and  O_9
REMARK    3  A    between atoms: O_9  and  C_10
REMARK    4  A    between atoms: C_13  and  C_15
REMARK    5  A    between atoms: N_18  and  S_19
REMARK    6  A    between atoms: S_19  and  C_20
REMARK                            x       y       z     vdW  Elec       q    Type
REMARK                         _______ _______ _______ _____ _____    ______ ____
ROOT
ATOM      1  C   UNL     1       2.006   8.436  18.157  0.00  0.00    +0.000 C 
ATOM      2  C   UNL     1       1.645   8.765  19.627  0.00  0.00    +0.000 C 
ATOM      3  N   UNL     1       1.086  10.013  19.114  0.00  0.00    +0.000 N 
ATOM      4  C   UNL     1      -0.136  10.562  19.418  0.00  0.00    +0.000 C 
ATOM      5  O   UNL     1      -0.783  10.177  20.390  0.00  0.00    +0.000 OA
ATOM      6  C   UNL     1       1.894   9.961  17.903  0.00  0.00    +0.000 C 
ENDROOT
BRANCH   4   7
ATOM      7  C   UNL     1      -0.647  11.679  18.502  0.00  0.00    +0.000 C 
ATOM      8  C   UNL     1      -0.532  13.058  19.146  0.00  0.00    +0.000 C 
ATOM      9  C   UNL     1      -1.531  13.267  20.282  0.00  0.00    +0.000 C 
ATOM     10  N   UNL     1      -2.920  12.959  19.867  0.00  0.00    +0.000 NA
ATOM     11  C   UNL     1      -3.127  11.676  19.155  0.00  0.00    +0.000 C 
ATOM     12  C   UNL     1      -2.097  11.464  18.049  0.00  0.00    +0.000 C 
BRANCH  10  13
ATOM     13  S   UNL     1      -4.133  13.361  21.006  0.00  0.00    +0.000 S 
ATOM     14  C   UNL     1      -3.573  12.590  22.522  0.00  0.00    +0.000 C 
ATOM     15  O   UNL     1      -4.096  14.796  21.206  0.00  0.00    +0.000 OA
ATOM     16  O   UNL     1      -5.353  12.696  20.605  0.00  0.00    +0.000 OA
ENDBRANCH  10  13
ENDBRANCH   4   7
BRANCH   1  17
ATOM     17  O   UNL     1       3.291   7.803  17.978  0.00  0.00    +0.000 OA
BRANCH  17  25
ATOM     18  C   UNL     1       0.810   3.705  20.317  0.00  0.00    +0.000 C 
ATOM     19  C   UNL     1       1.890   3.406  19.317  0.00  0.00    +0.000 A 
ATOM     20  C   UNL     1       2.197   2.067  19.002  0.00  0.00    +0.000 A 
ATOM     21  C   UNL     1       3.208   1.748  18.099  0.00  0.00    +0.000 A 
ATOM     22  C   UNL     1       3.954   2.755  17.485  0.00  0.00    +0.000 A 
ATOM     23  C   UNL     1       3.639   4.091  17.781  0.00  0.00    +0.000 A 
ATOM     24  S   UNL     1       4.361   5.530  17.168  0.00  0.00    +0.000 S 
ATOM     25  C   UNL     1       3.263   6.474  18.080  0.00  0.00    +0.000 A 
ATOM     26  N   UNL     1       2.423   5.810  18.838  0.00  0.00    +0.000 NA
ATOM     27  C   UNL     1       2.623   4.439  18.675  0.00  0.00    +0.000 A 
ENDBRANCH  17  25
ENDBRANCH   1  17
TORSDOF 4
ENDMDL
MODEL 7
REMARK VINA RESULT:      -7.2      2.805      4.050
REMARK  Name = 
REMARK  6 active torsions:
REMARK  status: ('A' for Active; 'I' for Inactive)
REMARK    1  A    between atoms: C_1  and  C_2
REMARK    2  A    between atoms: C_8  and  O_9
REMARK    3  A    between atoms: O_9  and  C_10
REMARK    4  A    between atoms: C_13  and  C_15
REMARK    5  A    between atoms: N_18  and  S_19
REMARK    6  A    between atoms: S_19  and  C_20
REMARK                            x       y       z     vdW  Elec       q    Type
REMARK                         _______ _______ _______ _____ _____    ______ ____
ROOT
ATOM      1  C   UNL     1       1.987   8.445  18.137  0.00  0.00    +0.000 C 
ATOM      2  C   UNL     1       1.657   8.782  19.612  0.00  0.00    +0.000 C 
ATOM      3  N   UNL     1       1.066  10.017  19.103  0.00  0.00    +0.000 N 
ATOM      4  C   UNL     1      -0.157  10.548  19.432  0.00  0.00    +0.000 C 
ATOM      5  O   UNL     1      -0.773  10.162  20.423  0.00  0.00    +0.000 OA
ATOM      6  C   UNL     1       1.845   9.966  17.873  0.00  0.00    +0.000 C 
ENDROOT
BRANCH   4   7
ATOM      7  C   UNL     1      -0.707  11.648  18.519  0.00  0.00    +0.000 C 
ATOM      8  C   UNL     1      -0.049  13.002  18.775  0.00  0.00    +0.000 C 
ATOM      9  C   UNL     1      -0.472  13.623  20.105  0.00  0.00    +0.000 C 
ATOM     10  N   UNL     1      -1.944  13.684  20.250  0.00  0.00    +0.000 NA
ATOM     11  C   UNL     1      -2.689  12.441  19.940  0.00  0.00    +0.000 C 
ATOM     12  C   UNL     1      -2.230  11.811  18.628  0.00  0.00    +0.000 C 
BRANCH  10  13
ATOM     13  S   UNL     1      -2.513  14.551  21.611  0.00  0.00    +0.000 S 
ATOM     14  C   UNL     1      -3.198  13.284  22.675  0.00  0.00    +0.000 C 
ATOM     15  O   UNL     1      -1.364  15.117  22.289  0.00  0.00    +0.000 OA
ATOM     16  O   UNL     1      -3.608  15.390  21.175  0.00  0.00    +0.000 OA
ENDBRANCH  10  13
ENDBRANCH   4   7
BRANCH   1  17
ATOM     17  O   UNL     1       3.279   7.831  17.932  0.00  0.00    +0.000 OA
BRANCH  17  25
ATOM     18  C   UNL     1       0.823   3.708  20.254  0.00  0.00    +0.000 C 
ATOM     19  C   UNL     1       1.933   3.421  19.284  0.00  0.00    +0.000 A 
ATOM     20  C   UNL     1       2.275   2.085  18.992  0.00  0.00    +0.000 A 
ATOM     21  C   UNL     1       3.314   1.778  18.118  0.00  0.00    +0.000 A 
ATOM     22  C   UNL     1       4.055   2.792  17.511  0.00  0.00    +0.000 A 
ATOM     23  C   UNL     1       3.706   4.125  17.785  0.00  0.00    +0.000 A 
ATOM     24  S   UNL     1       4.413   5.572  17.174  0.00  0.00    +0.000 S 
ATOM     25  C   UNL     1       3.275   6.503  18.048  0.00  0.00    +0.000 A 
ATOM     26  N   UNL     1       2.429   5.830  18.793  0.00  0.00    +0.000 NA
ATOM     27  C   UNL     1       2.661   4.461  18.650  0.00  0.00    +0.000 A 
ENDBRANCH  17  25
ENDBRANCH   1  17
TORSDOF 4
ENDMDL
MODEL 8
REMARK VINA RESULT:      -7.2      3.037      4.420
REMARK  Name = 
REMARK  6 active torsions:
REMARK  status: ('A' for Active; 'I' for Inactive)
REMARK    1  A    between atoms: C_1  and  C_2
REMARK    2  A    between atoms: C_8  and  O_9
REMARK    3  A    between atoms: O_9  and  C_10
REMARK    4  A    between atoms: C_13  and  C_15
REMARK    5  A    between atoms: N_18  and  S_19
REMARK    6  A    between atoms: S_19  and  C_20
REMARK                            x       y       z     vdW  Elec       q    Type
REMARK                         _______ _______ _______ _____ _____    ______ ____
ROOT
ATOM      1  C   UNL     1       1.971   8.412  18.132  0.00  0.00    +0.000 C 
ATOM      2  C   UNL     1       1.730   8.508  19.659  0.00  0.00    +0.000 C 
ATOM      3  N   UNL     1       1.171   9.831  19.395  0.00  0.00    +0.000 N 
ATOM      4  C   UNL     1      -0.009  10.344  19.876  0.00  0.00    +0.000 C 
ATOM      5  O   UNL     1      -0.592   9.821  20.822  0.00  0.00    +0.000 OA
ATOM      6  C   UNL     1       1.886   9.959  18.132  0.00  0.00    +0.000 C 
ENDROOT
BRANCH   4   7
ATOM      7  C   UNL     1      -0.553  11.602  19.190  0.00  0.00    +0.000 C 
ATOM      8  C   UNL     1       0.457  12.746  19.185  0.00  0.00    +0.000 C 
ATOM      9  C   UNL     1       0.669  13.356  20.569  0.00  0.00    +0.000 C 
ATOM     10  N   UNL     1      -0.609  13.745  21.209  0.00  0.00    +0.000 NA
ATOM     11  C   UNL     1      -1.690  12.731  21.192  0.00  0.00    +0.000 C 
ATOM     12  C   UNL     1      -1.864  12.103  19.812  0.00  0.00    +0.000 C 
BRANCH  10  13
ATOM     13  S   UNL     1      -0.462  14.625  22.669  0.00  0.00    +0.000 S 
ATOM     14  C   UNL     1      -1.699  15.912  22.525  0.00  0.00    +0.000 C 
ATOM     15  O   UNL     1      -0.863  13.753  23.755  0.00  0.00    +0.000 OA
ATOM     16  O   UNL     1       0.834  15.266  22.670  0.00  0.00    +0.000 OA
ENDBRANCH  10  13
ENDBRANCH   4   7
BRANCH   1  17
ATOM     17  O   UNL     1       3.221   7.794  17.757  0.00  0.00    +0.000 OA
BRANCH  17  25
ATOM     18  C   UNL     1       0.843   3.701  20.209  0.00  0.00    +0.000 C 
ATOM     19  C   UNL     1       1.964   3.405  19.255  0.00  0.00    +0.000 A 
ATOM     20  C   UNL     1       2.336   2.067  19.010  0.00  0.00    +0.000 A 
ATOM     21  C   UNL     1       3.385   1.752  18.152  0.00  0.00    +0.000 A 
ATOM     22  C   UNL     1       4.108   2.761  17.514  0.00  0.00    +0.000 A 
ATOM     23  C   UNL     1       3.729   4.095  17.740  0.00  0.00    +0.000 A 
ATOM     24  S   UNL     1       4.408   5.534  17.082  0.00  0.00    +0.000 S 
ATOM     25  C   UNL     1       3.245   6.470  17.918  0.00  0.00    +0.000 A 
ATOM     26  N   UNL     1       2.411   5.806  18.682  0.00  0.00    +0.000 NA
ATOM     27  C   UNL     1       2.673   4.438  18.588  0.00  0.00    +0.000 A 
ENDBRANCH  17  25
ENDBRANCH   1  17
TORSDOF 4
ENDMDL
MODEL 9
REMARK VINA RESULT:      -7.2      2.864      8.782
REMARK  Name = 
REMARK  6 active torsions:
REMARK  status: ('A' for Active; 'I' for Inactive)
REMARK    1  A    between atoms: C_1  and  C_2
REMARK    2  A    between atoms: C_8  and  O_9
REMARK    3  A    between atoms: O_9  and  C_10
REMARK    4  A    between atoms: C_13  and  C_15
REMARK    5  A    between atoms: N_18  and  S_19
REMARK    6  A    between atoms: S_19  and  C_20
REMARK                            x       y       z     vdW  Elec       q    Type
REMARK                         _______ _______ _______ _____ _____    ______ ____
ROOT
ATOM      1  C   UNL     1       0.635   8.603  20.371  0.00  0.00    +0.000 C 
ATOM      2  C   UNL     1       1.649   9.124  19.323  0.00  0.00    +0.000 C 
ATOM      3  N   UNL     1       2.301   7.823  19.441  0.00  0.00    +0.000 N 
ATOM      4  C   UNL     1       2.716   7.007  18.418  0.00  0.00    +0.000 C 
ATOM      5  O   UNL     1       2.825   7.431  17.269  0.00  0.00    +0.000 OA
ATOM      6  C   UNL     1       1.730   7.577  20.759  0.00  0.00    +0.000 C 
ENDROOT
BRANCH   4   7
ATOM      7  C   UNL     1       3.049   5.555  18.775  0.00  0.00    +0.000 C 
ATOM      8  C   UNL     1       4.337   5.434  19.585  0.00  0.00    +0.000 C 
ATOM      9  C   UNL     1       5.587   5.721  18.756  0.00  0.00    +0.000 C 
ATOM     10  N   UNL     1       5.632   4.913  17.516  0.00  0.00    +0.000 NA
ATOM     11  C   UNL     1       4.397   4.894  16.696  0.00  0.00    +0.000 C 
ATOM     12  C   UNL     1       3.153   4.644  17.544  0.00  0.00    +0.000 C 
BRANCH  10  13
ATOM     13  S   UNL     1       7.091   5.012  16.627  0.00  0.00    +0.000 S 
ATOM     14  C   UNL     1       6.690   4.257  15.053  0.00  0.00    +0.000 C 
ATOM     15  O   UNL     1       7.368   6.413  16.382  0.00  0.00    +0.000 OA
ATOM     16  O   UNL     1       8.064   4.164  17.280  0.00  0.00    +0.000 OA
ENDBRANCH  10  13
ENDBRANCH   4   7
BRANCH   1  17
ATOM     17  O   UNL     1       0.229   9.578  21.356  0.00  0.00    +0.000 OA
BRANCH  17  25
ATOM     18  C   UNL     1       3.215  13.993  21.212  0.00  0.00    +0.000 C 
ATOM     19  C   UNL     1       1.902  13.998  20.483  0.00  0.00    +0.000 A 
ATOM     20  C   UNL     1       1.508  15.144  19.763  0.00  0.00    +0.000 A 
ATOM     21  C   UNL     1       0.288  15.197  19.096  0.00  0.00    +0.000 A 
ATOM     22  C   UNL     1      -0.588  14.112  19.131  0.00  0.00    +0.000 A 
ATOM     23  C   UNL     1      -0.193  12.960  19.832  0.00  0.00    +0.000 A 
ATOM     24  S   UNL     1      -1.040  11.474  20.029  0.00  0.00    +0.000 S 
ATOM     25  C   UNL     1       0.272  10.839  20.924  0.00  0.00    +0.000 A 
ATOM     26  N   UNL     1       1.281  11.654  21.126  0.00  0.00    +0.000 NA
ATOM     27  C   UNL     1       1.031  12.877  20.501  0.00  0.00    +0.000 A 
ENDBRANCH  17  25
ENDBRANCH   1  17
TORSDOF 4
ENDMDL
