MODEL 1
REMARK VINA RESULT:      -7.3      0.000      0.000
REMARK  Name = 
REMARK  4 active torsions:
REMARK  status: ('A' for Active; 'I' for Inactive)
REMARK    1  A    between atoms: C_1  and  C_2
REMARK    2  A    between atoms: C_4  and  C_5
REMARK    3  A    between atoms: C_7  and  N_8
REMARK    4  A    between atoms: C_9  and  C_11
REMARK                            x       y       z     vdW  Elec       q    Type
REMARK                         _______ _______ _______ _____ _____    ______ ____
ROOT
ATOM      1  N   UNL     1       3.805   4.964  17.343  0.00  0.00    +0.000 N 
ATOM      2  C   UNL     1       5.166   4.685  17.341  0.00  0.00    +0.000 C 
ATOM      3  O   UNL     1       5.857   4.456  18.330  0.00  0.00    +0.000 OA
ATOM      4  H   UNL     1       3.309   4.973  16.464  0.00  0.00    +0.000 HD
ENDROOT
BRANCH   1  11
ATOM      5  C   UNL     1       1.624   7.860  20.718  0.00  0.00    +0.000 C 
ATOM      6  C   UNL     1       1.938   6.486  20.198  0.00  0.00    +0.000 A 
ATOM      7  C   UNL     1       1.454   5.346  20.846  0.00  0.00    +0.000 A 
ATOM      8  C   UNL     1       1.747   4.076  20.353  0.00  0.00    +0.000 A 
ATOM      9  C   UNL     1       1.249   2.837  21.032  0.00  0.00    +0.000 C 
ATOM     10  C   UNL     1       2.526   3.959  19.191  0.00  0.00    +0.000 A 
ATOM     11  C   UNL     1       3.016   5.076  18.520  0.00  0.00    +0.000 A 
ATOM     12  C   UNL     1       2.728   6.346  19.039  0.00  0.00    +0.000 A 
ENDBRANCH   1  11
BRANCH   2  13
ATOM     13  C   UNL     1       5.855   4.599  16.036  0.00  0.00    +0.000 A 
ATOM     14  C   UNL     1       5.364   3.901  14.934  0.00  0.00    +0.000 A 
ATOM     15  C   UNL     1       6.055   3.983  13.723  0.00  0.00    +0.000 A 
ATOM     16  C   UNL     1       7.212   4.749  13.663  0.00  0.00    +0.000 A 
ATOM     17  N   UNL     1       7.719   5.421  14.715  0.00  0.00    +0.000 NA
ATOM     18  C   UNL     1       7.023   5.343  15.871  0.00  0.00    +0.000 A 
ENDBRANCH   2  13
TORSDOF 2
ENDMDL
MODEL 2
REMARK VINA RESULT:      -7.2      0.108      2.090
REMARK  Name = 
REMARK  4 active torsions:
REMARK  status: ('A' for Active; 'I' for Inactive)
REMARK    1  A    between atoms: C_1  and  C_2
REMARK    2  A    between atoms: C_4  and  C_5
REMARK    3  A    between atoms: C_7  and  N_8
REMARK    4  A    between atoms: C_9  and  C_11
REMARK                            x       y       z     vdW  Elec       q    Type
REMARK                         _______ _______ _______ _____ _____    ______ ____
ROOT
ATOM      1  N   UNL     1       3.850   4.959  17.376  0.00  0.00    +0.000 N 
ATOM      2  C   UNL     1       5.203   4.646  17.359  0.00  0.00    +0.000 C 
ATOM      3  O   UNL     1       5.894   4.379  18.339  0.00  0.00    +0.000 OA
ATOM      4  H   UNL     1       3.348   5.000  16.500  0.00  0.00    +0.000 HD
ENDROOT
BRANCH   1  11
ATOM      5  C   UNL     1       1.462   2.714  21.089  0.00  0.00    +0.000 C 
ATOM      6  C   UNL     1       1.883   3.978  20.396  0.00  0.00    +0.000 A 
ATOM      7  C   UNL     1       1.528   5.229  20.909  0.00  0.00    +0.000 A 
ATOM      8  C   UNL     1       1.927   6.396  20.260  0.00  0.00    +0.000 A 
ATOM      9  C   UNL     1       1.555   7.751  20.783  0.00  0.00    +0.000 C 
ATOM     10  C   UNL     1       2.697   6.298  19.090  0.00  0.00    +0.000 A 
ATOM     11  C   UNL     1       3.070   5.066  18.560  0.00  0.00    +0.000 A 
ATOM     12  C   UNL     1       2.646   3.901  19.213  0.00  0.00    +0.000 A 
ENDBRANCH   1  11
BRANCH   2  13
ATOM     13  C   UNL     1       5.882   4.570  16.048  0.00  0.00    +0.000 A 
ATOM     14  C   UNL     1       5.392   3.865  14.950  0.00  0.00    +0.000 A 
ATOM     15  C   UNL     1       6.072   3.958  13.734  0.00  0.00    +0.000 A 
ATOM     16  C   UNL     1       7.217   4.740  13.664  0.00  0.00    +0.000 A 
ATOM     17  N   UNL     1       7.722   5.420  14.711  0.00  0.00    +0.000 NA
ATOM     18  C   UNL     1       7.038   5.331  15.874  0.00  0.00    +0.000 A 
ENDBRANCH   2  13
TORSDOF 2
ENDMDL
MODEL 3
REMARK VINA RESULT:      -6.6      1.083      1.314
REMARK  Name = 
REMARK  4 active torsions:
REMARK  status: ('A' for Active; 'I' for Inactive)
REMARK    1  A    between atoms: C_1  and  C_2
REMARK    2  A    between atoms: C_4  and  C_5
REMARK    3  A    between atoms: C_7  and  N_8
REMARK    4  A    between atoms: C_9  and  C_11
REMARK                            x       y       z     vdW  Elec       q    Type
REMARK                         _______ _______ _______ _____ _____    ______ ____
ROOT
ATOM      1  N   UNL     1       4.214   4.562  16.191  0.00  0.00    +0.000 N 
ATOM      2  C   UNL     1       5.598   4.440  16.164  0.00  0.00    +0.000 C 
ATOM      3  O   UNL     1       6.328   4.293  17.140  0.00  0.00    +0.000 OA
ATOM      4  H   UNL     1       3.703   4.514  15.321  0.00  0.00    +0.000 HD
ENDROOT
BRANCH   1  11
ATOM      5  C   UNL     1       2.226   7.178  19.899  0.00  0.00    +0.000 C 
ATOM      6  C   UNL     1       2.455   5.856  19.222  0.00  0.00    +0.000 A 
ATOM      7  C   UNL     1       1.908   4.679  19.743  0.00  0.00    +0.000 A 
ATOM      8  C   UNL     1       2.123   3.459  19.106  0.00  0.00    +0.000 A 
ATOM      9  C   UNL     1       1.556   2.181  19.646  0.00  0.00    +0.000 C 
ATOM     10  C   UNL     1       2.887   3.430  17.928  0.00  0.00    +0.000 A 
ATOM     11  C   UNL     1       3.439   4.585  17.383  0.00  0.00    +0.000 A 
ATOM     12  C   UNL     1       3.230   5.802  18.046  0.00  0.00    +0.000 A 
ENDBRANCH   1  11
BRANCH   2  13
ATOM     13  C   UNL     1       6.268   4.431  14.846  0.00  0.00    +0.000 A 
ATOM     14  C   UNL     1       5.837   3.684  13.752  0.00  0.00    +0.000 A 
ATOM     15  C   UNL     1       6.492   3.843  12.529  0.00  0.00    +0.000 A 
ATOM     16  C   UNL     1       7.556   4.731  12.450  0.00  0.00    +0.000 A 
ATOM     17  N   UNL     1       8.005   5.455  13.494  0.00  0.00    +0.000 NA
ATOM     18  C   UNL     1       7.344   5.299  14.662  0.00  0.00    +0.000 A 
ENDBRANCH   2  13
TORSDOF 2
ENDMDL
MODEL 4
REMARK VINA RESULT:      -6.6      6.231      8.030
REMARK  Name = 
REMARK  4 active torsions:
REMARK  status: ('A' for Active; 'I' for Inactive)
REMARK    1  A    between atoms: C_1  and  C_2
REMARK    2  A    between atoms: C_4  and  C_5
REMARK    3  A    between atoms: C_7  and  N_8
REMARK    4  A    between atoms: C_9  and  C_11
REMARK                            x       y       z     vdW  Elec       q    Type
REMARK                         _______ _______ _______ _____ _____    ______ ____
ROOT
ATOM      1  N   UNL     1       8.986   8.987  18.926  0.00  0.00    +0.000 N 
ATOM      2  C   UNL     1       8.006   8.625  18.010  0.00  0.00    +0.000 C 
ATOM      3  O   UNL     1       7.402   9.388  17.260  0.00  0.00    +0.000 OA
ATOM      4  H   UNL     1       9.529   8.260  19.371  0.00  0.00    +0.000 HD
ENDROOT
BRANCH   1  11
ATOM      5  C   UNL     1      10.982  13.173  17.189  0.00  0.00    +0.000 C 
ATOM      6  C   UNL     1      10.387  12.398  18.329  0.00  0.00    +0.000 A 
ATOM      7  C   UNL     1      10.230  12.982  19.589  0.00  0.00    +0.000 A 
ATOM      8  C   UNL     1       9.673  12.255  20.639  0.00  0.00    +0.000 A 
ATOM      9  C   UNL     1       9.500  12.852  22.003  0.00  0.00    +0.000 C 
ATOM     10  C   UNL     1       9.262  10.931  20.411  0.00  0.00    +0.000 A 
ATOM     11  C   UNL     1       9.399  10.326  19.165  0.00  0.00    +0.000 A 
ATOM     12  C   UNL     1       9.979  11.064  18.124  0.00  0.00    +0.000 A 
ENDBRANCH   1  11
BRANCH   2  13
ATOM     13  C   UNL     1       7.681   7.190  17.871  0.00  0.00    +0.000 A 
ATOM     14  C   UNL     1       7.166   6.610  16.713  0.00  0.00    +0.000 A 
ATOM     15  C   UNL     1       7.002   5.224  16.670  0.00  0.00    +0.000 A 
ATOM     16  C   UNL     1       7.347   4.474  17.787  0.00  0.00    +0.000 A 
ATOM     17  N   UNL     1       7.833   5.007  18.925  0.00  0.00    +0.000 NA
ATOM     18  C   UNL     1       8.001   6.348  18.937  0.00  0.00    +0.000 A 
ENDBRANCH   2  13
TORSDOF 2
ENDMDL
MODEL 5
REMARK VINA RESULT:      -6.6      6.223      8.061
REMARK  Name = 
REMARK  4 active torsions:
REMARK  status: ('A' for Active; 'I' for Inactive)
REMARK    1  A    between atoms: C_1  and  C_2
REMARK    2  A    between atoms: C_4  and  C_5
REMARK    3  A    between atoms: C_7  and  N_8
REMARK    4  A    between atoms: C_9  and  C_11
REMARK                            x       y       z     vdW  Elec       q    Type
REMARK                         _______ _______ _______ _____ _____    ______ ____
ROOT
ATOM      1  N   UNL     1       9.003   8.968  18.906  0.00  0.00    +0.000 N 
ATOM      2  C   UNL     1       8.011   8.601  18.005  0.00  0.00    +0.000 C 
ATOM      3  O   UNL     1       7.396   9.360  17.260  0.00  0.00    +0.000 OA
ATOM      4  H   UNL     1       9.553   8.244  19.346  0.00  0.00    +0.000 HD
ENDROOT
BRANCH   1  11
ATOM      5  C   UNL     1       9.485  12.780  22.031  0.00  0.00    +0.000 C 
ATOM      6  C   UNL     1       9.660  12.202  20.656  0.00  0.00    +0.000 A 
ATOM      7  C   UNL     1      10.229  12.958  19.627  0.00  0.00    +0.000 A 
ATOM      8  C   UNL     1      10.391  12.411  18.356  0.00  0.00    +0.000 A 
ATOM      9  C   UNL     1      10.991  13.201  17.233  0.00  0.00    +0.000 C 
ATOM     10  C   UNL     1       9.983  11.087  18.126  0.00  0.00    +0.000 A 
ATOM     11  C   UNL     1       9.419  10.309  19.132  0.00  0.00    +0.000 A 
ATOM     12  C   UNL     1       9.245  10.879  20.400  0.00  0.00    +0.000 A 
ENDBRANCH   1  11
BRANCH   2  13
ATOM     13  C   UNL     1       7.686   7.165  17.877  0.00  0.00    +0.000 A 
ATOM     14  C   UNL     1       7.178   6.575  16.721  0.00  0.00    +0.000 A 
ATOM     15  C   UNL     1       7.013   5.188  16.690  0.00  0.00    +0.000 A 
ATOM     16  C   UNL     1       7.350   4.448  17.815  0.00  0.00    +0.000 A 
ATOM     17  N   UNL     1       7.829   4.992  18.951  0.00  0.00    +0.000 NA
ATOM     18  C   UNL     1       7.998   6.333  18.952  0.00  0.00    +0.000 A 
ENDBRANCH   2  13
TORSDOF 2
ENDMDL
MODEL 6
REMARK VINA RESULT:      -6.6      1.055      2.369
REMARK  Name = 
REMARK  4 active torsions:
REMARK  status: ('A' for Active; 'I' for Inactive)
REMARK    1  A    between atoms: C_1  and  C_2
REMARK    2  A    between atoms: C_4  and  C_5
REMARK    3  A    between atoms: C_7  and  N_8
REMARK    4  A    between atoms: C_9  and  C_11
REMARK                            x       y       z     vdW  Elec       q    Type
REMARK                         _______ _______ _______ _____ _____    ______ ____
ROOT
ATOM      1  N   UNL     1       4.006   4.525  16.336  0.00  0.00    +0.000 N 
ATOM      2  C   UNL     1       5.388   4.390  16.394  0.00  0.00    +0.000 C 
ATOM      3  O   UNL     1       6.052   4.195  17.408  0.00  0.00    +0.000 OA
ATOM      4  H   UNL     1       3.554   4.518  15.433  0.00  0.00    +0.000 HD
ENDROOT
BRANCH   1  11
ATOM      5  C   UNL     1       0.755   2.065  19.149  0.00  0.00    +0.000 C 
ATOM      6  C   UNL     1       1.546   3.312  18.871  0.00  0.00    +0.000 A 
ATOM      7  C   UNL     1       1.458   4.420  19.718  0.00  0.00    +0.000 A 
ATOM      8  C   UNL     1       2.199   5.570  19.454  0.00  0.00    +0.000 A 
ATOM      9  C   UNL     1       2.119   6.776  20.340  0.00  0.00    +0.000 C 
ATOM     10  C   UNL     1       3.043   5.596  18.332  0.00  0.00    +0.000 A 
ATOM     11  C   UNL     1       3.155   4.505  17.474  0.00  0.00    +0.000 A 
ATOM     12  C   UNL     1       2.389   3.363  17.743  0.00  0.00    +0.000 A 
ENDBRANCH   1  11
BRANCH   2  13
ATOM     13  C   UNL     1       6.143   4.430  15.123  0.00  0.00    +0.000 A 
ATOM     14  C   UNL     1       5.787   3.723  13.976  0.00  0.00    +0.000 A 
ATOM     15  C   UNL     1       6.520   3.927  12.805  0.00  0.00    +0.000 A 
ATOM     16  C   UNL     1       7.585   4.818  12.829  0.00  0.00    +0.000 A 
ATOM     17  N   UNL     1       7.962   5.504  13.926  0.00  0.00    +0.000 NA
ATOM     18  C   UNL     1       7.226   5.305  15.042  0.00  0.00    +0.000 A 
ENDBRANCH   2  13
TORSDOF 2
ENDMDL
MODEL 7
REMARK VINA RESULT:      -6.5      2.166      6.433
REMARK  Name = 
REMARK  4 active torsions:
REMARK  status: ('A' for Active; 'I' for Inactive)
REMARK    1  A    between atoms: C_1  and  C_2
REMARK    2  A    between atoms: C_4  and  C_5
REMARK    3  A    between atoms: C_7  and  N_8
REMARK    4  A    between atoms: C_9  and  C_11
REMARK                            x       y       z     vdW  Elec       q    Type
REMARK                         _______ _______ _______ _____ _____    ______ ____
ROOT
ATOM      1  N   UNL     1       4.100   4.836  18.291  0.00  0.00    +0.000 N 
ATOM      2  C   UNL     1       4.222   3.832  19.244  0.00  0.00    +0.000 C 
ATOM      3  O   UNL     1       5.252   3.226  19.525  0.00  0.00    +0.000 OA
ATOM      4  H   UNL     1       3.247   5.376  18.259  0.00  0.00    +0.000 HD
ENDROOT
BRANCH   1  11
ATOM      5  C   UNL     1       7.903   7.920  17.545  0.00  0.00    +0.000 C 
ATOM      6  C   UNL     1       7.038   6.790  17.064  0.00  0.00    +0.000 A 
ATOM      7  C   UNL     1       7.279   6.175  15.832  0.00  0.00    +0.000 A 
ATOM      8  C   UNL     1       6.474   5.125  15.398  0.00  0.00    +0.000 A 
ATOM      9  C   UNL     1       6.704   4.453  14.078  0.00  0.00    +0.000 C 
ATOM     10  C   UNL     1       5.422   4.686  16.220  0.00  0.00    +0.000 A 
ATOM     11  C   UNL     1       5.162   5.275  17.454  0.00  0.00    +0.000 A 
ATOM     12  C   UNL     1       5.970   6.342  17.868  0.00  0.00    +0.000 A 
ENDBRANCH   1  11
BRANCH   2  13
ATOM     13  C   UNL     1       3.027   3.483  20.041  0.00  0.00    +0.000 A 
ATOM     14  C   UNL     1       1.715   3.715  19.632  0.00  0.00    +0.000 A 
ATOM     15  C   UNL     1       0.669   3.242  20.427  0.00  0.00    +0.000 A 
ATOM     16  C   UNL     1       0.973   2.568  21.602  0.00  0.00    +0.000 A 
ATOM     17  N   UNL     1       2.230   2.342  22.030  0.00  0.00    +0.000 NA
ATOM     18  C   UNL     1       3.226   2.792  21.236  0.00  0.00    +0.000 A 
ENDBRANCH   2  13
TORSDOF 2
ENDMDL
MODEL 8
REMARK VINA RESULT:      -6.5      2.157      6.663
REMARK  Name = 
REMARK  4 active torsions:
REMARK  status: ('A' for Active; 'I' for Inactive)
REMARK    1  A    between atoms: C_1  and  C_2
REMARK    2  A    between atoms: C_4  and  C_5
REMARK    3  A    between atoms: C_7  and  N_8
REMARK    4  A    between atoms: C_9  and  C_11
REMARK                            x       y       z     vdW  Elec       q    Type
REMARK                         _______ _______ _______ _____ _____    ______ ____
ROOT
ATOM      1  N   UNL     1       4.071   4.794  18.277  0.00  0.00    +0.000 N 
ATOM      2  C   UNL     1       4.215   3.839  19.276  0.00  0.00    +0.000 C 
ATOM      3  O   UNL     1       5.263   3.286  19.600  0.00  0.00    +0.000 OA
ATOM      4  H   UNL     1       3.198   5.298  18.208  0.00  0.00    +0.000 HD
ENDROOT
BRANCH   1  11
ATOM      5  C   UNL     1       6.577   4.347  14.028  0.00  0.00    +0.000 C 
ATOM      6  C   UNL     1       6.383   5.029  15.352  0.00  0.00    +0.000 A 
ATOM      7  C   UNL     1       7.213   6.083  15.745  0.00  0.00    +0.000 A 
ATOM      8  C   UNL     1       7.021   6.713  16.973  0.00  0.00    +0.000 A 
ATOM      9  C   UNL     1       7.901   7.839  17.424  0.00  0.00    +0.000 C 
ATOM     10  C   UNL     1       5.976   6.280  17.806  0.00  0.00    +0.000 A 
ATOM     11  C   UNL     1       5.130   5.237  17.439  0.00  0.00    +0.000 A 
ATOM     12  C   UNL     1       5.348   4.602  16.208  0.00  0.00    +0.000 A 
ENDBRANCH   1  11
BRANCH   2  13
ATOM     13  C   UNL     1       3.021   3.478  20.069  0.00  0.00    +0.000 A 
ATOM     14  C   UNL     1       1.709   3.736  19.674  0.00  0.00    +0.000 A 
ATOM     15  C   UNL     1       0.662   3.250  20.460  0.00  0.00    +0.000 A 
ATOM     16  C   UNL     1       0.965   2.537  21.612  0.00  0.00    +0.000 A 
ATOM     17  N   UNL     1       2.222   2.286  22.027  0.00  0.00    +0.000 NA
ATOM     18  C   UNL     1       3.219   2.749  21.241  0.00  0.00    +0.000 A 
ENDBRANCH   2  13
TORSDOF 2
ENDMDL
MODEL 9
REMARK VINA RESULT:      -6.5      1.329      2.614
REMARK  Name = 
REMARK  4 active torsions:
REMARK  status: ('A' for Active; 'I' for Inactive)
REMARK    1  A    between atoms: C_1  and  C_2
REMARK    2  A    between atoms: C_4  and  C_5
REMARK    3  A    between atoms: C_7  and  N_8
REMARK    4  A    between atoms: C_9  and  C_11
REMARK                            x       y       z     vdW  Elec       q    Type
REMARK                         _______ _______ _______ _____ _____    ______ ____
ROOT
ATOM      1  N   UNL     1       4.612   4.586  16.230  0.00  0.00    +0.000 N 
ATOM      2  C   UNL     1       5.981   4.547  15.996  0.00  0.00    +0.000 C 
ATOM      3  O   UNL     1       6.860   4.563  16.853  0.00  0.00    +0.000 OA
ATOM      4  H   UNL     1       3.981   4.402  15.463  0.00  0.00    +0.000 HD
ENDROOT
BRANCH   1  11
ATOM      5  C   UNL     1       3.452   2.478  20.560  0.00  0.00    +0.000 C 
ATOM      6  C   UNL     1       3.441   3.681  19.660  0.00  0.00    +0.000 A 
ATOM      7  C   UNL     1       2.881   4.890  20.085  0.00  0.00    +0.000 A 
ATOM      8  C   UNL     1       2.879   6.000  19.244  0.00  0.00    +0.000 A 
ATOM      9  C   UNL     1       2.279   7.306  19.670  0.00  0.00    +0.000 C 
ATOM     10  C   UNL     1       3.456   5.891  17.968  0.00  0.00    +0.000 A 
ATOM     11  C   UNL     1       4.026   4.703  17.521  0.00  0.00    +0.000 A 
ATOM     12  C   UNL     1       4.004   3.589  18.371  0.00  0.00    +0.000 A 
ENDBRANCH   1  11
BRANCH   2  13
ATOM     13  C   UNL     1       6.442   4.422  14.598  0.00  0.00    +0.000 A 
ATOM     14  C   UNL     1       5.880   3.558  13.660  0.00  0.00    +0.000 A 
ATOM     15  C   UNL     1       6.334   3.609  12.340  0.00  0.00    +0.000 A 
ATOM     16  C   UNL     1       7.338   4.511  12.012  0.00  0.00    +0.000 A 
ATOM     17  N   UNL     1       7.912   5.346  12.900  0.00  0.00    +0.000 NA
ATOM     18  C   UNL     1       7.443   5.293  14.167  0.00  0.00    +0.000 A 
ENDBRANCH   2  13
TORSDOF 2
ENDMDL
