MODEL 1
REMARK VINA RESULT:      -8.0      0.000      0.000
REMARK  Name = 
REMARK  3 active torsions:
REMARK  status: ('A' for Active; 'I' for Inactive)
REMARK    1  A    between atoms: C_1  and  N_2
REMARK    2  A    between atoms: N_2  and  C_3
REMARK    3  A    between atoms: C_6  and  C_7
REMARK                            x       y       z     vdW  Elec       q    Type
REMARK                         _______ _______ _______ _____ _____    ______ ____
ROOT
ATOM      1  C   UNL     1       3.926   5.934  18.396  0.00  0.00    +0.000 A 
ATOM      2  C   UNL     1       3.985   5.119  19.480  0.00  0.00    +0.000 A 
ATOM      3  C   UNL     1       5.035   4.100  19.564  0.00  0.00    +0.000 A 
ATOM      4  O   UNL     1       4.842   2.933  19.862  0.00  0.00    +0.000 OA
ATOM      5  O   UNL     1       6.248   4.702  19.379  0.00  0.00    +0.000 OA
ATOM      6  C   UNL     1       6.229   5.028  18.024  0.00  0.00    +0.000 A 
ATOM      7  C   UNL     1       7.334   4.556  17.320  0.00  0.00    +0.000 A 
ATOM      8  C   UNL     1       7.246   4.461  15.951  0.00  0.00    +0.000 A 
ATOM      9  C   UNL     1       6.059   4.868  15.321  0.00  0.00    +0.000 A 
ATOM     10 CL   UNL     1       5.893   4.522  13.639  0.00  0.00    +0.000 Cl
ATOM     11  C   UNL     1       4.977   5.465  16.048  0.00  0.00    +0.000 A 
ATOM     12  C   UNL     1       5.047   5.577  17.431  0.00  0.00    +0.000 A 
ENDROOT
BRANCH   1  16
ATOM     13  C   UNL     1       1.238   9.341  19.216  0.00  0.00    +0.000 A 
ATOM     14  C   UNL     1       1.781   9.151  17.941  0.00  0.00    +0.000 A 
ATOM     15  C   UNL     1       2.605   8.019  17.609  0.00  0.00    +0.000 A 
ATOM     16  C   UNL     1       2.874   7.012  18.542  0.00  0.00    +0.000 A 
ATOM     17  C   UNL     1       2.224   7.174  19.792  0.00  0.00    +0.000 A 
ATOM     18  C   UNL     1       1.462   8.308  20.124  0.00  0.00    +0.000 A 
BRANCH  13  20
ATOM     19  C   UNL     1      -0.893  10.690  19.089  0.00  0.00    +0.000 C 
ATOM     20  N   UNL     1       0.423  10.384  19.617  0.00  0.00    +0.000 N 
ATOM     21  H   UNL     1       0.906  11.175  20.031  0.00  0.00    +0.000 HD
ENDBRANCH  13  20
ENDBRANCH   1  16
TORSDOF 2
ENDMDL
MODEL 2
REMARK VINA RESULT:      -7.8      2.946      4.157
REMARK  Name = 
REMARK  3 active torsions:
REMARK  status: ('A' for Active; 'I' for Inactive)
REMARK    1  A    between atoms: C_1  and  N_2
REMARK    2  A    between atoms: N_2  and  C_3
REMARK    3  A    between atoms: C_6  and  C_7
REMARK                            x       y       z     vdW  Elec       q    Type
REMARK                         _______ _______ _______ _____ _____    ______ ____
ROOT
ATOM      1  C   UNL     1       2.702   6.334  18.736  0.00  0.00    +0.000 A 
ATOM      2  C   UNL     1       3.808   6.265  17.953  0.00  0.00    +0.000 A 
ATOM      3  C   UNL     1       4.321   4.957  17.538  0.00  0.00    +0.000 A 
ATOM      4  O   UNL     1       5.492   4.621  17.608  0.00  0.00    +0.000 OA
ATOM      5  O   UNL     1       3.306   4.249  16.960  0.00  0.00    +0.000 OA
ATOM      6  C   UNL     1       2.486   3.939  18.044  0.00  0.00    +0.000 A 
ATOM      7  C   UNL     1       2.200   2.581  18.160  0.00  0.00    +0.000 A 
ATOM      8  C   UNL     1       1.753   2.107  19.371  0.00  0.00    +0.000 A 
ATOM      9  C   UNL     1       1.580   3.014  20.428  0.00  0.00    +0.000 A 
ATOM     10 CL   UNL     1       1.244   2.361  21.990  0.00  0.00    +0.000 Cl
ATOM     11  C   UNL     1       1.762   4.426  20.258  0.00  0.00    +0.000 A 
ATOM     12  C   UNL     1       2.207   4.928  19.041  0.00  0.00    +0.000 A 
ENDROOT
BRANCH   1  16
ATOM     13  C   UNL     1       0.876  10.348  18.977  0.00  0.00    +0.000 A 
ATOM     14  C   UNL     1       0.950   9.529  20.108  0.00  0.00    +0.000 A 
ATOM     15  C   UNL     1       1.598   8.244  20.095  0.00  0.00    +0.000 A 
ATOM     16  C   UNL     1       2.233   7.757  18.947  0.00  0.00    +0.000 A 
ATOM     17  C   UNL     1       2.236   8.653  17.848  0.00  0.00    +0.000 A 
ATOM     18  C   UNL     1       1.558   9.885  17.854  0.00  0.00    +0.000 A 
BRANCH  13  20
ATOM     19  C   UNL     1      -1.105  11.878  18.639  0.00  0.00    +0.000 C 
ATOM     20  N   UNL     1       0.293  11.601  18.905  0.00  0.00    +0.000 N 
ATOM     21  H   UNL     1       0.926  12.359  18.668  0.00  0.00    +0.000 HD
ENDBRANCH  13  20
ENDBRANCH   1  16
TORSDOF 2
ENDMDL
MODEL 3
REMARK VINA RESULT:      -7.8      3.419      4.436
REMARK  Name = 
REMARK  3 active torsions:
REMARK  status: ('A' for Active; 'I' for Inactive)
REMARK    1  A    between atoms: C_1  and  N_2
REMARK    2  A    between atoms: N_2  and  C_3
REMARK    3  A    between atoms: C_6  and  C_7
REMARK                            x       y       z     vdW  Elec       q    Type
REMARK                         _______ _______ _______ _____ _____    ______ ____
ROOT
ATOM      1  C   UNL     1       5.208   4.113  16.686  0.00  0.00    +0.000 A 
ATOM      2  C   UNL     1       6.259   4.343  17.512  0.00  0.00    +0.000 A 
ATOM      3  C   UNL     1       7.570   4.670  16.944  0.00  0.00    +0.000 A 
ATOM      4  O   UNL     1       8.619   4.149  17.283  0.00  0.00    +0.000 OA
ATOM      5  O   UNL     1       7.426   5.721  16.082  0.00  0.00    +0.000 OA
ATOM      6  C   UNL     1       6.747   5.151  15.007  0.00  0.00    +0.000 A 
ATOM      7  C   UNL     1       7.369   5.357  13.779  0.00  0.00    +0.000 A 
ATOM      8  C   UNL     1       7.032   4.535  12.728  0.00  0.00    +0.000 A 
ATOM      9  C   UNL     1       6.061   3.543  12.932  0.00  0.00    +0.000 A 
ATOM     10 CL   UNL     1       5.829   2.386  11.673  0.00  0.00    +0.000 Cl
ATOM     11  C   UNL     1       5.342   3.423  14.167  0.00  0.00    +0.000 A 
ATOM     12  C   UNL     1       5.660   4.247  15.240  0.00  0.00    +0.000 A 
ENDROOT
BRANCH   1  16
ATOM     13  C   UNL     1       1.766   3.514  19.387  0.00  0.00    +0.000 A 
ATOM     14  C   UNL     1       1.958   4.737  18.736  0.00  0.00    +0.000 A 
ATOM     15  C   UNL     1       3.024   4.956  17.794  0.00  0.00    +0.000 A 
ATOM     16  C   UNL     1       3.910   3.932  17.442  0.00  0.00    +0.000 A 
ATOM     17  C   UNL     1       3.627   2.675  18.034  0.00  0.00    +0.000 A 
ATOM     18  C   UNL     1       2.614   2.483  18.991  0.00  0.00    +0.000 A 
BRANCH  13  20
ATOM     19  C   UNL     1       0.946   2.721  21.640  0.00  0.00    +0.000 C 
ATOM     20  N   UNL     1       0.760   3.210  20.288  0.00  0.00    +0.000 N 
ATOM     21  H   UNL     1      -0.135   2.972  19.872  0.00  0.00    +0.000 HD
ENDBRANCH  13  20
ENDBRANCH   1  16
TORSDOF 2
ENDMDL
MODEL 4
REMARK VINA RESULT:      -7.4      2.947      3.970
REMARK  Name = 
REMARK  3 active torsions:
REMARK  status: ('A' for Active; 'I' for Inactive)
REMARK    1  A    between atoms: C_1  and  N_2
REMARK    2  A    between atoms: N_2  and  C_3
REMARK    3  A    between atoms: C_6  and  C_7
REMARK                            x       y       z     vdW  Elec       q    Type
REMARK                         _______ _______ _______ _____ _____    ______ ____
ROOT
ATOM      1  C   UNL     1       2.639   6.535  18.581  0.00  0.00    +0.000 A 
ATOM      2  C   UNL     1       3.817   6.579  17.910  0.00  0.00    +0.000 A 
ATOM      3  C   UNL     1       4.515   5.332  17.590  0.00  0.00    +0.000 A 
ATOM      4  O   UNL     1       5.704   5.136  17.782  0.00  0.00    +0.000 OA
ATOM      5  O   UNL     1       3.650   4.498  16.939  0.00  0.00    +0.000 OA
ATOM      6  C   UNL     1       2.767   4.117  17.948  0.00  0.00    +0.000 A 
ATOM      7  C   UNL     1       2.628   2.738  18.079  0.00  0.00    +0.000 A 
ATOM      8  C   UNL     1       2.119   2.240  19.256  0.00  0.00    +0.000 A 
ATOM      9  C   UNL     1       1.740   3.142  20.262  0.00  0.00    +0.000 A 
ATOM     10 CL   UNL     1       1.326   2.486  21.804  0.00  0.00    +0.000 Cl
ATOM     11  C   UNL     1       1.776   4.562  20.065  0.00  0.00    +0.000 A 
ATOM     12  C   UNL     1       2.279   5.088  18.882  0.00  0.00    +0.000 A 
ENDROOT
BRANCH   1  16
ATOM     13  C   UNL     1       1.194  10.641  19.327  0.00  0.00    +0.000 A 
ATOM     14  C   UNL     1       1.662  10.268  18.063  0.00  0.00    +0.000 A 
ATOM     15  C   UNL     1       2.077   8.925  17.754  0.00  0.00    +0.000 A 
ATOM     16  C   UNL     1       1.992   7.898  18.701  0.00  0.00    +0.000 A 
ATOM     17  C   UNL     1       1.415   8.280  19.938  0.00  0.00    +0.000 A 
ATOM     18  C   UNL     1       1.059   9.605  20.248  0.00  0.00    +0.000 A 
BRANCH  13  20
ATOM     19  C   UNL     1       1.507  12.863  20.486  0.00  0.00    +0.000 C 
ATOM     20  N   UNL     1       0.757  11.899  19.705  0.00  0.00    +0.000 N 
ATOM     21  H   UNL     1      -0.251  12.010  19.750  0.00  0.00    +0.000 HD
ENDBRANCH  13  20
ENDBRANCH   1  16
TORSDOF 2
ENDMDL
MODEL 5
REMARK VINA RESULT:      -7.4      4.951      8.477
REMARK  Name = 
REMARK  3 active torsions:
REMARK  status: ('A' for Active; 'I' for Inactive)
REMARK    1  A    between atoms: C_1  and  N_2
REMARK    2  A    between atoms: N_2  and  C_3
REMARK    3  A    between atoms: C_6  and  C_7
REMARK                            x       y       z     vdW  Elec       q    Type
REMARK                         _______ _______ _______ _____ _____    ______ ____
ROOT
ATOM      1  C   UNL     1      -0.158  10.485  18.589  0.00  0.00    +0.000 A 
ATOM      2  C   UNL     1       0.138  11.689  19.140  0.00  0.00    +0.000 A 
ATOM      3  C   UNL     1      -0.839  12.778  19.070  0.00  0.00    +0.000 A 
ATOM      4  O   UNL     1      -0.577  13.920  18.728  0.00  0.00    +0.000 OA
ATOM      5  O   UNL     1      -2.032  12.331  19.563  0.00  0.00    +0.000 OA
ATOM      6  C   UNL     1      -2.467  11.451  18.574  0.00  0.00    +0.000 A 
ATOM      7  C   UNL     1      -3.752  11.720  18.111  0.00  0.00    +0.000 A 
ATOM      8  C   UNL     1      -4.133  11.197  16.897  0.00  0.00    +0.000 A 
ATOM      9  C   UNL     1      -3.222  10.397  16.191  0.00  0.00    +0.000 A 
ATOM     10 CL   UNL     1      -3.639   9.951  14.577  0.00  0.00    +0.000 Cl
ATOM     11  C   UNL     1      -1.948  10.030  16.737  0.00  0.00    +0.000 A 
ATOM     12  C   UNL     1      -1.545  10.540  17.965  0.00  0.00    +0.000 A 
ENDROOT
BRANCH   1  16
ATOM     13  C   UNL     1       2.466   7.062  19.536  0.00  0.00    +0.000 A 
ATOM     14  C   UNL     1       2.461   7.624  18.255  0.00  0.00    +0.000 A 
ATOM     15  C   UNL     1       1.676   8.782  17.919  0.00  0.00    +0.000 A 
ATOM     16  C   UNL     1       0.899   9.442  18.878  0.00  0.00    +0.000 A 
ATOM     17  C   UNL     1       1.007   8.917  20.191  0.00  0.00    +0.000 A 
ATOM     18  C   UNL     1       1.738   7.755  20.500  0.00  0.00    +0.000 A 
BRANCH  13  20
ATOM     19  C   UNL     1       4.355   5.407  19.272  0.00  0.00    +0.000 C 
ATOM     20  N   UNL     1       3.203   5.966  19.951  0.00  0.00    +0.000 N 
ATOM     21  H   UNL     1       2.706   5.313  20.549  0.00  0.00    +0.000 HD
ENDBRANCH  13  20
ENDBRANCH   1  16
TORSDOF 2
ENDMDL
MODEL 6
REMARK VINA RESULT:      -7.4      3.887      6.417
REMARK  Name = 
REMARK  3 active torsions:
REMARK  status: ('A' for Active; 'I' for Inactive)
REMARK    1  A    between atoms: C_1  and  N_2
REMARK    2  A    between atoms: N_2  and  C_3
REMARK    3  A    between atoms: C_6  and  C_7
REMARK                            x       y       z     vdW  Elec       q    Type
REMARK                         _______ _______ _______ _____ _____    ______ ____
ROOT
ATOM      1  C   UNL     1       4.405   4.131  18.252  0.00  0.00    +0.000 A 
ATOM      2  C   UNL     1       4.920   3.000  18.797  0.00  0.00    +0.000 A 
ATOM      3  C   UNL     1       4.248   2.376  19.940  0.00  0.00    +0.000 A 
ATOM      4  O   UNL     1       4.814   2.006  20.956  0.00  0.00    +0.000 OA
ATOM      5  O   UNL     1       2.935   2.174  19.622  0.00  0.00    +0.000 OA
ATOM      6  C   UNL     1       2.414   3.467  19.615  0.00  0.00    +0.000 A 
ATOM      7  C   UNL     1       1.291   3.622  20.423  0.00  0.00    +0.000 A 
ATOM      8  C   UNL     1       0.934   4.893  20.809  0.00  0.00    +0.000 A 
ATOM      9  C   UNL     1       1.698   5.977  20.352  0.00  0.00    +0.000 A 
ATOM     10 CL   UNL     1       1.368   7.527  21.035  0.00  0.00    +0.000 Cl
ATOM     11  C   UNL     1       2.776   5.810  19.422  0.00  0.00    +0.000 A 
ATOM     12  C   UNL     1       3.151   4.536  19.013  0.00  0.00    +0.000 A 
ENDROOT
BRANCH   1  16
ATOM     13  C   UNL     1       7.040   5.094  14.842  0.00  0.00    +0.000 A 
ATOM     14  C   UNL     1       5.941   4.244  14.677  0.00  0.00    +0.000 A 
ATOM     15  C   UNL     1       5.015   3.957  15.740  0.00  0.00    +0.000 A 
ATOM     16  C   UNL     1       5.142   4.554  17.000  0.00  0.00    +0.000 A 
ATOM     17  C   UNL     1       6.200   5.492  17.107  0.00  0.00    +0.000 A 
ATOM     18  C   UNL     1       7.129   5.728  16.078  0.00  0.00    +0.000 A 
BRANCH  13  20
ATOM     19  C   UNL     1       7.822   5.235  12.444  0.00  0.00    +0.000 C 
ATOM     20  N   UNL     1       7.966   5.440  13.873  0.00  0.00    +0.000 N 
ATOM     21  H   UNL     1       8.926   5.505  14.196  0.00  0.00    +0.000 HD
ENDBRANCH  13  20
ENDBRANCH   1  16
TORSDOF 2
ENDMDL
MODEL 7
REMARK VINA RESULT:      -7.3      3.754      6.425
REMARK  Name = 
REMARK  3 active torsions:
REMARK  status: ('A' for Active; 'I' for Inactive)
REMARK    1  A    between atoms: C_1  and  N_2
REMARK    2  A    between atoms: N_2  and  C_3
REMARK    3  A    between atoms: C_6  and  C_7
REMARK                            x       y       z     vdW  Elec       q    Type
REMARK                         _______ _______ _______ _____ _____    ______ ____
ROOT
ATOM      1  C   UNL     1       4.520   3.932  18.454  0.00  0.00    +0.000 A 
ATOM      2  C   UNL     1       4.785   2.787  19.133  0.00  0.00    +0.000 A 
ATOM      3  C   UNL     1       3.911   2.380  20.235  0.00  0.00    +0.000 A 
ATOM      4  O   UNL     1       4.305   2.017  21.332  0.00  0.00    +0.000 OA
ATOM      5  O   UNL     1       2.620   2.357  19.788  0.00  0.00    +0.000 OA
ATOM      6  C   UNL     1       2.322   3.709  19.630  0.00  0.00    +0.000 A 
ATOM      7  C   UNL     1       1.166   4.109  20.295  0.00  0.00    +0.000 A 
ATOM      8  C   UNL     1       0.986   5.449  20.547  0.00  0.00    +0.000 A 
ATOM      9  C   UNL     1       1.959   6.356  20.101  0.00  0.00    +0.000 A 
ATOM     10 CL   UNL     1       1.823   7.993  20.630  0.00  0.00    +0.000 Cl
ATOM     11  C   UNL     1       3.082   5.941  19.311  0.00  0.00    +0.000 A 
ATOM     12  C   UNL     1       3.281   4.593  19.039  0.00  0.00    +0.000 A 
ENDROOT
BRANCH   1  16
ATOM     13  C   UNL     1       6.856   4.978  14.855  0.00  0.00    +0.000 A 
ATOM     14  C   UNL     1       7.447   5.008  16.123  0.00  0.00    +0.000 A 
ATOM     15  C   UNL     1       6.746   4.609  17.315  0.00  0.00    +0.000 A 
ATOM     16  C   UNL     1       5.435   4.122  17.264  0.00  0.00    +0.000 A 
ATOM     17  C   UNL     1       4.899   4.001  15.957  0.00  0.00    +0.000 A 
ATOM     18  C   UNL     1       5.573   4.440  14.803  0.00  0.00    +0.000 A 
BRANCH  13  20
ATOM     19  C   UNL     1       7.343   4.601  12.406  0.00  0.00    +0.000 C 
ATOM     20  N   UNL     1       7.459   5.323  13.658  0.00  0.00    +0.000 N 
ATOM     21  H   UNL     1       8.298   5.888  13.744  0.00  0.00    +0.000 HD
ENDBRANCH  13  20
ENDBRANCH   1  16
TORSDOF 2
ENDMDL
MODEL 8
REMARK VINA RESULT:      -7.2      0.434      1.141
REMARK  Name = 
REMARK  3 active torsions:
REMARK  status: ('A' for Active; 'I' for Inactive)
REMARK    1  A    between atoms: C_1  and  N_2
REMARK    2  A    between atoms: N_2  and  C_3
REMARK    3  A    between atoms: C_6  and  C_7
REMARK                            x       y       z     vdW  Elec       q    Type
REMARK                         _______ _______ _______ _____ _____    ______ ____
ROOT
ATOM      1  C   UNL     1       4.018   6.068  18.527  0.00  0.00    +0.000 A 
ATOM      2  C   UNL     1       4.052   5.206  19.574  0.00  0.00    +0.000 A 
ATOM      3  C   UNL     1       4.999   4.088  19.561  0.00  0.00    +0.000 A 
ATOM      4  O   UNL     1       4.709   2.933  19.826  0.00  0.00    +0.000 OA
ATOM      5  O   UNL     1       6.254   4.577  19.331  0.00  0.00    +0.000 OA
ATOM      6  C   UNL     1       6.197   4.961  17.991  0.00  0.00    +0.000 A 
ATOM      7  C   UNL     1       7.212   4.415  17.210  0.00  0.00    +0.000 A 
ATOM      8  C   UNL     1       7.043   4.387  15.845  0.00  0.00    +0.000 A 
ATOM      9  C   UNL     1       5.871   4.933  15.299  0.00  0.00    +0.000 A 
ATOM     10 CL   UNL     1       5.583   4.677  13.617  0.00  0.00    +0.000 Cl
ATOM     11  C   UNL     1       4.893   5.601  16.107  0.00  0.00    +0.000 A 
ATOM     12  C   UNL     1       5.046   5.646  17.488  0.00  0.00    +0.000 A 
ENDROOT
BRANCH   1  16
ATOM     13  C   UNL     1       0.937   9.218  18.828  0.00  0.00    +0.000 A 
ATOM     14  C   UNL     1       1.219   8.390  19.919  0.00  0.00    +0.000 A 
ATOM     15  C   UNL     1       2.261   7.397  19.891  0.00  0.00    +0.000 A 
ATOM     16  C   UNL     1       3.087   7.235  18.773  0.00  0.00    +0.000 A 
ATOM     17  C   UNL     1       2.850   8.159  17.723  0.00  0.00    +0.000 A 
ATOM     18  C   UNL     1       1.798   9.093  17.739  0.00  0.00    +0.000 A 
BRANCH  13  20
ATOM     19  C   UNL     1      -1.192  10.219  17.910  0.00  0.00    +0.000 C 
ATOM     20  N   UNL     1      -0.028  10.209  18.774  0.00  0.00    +0.000 N 
ATOM     21  H   UNL     1       0.277  11.126  19.082  0.00  0.00    +0.000 HD
ENDBRANCH  13  20
ENDBRANCH   1  16
TORSDOF 2
ENDMDL
MODEL 9
REMARK VINA RESULT:      -7.0      1.807      2.801
REMARK  Name = 
REMARK  3 active torsions:
REMARK  status: ('A' for Active; 'I' for Inactive)
REMARK    1  A    between atoms: C_1  and  N_2
REMARK    2  A    between atoms: N_2  and  C_3
REMARK    3  A    between atoms: C_6  and  C_7
REMARK                            x       y       z     vdW  Elec       q    Type
REMARK                         _______ _______ _______ _____ _____    ______ ____
ROOT
ATOM      1  C   UNL     1       2.227   6.513  19.799  0.00  0.00    +0.000 A 
ATOM      2  C   UNL     1       1.501   5.493  20.321  0.00  0.00    +0.000 A 
ATOM      3  C   UNL     1       1.924   4.109  20.086  0.00  0.00    +0.000 A 
ATOM      4  O   UNL     1       1.181   3.213  19.721  0.00  0.00    +0.000 OA
ATOM      5  O   UNL     1       3.232   3.979  20.460  0.00  0.00    +0.000 OA
ATOM      6  C   UNL     1       3.910   4.690  19.471  0.00  0.00    +0.000 A 
ATOM      7  C   UNL     1       4.921   3.961  18.852  0.00  0.00    +0.000 A 
ATOM      8  C   UNL     1       5.382   4.389  17.629  0.00  0.00    +0.000 A 
ATOM      9  C   UNL     1       4.833   5.555  17.072  0.00  0.00    +0.000 A 
ATOM     10 CL   UNL     1       5.261   5.936  15.444  0.00  0.00    +0.000 Cl
ATOM     11  C   UNL     1       3.881   6.361  17.778  0.00  0.00    +0.000 A 
ATOM     12  C   UNL     1       3.406   5.951  19.018  0.00  0.00    +0.000 A 
ENDROOT
BRANCH   1  16
ATOM     13  C   UNL     1       0.277  10.343  20.816  0.00  0.00    +0.000 A 
ATOM     14  C   UNL     1       0.554   9.397  21.809  0.00  0.00    +0.000 A 
ATOM     15  C   UNL     1       1.250   8.167  21.537  0.00  0.00    +0.000 A 
ATOM     16  C   UNL     1       1.731   7.867  20.257  0.00  0.00    +0.000 A 
ATOM     17  C   UNL     1       1.531   8.889  19.295  0.00  0.00    +0.000 A 
ATOM     18  C   UNL     1       0.806  10.066  19.558  0.00  0.00    +0.000 A 
BRANCH  13  20
ATOM     19  C   UNL     1      -0.695  12.171  22.262  0.00  0.00    +0.000 C 
ATOM     20  N   UNL     1      -0.366  11.556  20.991  0.00  0.00    +0.000 N 
ATOM     21  H   UNL     1      -0.951  11.850  20.215  0.00  0.00    +0.000 HD
ENDBRANCH  13  20
ENDBRANCH   1  16
TORSDOF 2
ENDMDL
