MODEL 1
REMARK VINA RESULT:      -8.8      0.000      0.000
REMARK  Name = 
REMARK  7 active torsions:
REMARK  status: ('A' for Active; 'I' for Inactive)
REMARK    1  A    between atoms: C_1  and  O_2
REMARK    2  A    between atoms: O_2  and  C_3
REMARK    3  A    between atoms: C_5  and  C_6
REMARK    4  A    between atoms: C_7  and  C_8
REMARK    5  A    between atoms: C_15  and  C_16
REMARK    6  A    between atoms: C_26  and  O_27
REMARK    7  A    between atoms: O_27  and  C_28
REMARK                            x       y       z     vdW  Elec       q    Type
REMARK                         _______ _______ _______ _____ _____    ______ ____
ROOT
ATOM      1  C   UNL     1       2.401   6.057  19.429  0.00  0.00    +0.000 A 
ATOM      2  C   UNL     1       2.667   6.602  18.164  0.00  0.00    +0.000 A 
ATOM      3  C   UNL     1       2.359   7.931  17.900  0.00  0.00    +0.000 A 
ATOM      4  C   UNL     1       1.785   8.697  18.907  0.00  0.00    +0.000 A 
ATOM      5  O   UNL     1       1.345   9.972  18.556  0.00  0.00    +0.000 OA
ATOM      6  C   UNL     1       0.189  10.268  19.249  0.00  0.00    +0.000 A 
ATOM      7  O   UNL     1      -0.849  10.590  18.685  0.00  0.00    +0.000 OA
ATOM      8  C   UNL     1       0.374  10.252  20.741  0.00  0.00    +0.000 A 
ATOM      9  C   UNL     1       1.038   9.158  21.183  0.00  0.00    +0.000 A 
ATOM     10  C   UNL     1       1.582   8.209  20.201  0.00  0.00    +0.000 A 
ATOM     11  C   UNL     1       1.898   6.872  20.463  0.00  0.00    +0.000 A 
ENDROOT
BRANCH   8  12
ATOM     12  C   UNL     1      -0.165  11.360  21.590  0.00  0.00    +0.000 A 
ATOM     13  C   UNL     1       0.203  12.706  21.415  0.00  0.00    +0.000 A 
ATOM     14  C   UNL     1      -0.374  13.727  22.189  0.00  0.00    +0.000 A 
ATOM     15  C   UNL     1      -1.331  13.429  23.155  0.00  0.00    +0.000 A 
ATOM     16  C   UNL     1      -1.710  12.111  23.349  0.00  0.00    +0.000 A 
ATOM     17  C   UNL     1      -1.140  11.098  22.574  0.00  0.00    +0.000 A 
ENDBRANCH   8  12
BRANCH   1  19
ATOM     18  C   UNL     1       3.431   3.756  19.073  0.00  0.00    +0.000 C 
ATOM     19  C   UNL     1       2.531   4.607  19.589  0.00  0.00    +0.000 C 
BRANCH  18  22
ATOM     20  C   UNL     1       5.925   4.123  16.226  0.00  0.00    +0.000 A 
ATOM     21  C   UNL     1       4.799   3.710  16.947  0.00  0.00    +0.000 A 
ATOM     22  C   UNL     1       4.673   3.981  18.311  0.00  0.00    +0.000 A 
ATOM     23  C   UNL     1       5.727   4.655  18.948  0.00  0.00    +0.000 A 
ATOM     24  C   UNL     1       6.840   5.109  18.233  0.00  0.00    +0.000 A 
ATOM     25  C   UNL     1       6.939   4.835  16.869  0.00  0.00    +0.000 A 
BRANCH  20  27
ATOM     26  C   UNL     1       6.706   4.574  14.025  0.00  0.00    +0.000 C 
ATOM     27  O   UNL     1       5.892   3.799  14.896  0.00  0.00    +0.000 OA
ENDBRANCH  20  27
BRANCH  24  28
ATOM     28  O   UNL     1       7.740   5.830  18.971  0.00  0.00    +0.000 OA
ATOM     29  C   UNL     1       8.076   7.126  18.488  0.00  0.00    +0.000 C 
ENDBRANCH  24  28
ENDBRANCH  18  22
ENDBRANCH   1  19
TORSDOF 5
ENDMDL
MODEL 2
REMARK VINA RESULT:      -8.7      0.527      2.202
REMARK  Name = 
REMARK  7 active torsions:
REMARK  status: ('A' for Active; 'I' for Inactive)
REMARK    1  A    between atoms: C_1  and  O_2
REMARK    2  A    between atoms: O_2  and  C_3
REMARK    3  A    between atoms: C_5  and  C_6
REMARK    4  A    between atoms: C_7  and  C_8
REMARK    5  A    between atoms: C_15  and  C_16
REMARK    6  A    between atoms: C_26  and  O_27
REMARK    7  A    between atoms: O_27  and  C_28
REMARK                            x       y       z     vdW  Elec       q    Type
REMARK                         _______ _______ _______ _____ _____    ______ ____
ROOT
ATOM      1  C   UNL     1       2.325   6.546  19.439  0.00  0.00    +0.000 A 
ATOM      2  C   UNL     1       2.452   7.099  18.156  0.00  0.00    +0.000 A 
ATOM      3  C   UNL     1       2.028   8.400  17.912  0.00  0.00    +0.000 A 
ATOM      4  C   UNL     1       1.477   9.129  18.958  0.00  0.00    +0.000 A 
ATOM      5  O   UNL     1       0.918  10.365  18.638  0.00  0.00    +0.000 OA
ATOM      6  C   UNL     1      -0.201  10.581  19.416  0.00  0.00    +0.000 A 
ATOM      7  O   UNL     1      -1.300  10.821  18.932  0.00  0.00    +0.000 OA
ATOM      8  C   UNL     1       0.097  10.591  20.890  0.00  0.00    +0.000 A 
ATOM      9  C   UNL     1       0.872   9.553  21.283  0.00  0.00    +0.000 A 
ATOM     10  C   UNL     1       1.409   8.638  20.265  0.00  0.00    +0.000 A 
ATOM     11  C   UNL     1       1.842   7.330  20.506  0.00  0.00    +0.000 A 
ENDROOT
BRANCH   8  12
ATOM     12  C   UNL     1      -0.457  11.664  21.774  0.00  0.00    +0.000 A 
ATOM     13  C   UNL     1      -0.030  13.002  21.713  0.00  0.00    +0.000 A 
ATOM     14  C   UNL     1      -0.620  13.994  22.514  0.00  0.00    +0.000 A 
ATOM     15  C   UNL     1      -1.649  13.674  23.396  0.00  0.00    +0.000 A 
ATOM     16  C   UNL     1      -2.087  12.363  23.477  0.00  0.00    +0.000 A 
ATOM     17  C   UNL     1      -1.504  11.379  22.675  0.00  0.00    +0.000 A 
ENDBRANCH   8  12
BRANCH   1  19
ATOM     18  C   UNL     1       3.538   4.339  19.070  0.00  0.00    +0.000 C 
ATOM     19  C   UNL     1       2.573   5.111  19.592  0.00  0.00    +0.000 C 
BRANCH  18  22
ATOM     20  C   UNL     1       7.027   5.528  18.141  0.00  0.00    +0.000 A 
ATOM     21  C   UNL     1       5.816   5.409  18.829  0.00  0.00    +0.000 A 
ATOM     22  C   UNL     1       4.755   4.668  18.306  0.00  0.00    +0.000 A 
ATOM     23  C   UNL     1       4.928   4.069  17.048  0.00  0.00    +0.000 A 
ATOM     24  C   UNL     1       6.146   4.146  16.366  0.00  0.00    +0.000 A 
ATOM     25  C   UNL     1       7.196   4.884  16.914  0.00  0.00    +0.000 A 
BRANCH  20  27
ATOM     26  C   UNL     1       8.183   7.599  18.332  0.00  0.00    +0.000 C 
ATOM     27  O   UNL     1       7.976   6.270  18.793  0.00  0.00    +0.000 OA
ENDBRANCH  20  27
BRANCH  24  28
ATOM     28  O   UNL     1       6.194   3.436  15.196  0.00  0.00    +0.000 OA
ATOM     29  C   UNL     1       5.952   4.159  13.994  0.00  0.00    +0.000 C 
ENDBRANCH  24  28
ENDBRANCH  18  22
ENDBRANCH   1  19
TORSDOF 5
ENDMDL
MODEL 3
REMARK VINA RESULT:      -8.3      3.072      9.316
REMARK  Name = 
REMARK  7 active torsions:
REMARK  status: ('A' for Active; 'I' for Inactive)
REMARK    1  A    between atoms: C_1  and  O_2
REMARK    2  A    between atoms: O_2  and  C_3
REMARK    3  A    between atoms: C_5  and  C_6
REMARK    4  A    between atoms: C_7  and  C_8
REMARK    5  A    between atoms: C_15  and  C_16
REMARK    6  A    between atoms: C_26  and  O_27
REMARK    7  A    between atoms: O_27  and  C_28
REMARK                            x       y       z     vdW  Elec       q    Type
REMARK                         _______ _______ _______ _____ _____    ______ ____
ROOT
ATOM      1  C   UNL     1       0.156  10.071  18.844  0.00  0.00    +0.000 A 
ATOM      2  C   UNL     1       0.099   9.670  20.187  0.00  0.00    +0.000 A 
ATOM      3  C   UNL     1       0.951   8.677  20.655  0.00  0.00    +0.000 A 
ATOM      4  C   UNL     1       1.847   8.094  19.768  0.00  0.00    +0.000 A 
ATOM      5  O   UNL     1       2.569   6.995  20.232  0.00  0.00    +0.000 OA
ATOM      6  C   UNL     1       2.735   6.086  19.206  0.00  0.00    +0.000 A 
ATOM      7  O   UNL     1       2.375   4.920  19.300  0.00  0.00    +0.000 OA
ATOM      8  C   UNL     1       3.484   6.652  18.032  0.00  0.00    +0.000 A 
ATOM      9  C   UNL     1       3.030   7.868  17.646  0.00  0.00    +0.000 A 
ATOM     10  C   UNL     1       1.986   8.525  18.445  0.00  0.00    +0.000 A 
ATOM     11  C   UNL     1       1.130   9.529  17.981  0.00  0.00    +0.000 A 
ENDROOT
BRANCH   8  12
ATOM     12  C   UNL     1       4.598   5.882  17.393  0.00  0.00    +0.000 A 
ATOM     13  C   UNL     1       4.398   4.661  16.726  0.00  0.00    +0.000 A 
ATOM     14  C   UNL     1       5.458   3.999  16.082  0.00  0.00    +0.000 A 
ATOM     15  C   UNL     1       6.740   4.540  16.090  0.00  0.00    +0.000 A 
ATOM     16  C   UNL     1       6.964   5.741  16.742  0.00  0.00    +0.000 A 
ATOM     17  C   UNL     1       5.908   6.401  17.376  0.00  0.00    +0.000 A 
ENDBRANCH   8  12
BRANCH   1  19
ATOM     18  C   UNL     1      -0.965  12.291  18.300  0.00  0.00    +0.000 C 
ATOM     19  C   UNL     1      -0.904  10.951  18.348  0.00  0.00    +0.000 C 
BRANCH  18  22
ATOM     20  C   UNL     1       2.314  14.208  18.471  0.00  0.00    +0.000 A 
ATOM     21  C   UNL     1       1.415  13.139  18.392  0.00  0.00    +0.000 A 
ATOM     22  C   UNL     1       0.043  13.331  18.571  0.00  0.00    +0.000 A 
ATOM     23  C   UNL     1      -0.407  14.628  18.865  0.00  0.00    +0.000 A 
ATOM     24  C   UNL     1       0.475  15.713  18.907  0.00  0.00    +0.000 A 
ATOM     25  C   UNL     1       1.840  15.498  18.715  0.00  0.00    +0.000 A 
BRANCH  20  27
ATOM     26  C   UNL     1       4.527  14.919  17.966  0.00  0.00    +0.000 C 
ATOM     27  O   UNL     1       3.621  13.862  18.254  0.00  0.00    +0.000 OA
ENDBRANCH  20  27
BRANCH  24  28
ATOM     28  O   UNL     1      -0.122  16.929  19.112  0.00  0.00    +0.000 OA
ATOM     29  C   UNL     1      -0.459  17.683  17.953  0.00  0.00    +0.000 C 
ENDBRANCH  24  28
ENDBRANCH  18  22
ENDBRANCH   1  19
TORSDOF 5
ENDMDL
MODEL 4
REMARK VINA RESULT:      -8.2      1.089      2.521
REMARK  Name = 
REMARK  7 active torsions:
REMARK  status: ('A' for Active; 'I' for Inactive)
REMARK    1  A    between atoms: C_1  and  O_2
REMARK    2  A    between atoms: O_2  and  C_3
REMARK    3  A    between atoms: C_5  and  C_6
REMARK    4  A    between atoms: C_7  and  C_8
REMARK    5  A    between atoms: C_15  and  C_16
REMARK    6  A    between atoms: C_26  and  O_27
REMARK    7  A    between atoms: O_27  and  C_28
REMARK                            x       y       z     vdW  Elec       q    Type
REMARK                         _______ _______ _______ _____ _____    ______ ____
ROOT
ATOM      1  C   UNL     1       2.818   6.639  19.247  0.00  0.00    +0.000 A 
ATOM      2  C   UNL     1       2.938   7.192  17.963  0.00  0.00    +0.000 A 
ATOM      3  C   UNL     1       2.307   8.392  17.659  0.00  0.00    +0.000 A 
ATOM      4  C   UNL     1       1.560   9.022  18.647  0.00  0.00    +0.000 A 
ATOM      5  O   UNL     1       0.814  10.134  18.259  0.00  0.00    +0.000 OA
ATOM      6  C   UNL     1      -0.379  10.154  18.952  0.00  0.00    +0.000 A 
ATOM      7  O   UNL     1      -1.465  10.186  18.387  0.00  0.00    +0.000 OA
ATOM      8  C   UNL     1      -0.195  10.234  20.442  0.00  0.00    +0.000 A 
ATOM      9  C   UNL     1       0.723   9.357  20.913  0.00  0.00    +0.000 A 
ATOM     10  C   UNL     1       1.486   8.542  19.957  0.00  0.00    +0.000 A 
ATOM     11  C   UNL     1       2.128   7.336  20.259  0.00  0.00    +0.000 A 
ENDROOT
BRANCH   8  12
ATOM     12  C   UNL     1      -0.994  11.200  21.260  0.00  0.00    +0.000 A 
ATOM     13  C   UNL     1      -1.120  11.099  22.656  0.00  0.00    +0.000 A 
ATOM     14  C   UNL     1      -1.825  12.061  23.398  0.00  0.00    +0.000 A 
ATOM     15  C   UNL     1      -2.422  13.147  22.764  0.00  0.00    +0.000 A 
ATOM     16  C   UNL     1      -2.315  13.270  21.388  0.00  0.00    +0.000 A 
ATOM     17  C   UNL     1      -1.608  12.315  20.653  0.00  0.00    +0.000 A 
ENDBRANCH   8  12
BRANCH   1  19
ATOM     18  C   UNL     1       4.163   4.542  18.722  0.00  0.00    +0.000 C 
ATOM     19  C   UNL     1       3.307   5.274  19.452  0.00  0.00    +0.000 C 
BRANCH  18  22
ATOM     20  C   UNL     1       6.952   5.988  16.581  0.00  0.00    +0.000 A 
ATOM     21  C   UNL     1       6.042   5.836  17.632  0.00  0.00    +0.000 A 
ATOM     22  C   UNL     1       5.019   4.887  17.572  0.00  0.00    +0.000 A 
ATOM     23  C   UNL     1       4.910   4.108  16.409  0.00  0.00    +0.000 A 
ATOM     24  C   UNL     1       5.837   4.221  15.368  0.00  0.00    +0.000 A 
ATOM     25  C   UNL     1       6.857   5.169  15.455  0.00  0.00    +0.000 A 
BRANCH  20  27
ATOM     26  C   UNL     1       7.596   7.964  17.737  0.00  0.00    +0.000 C 
ATOM     27  O   UNL     1       7.908   6.945  16.797  0.00  0.00    +0.000 OA
ENDBRANCH  20  27
BRANCH  24  28
ATOM     28  O   UNL     1       5.656   3.332  14.341  0.00  0.00    +0.000 OA
ATOM     29  C   UNL     1       6.201   3.692  13.077  0.00  0.00    +0.000 C 
ENDBRANCH  24  28
ENDBRANCH  18  22
ENDBRANCH   1  19
TORSDOF 5
ENDMDL
MODEL 5
REMARK VINA RESULT:      -8.2      2.742      9.236
REMARK  Name = 
REMARK  7 active torsions:
REMARK  status: ('A' for Active; 'I' for Inactive)
REMARK    1  A    between atoms: C_1  and  O_2
REMARK    2  A    between atoms: O_2  and  C_3
REMARK    3  A    between atoms: C_5  and  C_6
REMARK    4  A    between atoms: C_7  and  C_8
REMARK    5  A    between atoms: C_15  and  C_16
REMARK    6  A    between atoms: C_26  and  O_27
REMARK    7  A    between atoms: O_27  and  C_28
REMARK                            x       y       z     vdW  Elec       q    Type
REMARK                         _______ _______ _______ _____ _____    ______ ____
ROOT
ATOM      1  C   UNL     1       0.635   9.742  18.995  0.00  0.00    +0.000 A 
ATOM      2  C   UNL     1       0.534   9.141  20.258  0.00  0.00    +0.000 A 
ATOM      3  C   UNL     1       1.346   8.062  20.584  0.00  0.00    +0.000 A 
ATOM      4  C   UNL     1       2.247   7.595  19.636  0.00  0.00    +0.000 A 
ATOM      5  O   UNL     1       2.926   6.415  19.939  0.00  0.00    +0.000 OA
ATOM      6  C   UNL     1       3.093   5.670  18.789  0.00  0.00    +0.000 A 
ATOM      7  O   UNL     1       2.698   4.515  18.694  0.00  0.00    +0.000 OA
ATOM      8  C   UNL     1       3.886   6.386  17.731  0.00  0.00    +0.000 A 
ATOM      9  C   UNL     1       3.475   7.661  17.529  0.00  0.00    +0.000 A 
ATOM     10  C   UNL     1       2.430   8.219  18.398  0.00  0.00    +0.000 A 
ATOM     11  C   UNL     1       1.614   9.309  18.078  0.00  0.00    +0.000 A 
ENDROOT
BRANCH   8  12
ATOM     12  C   UNL     1       4.993   5.689  17.004  0.00  0.00    +0.000 A 
ATOM     13  C   UNL     1       5.063   5.621  15.601  0.00  0.00    +0.000 A 
ATOM     14  C   UNL     1       6.152   5.015  14.953  0.00  0.00    +0.000 A 
ATOM     15  C   UNL     1       7.196   4.461  15.688  0.00  0.00    +0.000 A 
ATOM     16  C   UNL     1       7.151   4.512  17.072  0.00  0.00    +0.000 A 
ATOM     17  C   UNL     1       6.071   5.122  17.715  0.00  0.00    +0.000 A 
ENDBRANCH   8  12
BRANCH   1  19
ATOM     18  C   UNL     1      -0.431  12.048  18.819  0.00  0.00    +0.000 C 
ATOM     19  C   UNL     1      -0.388  10.721  18.620  0.00  0.00    +0.000 C 
BRANCH  18  22
ATOM     20  C   UNL     1       1.618  14.268  21.127  0.00  0.00    +0.000 A 
ATOM     21  C   UNL     1       0.544  13.529  20.621  0.00  0.00    +0.000 A 
ATOM     22  C   UNL     1       0.573  12.998  19.330  0.00  0.00    +0.000 A 
ATOM     23  C   UNL     1       1.704  13.254  18.539  0.00  0.00    +0.000 A 
ATOM     24  C   UNL     1       2.803  13.956  19.044  0.00  0.00    +0.000 A 
ATOM     25  C   UNL     1       2.755  14.468  20.341  0.00  0.00    +0.000 A 
BRANCH  20  27
ATOM     26  C   UNL     1       1.471  16.110  22.625  0.00  0.00    +0.000 C 
ATOM     27  O   UNL     1       1.446  14.704  22.414  0.00  0.00    +0.000 OA
ENDBRANCH  20  27
BRANCH  24  28
ATOM     28  O   UNL     1       3.869  14.046  18.188  0.00  0.00    +0.000 OA
ATOM     29  C   UNL     1       4.130  15.324  17.620  0.00  0.00    +0.000 C 
ENDBRANCH  24  28
ENDBRANCH  18  22
ENDBRANCH   1  19
TORSDOF 5
ENDMDL
MODEL 6
REMARK VINA RESULT:      -8.2      0.931      1.357
REMARK  Name = 
REMARK  7 active torsions:
REMARK  status: ('A' for Active; 'I' for Inactive)
REMARK    1  A    between atoms: C_1  and  O_2
REMARK    2  A    between atoms: O_2  and  C_3
REMARK    3  A    between atoms: C_5  and  C_6
REMARK    4  A    between atoms: C_7  and  C_8
REMARK    5  A    between atoms: C_15  and  C_16
REMARK    6  A    between atoms: C_26  and  O_27
REMARK    7  A    between atoms: O_27  and  C_28
REMARK                            x       y       z     vdW  Elec       q    Type
REMARK                         _______ _______ _______ _____ _____    ______ ____
ROOT
ATOM      1  C   UNL     1       2.772   5.868  18.522  0.00  0.00    +0.000 A 
ATOM      2  C   UNL     1       3.308   6.649  17.487  0.00  0.00    +0.000 A 
ATOM      3  C   UNL     1       3.092   8.021  17.466  0.00  0.00    +0.000 A 
ATOM      4  C   UNL     1       2.337   8.594  18.481  0.00  0.00    +0.000 A 
ATOM      5  O   UNL     1       2.008   9.941  18.339  0.00  0.00    +0.000 OA
ATOM      6  C   UNL     1       0.739  10.161  18.835  0.00  0.00    +0.000 A 
ATOM      7  O   UNL     1      -0.151  10.663  18.160  0.00  0.00    +0.000 OA
ATOM      8  C   UNL     1       0.608   9.819  20.293  0.00  0.00    +0.000 A 
ATOM      9  C   UNL     1       1.141   8.614  20.607  0.00  0.00    +0.000 A 
ATOM     10  C   UNL     1       1.857   7.859  19.569  0.00  0.00    +0.000 A 
ATOM     11  C   UNL     1       2.082   6.479  19.589  0.00  0.00    +0.000 A 
ENDROOT
BRANCH   8  12
ATOM     12  C   UNL     1      -0.073  10.757  21.240  0.00  0.00    +0.000 A 
ATOM     13  C   UNL     1      -0.848  10.318  22.327  0.00  0.00    +0.000 A 
ATOM     14  C   UNL     1      -1.418  11.228  23.233  0.00  0.00    +0.000 A 
ATOM     15  C   UNL     1      -1.228  12.598  23.076  0.00  0.00    +0.000 A 
ATOM     16  C   UNL     1      -0.469  13.058  22.012  0.00  0.00    +0.000 A 
ATOM     17  C   UNL     1       0.103  12.151  21.116  0.00  0.00    +0.000 A 
ENDBRANCH   8  12
BRANCH   1  19
ATOM     18  C   UNL     1       3.745   3.638  17.772  0.00  0.00    +0.000 C 
ATOM     19  C   UNL     1       2.833   4.412  18.381  0.00  0.00    +0.000 C 
BRANCH  18  22
ATOM     20  C   UNL     1       6.495   4.476  15.284  0.00  0.00    +0.000 A 
ATOM     21  C   UNL     1       5.292   3.986  15.803  0.00  0.00    +0.000 A 
ATOM     22  C   UNL     1       5.059   3.948  17.179  0.00  0.00    +0.000 A 
ATOM     23  C   UNL     1       6.082   4.389  18.033  0.00  0.00    +0.000 A 
ATOM     24  C   UNL     1       7.274   4.918  17.528  0.00  0.00    +0.000 A 
ATOM     25  C   UNL     1       7.481   4.956  16.149  0.00  0.00    +0.000 A 
BRANCH  20  27
ATOM     26  C   UNL     1       5.644   3.628  13.231  0.00  0.00    +0.000 C 
ATOM     27  O   UNL     1       6.565   4.466  13.916  0.00  0.00    +0.000 OA
ENDBRANCH  20  27
BRANCH  24  28
ATOM     28  O   UNL     1       8.139   5.392  18.479  0.00  0.00    +0.000 OA
ATOM     29  C   UNL     1       7.605   5.617  19.778  0.00  0.00    +0.000 C 
ENDBRANCH  24  28
ENDBRANCH  18  22
ENDBRANCH   1  19
TORSDOF 5
ENDMDL
MODEL 7
REMARK VINA RESULT:      -8.1      1.208      1.888
REMARK  Name = 
REMARK  7 active torsions:
REMARK  status: ('A' for Active; 'I' for Inactive)
REMARK    1  A    between atoms: C_1  and  O_2
REMARK    2  A    between atoms: O_2  and  C_3
REMARK    3  A    between atoms: C_5  and  C_6
REMARK    4  A    between atoms: C_7  and  C_8
REMARK    5  A    between atoms: C_15  and  C_16
REMARK    6  A    between atoms: C_26  and  O_27
REMARK    7  A    between atoms: O_27  and  C_28
REMARK                            x       y       z     vdW  Elec       q    Type
REMARK                         _______ _______ _______ _____ _____    ______ ____
ROOT
ATOM      1  C   UNL     1       3.296   5.579  18.341  0.00  0.00    +0.000 A 
ATOM      2  C   UNL     1       3.705   6.401  17.280  0.00  0.00    +0.000 A 
ATOM      3  C   UNL     1       3.346   7.743  17.259  0.00  0.00    +0.000 A 
ATOM      4  C   UNL     1       2.575   8.244  18.300  0.00  0.00    +0.000 A 
ATOM      5  O   UNL     1       2.100   9.548  18.162  0.00  0.00    +0.000 OA
ATOM      6  C   UNL     1       0.836   9.639  18.708  0.00  0.00    +0.000 A 
ATOM      7  O   UNL     1      -0.127  10.037  18.066  0.00  0.00    +0.000 OA
ATOM      8  C   UNL     1       0.800   9.300  20.172  0.00  0.00    +0.000 A 
ATOM      9  C   UNL     1       1.468   8.161  20.472  0.00  0.00    +0.000 A 
ATOM     10  C   UNL     1       2.218   7.474  19.411  0.00  0.00    +0.000 A 
ATOM     11  C   UNL     1       2.588   6.126  19.431  0.00  0.00    +0.000 A 
ENDROOT
BRANCH   8  12
ATOM     12  C   UNL     1       0.062  10.172  21.140  0.00  0.00    +0.000 A 
ATOM     13  C   UNL     1      -0.490   9.688  22.338  0.00  0.00    +0.000 A 
ATOM     14  C   UNL     1      -1.119  10.549  23.253  0.00  0.00    +0.000 A 
ATOM     15  C   UNL     1      -1.212  11.913  22.993  0.00  0.00    +0.000 A 
ATOM     16  C   UNL     1      -0.677  12.417  21.819  0.00  0.00    +0.000 A 
ATOM     17  C   UNL     1      -0.046  11.560  20.913  0.00  0.00    +0.000 A 
ENDBRANCH   8  12
BRANCH   1  19
ATOM     18  C   UNL     1       4.307   3.450  17.379  0.00  0.00    +0.000 C 
ATOM     19  C   UNL     1       3.504   4.136  18.208  0.00  0.00    +0.000 C 
BRANCH  18  22
ATOM     20  C   UNL     1       6.283   4.117  14.201  0.00  0.00    +0.000 A 
ATOM     21  C   UNL     1       5.387   3.522  15.095  0.00  0.00    +0.000 A 
ATOM     22  C   UNL     1       5.357   3.888  16.442  0.00  0.00    +0.000 A 
ATOM     23  C   UNL     1       6.278   4.852  16.882  0.00  0.00    +0.000 A 
ATOM     24  C   UNL     1       7.152   5.484  15.993  0.00  0.00    +0.000 A 
ATOM     25  C   UNL     1       7.157   5.109  14.649  0.00  0.00    +0.000 A 
BRANCH  20  27
ATOM     26  C   UNL     1       4.870   3.360  12.442  0.00  0.00    +0.000 C 
ATOM     27  O   UNL     1       6.177   3.665  12.912  0.00  0.00    +0.000 OA
ENDBRANCH  20  27
BRANCH  24  28
ATOM     28  O   UNL     1       7.926   6.467  16.551  0.00  0.00    +0.000 OA
ATOM     29  C   UNL     1       7.337   7.232  17.597  0.00  0.00    +0.000 C 
ENDBRANCH  24  28
ENDBRANCH  18  22
ENDBRANCH   1  19
TORSDOF 5
ENDMDL
MODEL 8
REMARK VINA RESULT:      -8.0      2.344      9.884
REMARK  Name = 
REMARK  7 active torsions:
REMARK  status: ('A' for Active; 'I' for Inactive)
REMARK    1  A    between atoms: C_1  and  O_2
REMARK    2  A    between atoms: O_2  and  C_3
REMARK    3  A    between atoms: C_5  and  C_6
REMARK    4  A    between atoms: C_7  and  C_8
REMARK    5  A    between atoms: C_15  and  C_16
REMARK    6  A    between atoms: C_26  and  O_27
REMARK    7  A    between atoms: O_27  and  C_28
REMARK                            x       y       z     vdW  Elec       q    Type
REMARK                         _______ _______ _______ _____ _____    ______ ____
ROOT
ATOM      1  C   UNL     1       0.231  10.023  19.104  0.00  0.00    +0.000 A 
ATOM      2  C   UNL     1       0.156   9.500  20.403  0.00  0.00    +0.000 A 
ATOM      3  C   UNL     1       0.982   8.449  20.780  0.00  0.00    +0.000 A 
ATOM      4  C   UNL     1       1.872   7.932  19.847  0.00  0.00    +0.000 A 
ATOM      5  O   UNL     1       2.566   6.778  20.210  0.00  0.00    +0.000 OA
ATOM      6  C   UNL     1       2.721   5.966  19.105  0.00  0.00    +0.000 A 
ATOM      7  O   UNL     1       2.335   4.804  19.086  0.00  0.00    +0.000 OA
ATOM      8  C   UNL     1       3.491   6.622  17.993  0.00  0.00    +0.000 A 
ATOM      9  C   UNL     1       3.066   7.879  17.720  0.00  0.00    +0.000 A 
ATOM     10  C   UNL     1       2.030   8.481  18.571  0.00  0.00    +0.000 A 
ATOM     11  C   UNL     1       1.200   9.543  18.199  0.00  0.00    +0.000 A 
ENDROOT
BRANCH   8  12
ATOM     12  C   UNL     1       4.593   5.891  17.291  0.00  0.00    +0.000 A 
ATOM     13  C   UNL     1       4.383   4.702  16.570  0.00  0.00    +0.000 A 
ATOM     14  C   UNL     1       5.430   4.080  15.870  0.00  0.00    +0.000 A 
ATOM     15  C   UNL     1       6.709   4.627  15.872  0.00  0.00    +0.000 A 
ATOM     16  C   UNL     1       6.943   5.797  16.576  0.00  0.00    +0.000 A 
ATOM     17  C   UNL     1       5.900   6.419  17.266  0.00  0.00    +0.000 A 
ENDBRANCH   8  12
BRANCH   1  19
ATOM     18  C   UNL     1      -1.457  11.908  19.392  0.00  0.00    +0.000 C 
ATOM     19  C   UNL     1      -0.806  10.969  18.686  0.00  0.00    +0.000 C 
BRANCH  18  22
ATOM     20  C   UNL     1      -0.259  13.964  22.357  0.00  0.00    +0.000 A 
ATOM     21  C   UNL     1      -0.282  13.359  21.096  0.00  0.00    +0.000 A 
ATOM     22  C   UNL     1      -1.260  12.422  20.759  0.00  0.00    +0.000 A 
ATOM     23  C   UNL     1      -2.206  12.078  21.738  0.00  0.00    +0.000 A 
ATOM     24  C   UNL     1      -2.220  12.703  22.989  0.00  0.00    +0.000 A 
ATOM     25  C   UNL     1      -1.239  13.645  23.298  0.00  0.00    +0.000 A 
BRANCH  20  27
ATOM     26  C   UNL     1       1.879  14.752  21.674  0.00  0.00    +0.000 C 
ATOM     27  O   UNL     1       0.749  14.876  22.527  0.00  0.00    +0.000 OA
ENDBRANCH  20  27
BRANCH  24  28
ATOM     28  O   UNL     1      -3.257  12.332  23.803  0.00  0.00    +0.000 OA
ATOM     29  C   UNL     1      -4.511  12.967  23.578  0.00  0.00    +0.000 C 
ENDBRANCH  24  28
ENDBRANCH  18  22
ENDBRANCH   1  19
TORSDOF 5
ENDMDL
MODEL 9
REMARK VINA RESULT:      -8.0      2.532      9.428
REMARK  Name = 
REMARK  7 active torsions:
REMARK  status: ('A' for Active; 'I' for Inactive)
REMARK    1  A    between atoms: C_1  and  O_2
REMARK    2  A    between atoms: O_2  and  C_3
REMARK    3  A    between atoms: C_5  and  C_6
REMARK    4  A    between atoms: C_7  and  C_8
REMARK    5  A    between atoms: C_15  and  C_16
REMARK    6  A    between atoms: C_26  and  O_27
REMARK    7  A    between atoms: O_27  and  C_28
REMARK                            x       y       z     vdW  Elec       q    Type
REMARK                         _______ _______ _______ _____ _____    ______ ____
ROOT
ATOM      1  C   UNL     1       0.061  10.128  18.839  0.00  0.00    +0.000 A 
ATOM      2  C   UNL     1      -0.064   9.674  20.160  0.00  0.00    +0.000 A 
ATOM      3  C   UNL     1       0.785   8.684  20.640  0.00  0.00    +0.000 A 
ATOM      4  C   UNL     1       1.747   8.158  19.787  0.00  0.00    +0.000 A 
ATOM      5  O   UNL     1       2.469   7.060  20.252  0.00  0.00    +0.000 OA
ATOM      6  C   UNL     1       2.720   6.196  19.205  0.00  0.00    +0.000 A 
ATOM      7  O   UNL     1       2.386   5.019  19.232  0.00  0.00    +0.000 OA
ATOM      8  C   UNL     1       3.522   6.825  18.100  0.00  0.00    +0.000 A 
ATOM      9  C   UNL     1       3.059   8.044  17.734  0.00  0.00    +0.000 A 
ATOM     10  C   UNL     1       1.952   8.644  18.492  0.00  0.00    +0.000 A 
ATOM     11  C   UNL     1       1.099   9.644  18.016  0.00  0.00    +0.000 A 
ENDROOT
BRANCH   8  12
ATOM     12  C   UNL     1       4.691   6.108  17.500  0.00  0.00    +0.000 A 
ATOM     13  C   UNL     1       5.610   5.371  18.266  0.00  0.00    +0.000 A 
ATOM     14  C   UNL     1       6.658   4.657  17.661  0.00  0.00    +0.000 A 
ATOM     15  C   UNL     1       6.814   4.663  16.278  0.00  0.00    +0.000 A 
ATOM     16  C   UNL     1       5.923   5.383  15.500  0.00  0.00    +0.000 A 
ATOM     17  C   UNL     1       4.877   6.087  16.103  0.00  0.00    +0.000 A 
ENDBRANCH   8  12
BRANCH   1  19
ATOM     18  C   UNL     1      -1.277  12.281  18.600  0.00  0.00    +0.000 C 
ATOM     19  C   UNL     1      -0.990  11.001  18.313  0.00  0.00    +0.000 C 
BRANCH  18  22
ATOM     20  C   UNL     1       0.134  14.252  21.529  0.00  0.00    +0.000 A 
ATOM     21  C   UNL     1      -0.705  13.415  20.786  0.00  0.00    +0.000 A 
ATOM     22  C   UNL     1      -0.565  13.292  19.402  0.00  0.00    +0.000 A 
ATOM     23  C   UNL     1       0.427  14.059  18.771  0.00  0.00    +0.000 A 
ATOM     24  C   UNL     1       1.299  14.869  19.505  0.00  0.00    +0.000 A 
ATOM     25  C   UNL     1       1.146  14.968  20.888  0.00  0.00    +0.000 A 
BRANCH  20  27
ATOM     26  C   UNL     1      -1.313  13.614  23.307  0.00  0.00    +0.000 C 
ATOM     27  O   UNL     1      -0.117  14.249  22.876  0.00  0.00    +0.000 OA
ENDBRANCH  20  27
BRANCH  24  28
ATOM     28  O   UNL     1       2.273  15.483  18.762  0.00  0.00    +0.000 OA
ATOM     29  C   UNL     1       3.171  14.637  18.054  0.00  0.00    +0.000 C 
ENDBRANCH  24  28
ENDBRANCH  18  22
ENDBRANCH   1  19
TORSDOF 5
ENDMDL
