MODEL 1
REMARK VINA RESULT:      -6.5      0.000      0.000
REMARK  Name = 
REMARK  14 active torsions:
REMARK  status: ('A' for Active; 'I' for Inactive)
REMARK    1  A    between atoms: C_1  and  C_2
REMARK    2  A    between atoms: C_2  and  C_3
REMARK    3  A    between atoms: C_3  and  N_4
REMARK    4  A    between atoms: N_4  and  C_5
REMARK    5  A    between atoms: C_5  and  C_6
REMARK    6  A    between atoms: C_6  and  C_7
REMARK    7  A    between atoms: C_8  and  C_10
REMARK    8  A    between atoms: C_11  and  C_12
REMARK    9  A    between atoms: C_12  and  N_13
REMARK   10  A    between atoms: N_13  and  C_14
REMARK   11  A    between atoms: N_13  and  C_16
REMARK   12  A    between atoms: C_14  and  C_15
REMARK   13  A    between atoms: C_16  and  C_17
REMARK   14  A    between atoms: C_30  and  C_31
REMARK                            x       y       z     vdW  Elec       q    Type
REMARK                         _______ _______ _______ _____ _____    ______ ____
ROOT
ATOM      1  C   UNL     1      -1.952  13.068  19.856  0.00  0.00    +0.000 A 
ATOM      2  C   UNL     1      -2.093  13.810  21.048  0.00  0.00    +0.000 A 
ATOM      3  N   UNL     1      -3.270  13.923  21.709  0.00  0.00    +0.000 NA
ATOM      4  C   UNL     1      -4.338  13.256  21.303  0.00  0.00    +0.000 A 
ATOM      5  C   UNL     1      -5.467  13.442  22.091  0.00  0.00    +0.000 A 
ATOM      6  C   UNL     1      -6.654  12.763  21.853  0.00  0.00    +0.000 A 
ATOM      7  C   UNL     1      -6.724  11.923  20.763  0.00  0.00    +0.000 A 
ATOM      8  C   UNL     1      -5.613  11.795  19.916  0.00  0.00    +0.000 A 
ATOM      9  C   UNL     1      -4.345  12.418  20.172  0.00  0.00    +0.000 A 
ATOM     10  C   UNL     1      -3.090  12.298  19.409  0.00  0.00    +0.000 A 
ENDROOT
BRANCH  10  11
ATOM     11  C   UNL     1      -3.051  11.405  18.182  0.00  0.00    +0.000 A 
ATOM     12  C   UNL     1      -2.114  10.368  18.023  0.00  0.00    +0.000 A 
ATOM     13  C   UNL     1      -2.037   9.603  16.847  0.00  0.00    +0.000 A 
ATOM     14  C   UNL     1      -2.841   9.904  15.755  0.00  0.00    +0.000 A 
ATOM     15  C   UNL     1      -3.787  10.911  15.875  0.00  0.00    +0.000 A 
ATOM     16  C   UNL     1      -3.930  11.595  17.092  0.00  0.00    +0.000 A 
ENDBRANCH  10  11
BRANCH   1  18
ATOM     17  N   UNL     1       0.503  12.260  19.671  0.00  0.00    +0.000 N 
ATOM     18  C   UNL     1      -0.604  13.003  19.147  0.00  0.00    +0.000 C 
ATOM     19  O   UNL     1      -0.499  13.668  18.116  0.00  0.00    +0.000 OA
BRANCH  17  20
ATOM     20  C   UNL     1       0.327  11.188  20.633  0.00  0.00    +0.000 C 
BRANCH  20  22
ATOM     21  C   UNL     1      -0.025   8.826  21.379  0.00  0.00    +0.000 C 
ATOM     22  C   UNL     1       0.660   9.731  20.388  0.00  0.00    +0.000 C 
ENDBRANCH  20  22
ENDBRANCH  17  20
BRANCH  17  23
ATOM     23  C   UNL     1       1.833  12.433  19.059  0.00  0.00    +0.000 C 
BRANCH  23  24
ATOM     24  C   UNL     1       2.600  13.743  19.333  0.00  0.00    +0.000 C 
ATOM     25  C   UNL     1       3.423  14.266  18.172  0.00  0.00    +0.000 C 
ENDBRANCH  23  24
ENDBRANCH  17  23
ENDBRANCH   1  18
BRANCH   2  26
ATOM     26  C   UNL     1      -1.004  14.717  21.591  0.00  0.00    +0.000 C 
BRANCH  26  27
ATOM     27  N   UNL     1      -0.898  16.133  21.194  0.00  0.00    +0.000 NA
BRANCH  27  28
ATOM     28  C   UNL     1      -1.047  17.033  22.345  0.00  0.00    +0.000 C 
ATOM     29  C   UNL     1      -2.270  17.941  22.359  0.00  0.00    +0.000 C 
ENDBRANCH  27  28
BRANCH  27  30
ATOM     30  C   UNL     1       0.366  16.341  20.443  0.00  0.00    +0.000 C 
BRANCH  30  31
ATOM     31  C   UNL     1       0.251  17.095  19.114  0.00  0.00    +0.000 A 
ATOM     32  C   UNL     1      -0.980  17.541  18.605  0.00  0.00    +0.000 A 
ATOM     33  C   UNL     1      -1.054  18.218  17.379  0.00  0.00    +0.000 A 
ATOM     34  C   UNL     1       0.108  18.480  16.654  0.00  0.00    +0.000 A 
ATOM     35  C   UNL     1       1.342  18.064  17.155  0.00  0.00    +0.000 A 
ATOM     36  C   UNL     1       1.412  17.381  18.373  0.00  0.00    +0.000 A 
ENDBRANCH  30  31
ENDBRANCH  27  30
ENDBRANCH  26  27
ENDBRANCH   2  26
TORSDOF 11
ENDMDL
MODEL 2
REMARK VINA RESULT:      -6.4      2.630      6.972
REMARK  Name = 
REMARK  14 active torsions:
REMARK  status: ('A' for Active; 'I' for Inactive)
REMARK    1  A    between atoms: C_1  and  C_2
REMARK    2  A    between atoms: C_2  and  C_3
REMARK    3  A    between atoms: C_3  and  N_4
REMARK    4  A    between atoms: N_4  and  C_5
REMARK    5  A    between atoms: C_5  and  C_6
REMARK    6  A    between atoms: C_6  and  C_7
REMARK    7  A    between atoms: C_8  and  C_10
REMARK    8  A    between atoms: C_11  and  C_12
REMARK    9  A    between atoms: C_12  and  N_13
REMARK   10  A    between atoms: N_13  and  C_14
REMARK   11  A    between atoms: N_13  and  C_16
REMARK   12  A    between atoms: C_14  and  C_15
REMARK   13  A    between atoms: C_16  and  C_17
REMARK   14  A    between atoms: C_30  and  C_31
REMARK                            x       y       z     vdW  Elec       q    Type
REMARK                         _______ _______ _______ _____ _____    ______ ____
ROOT
ATOM      1  C   UNL     1      -0.862  12.275  19.993  0.00  0.00    +0.000 A 
ATOM      2  C   UNL     1      -0.421  11.436  18.947  0.00  0.00    +0.000 A 
ATOM      3  N   UNL     1      -1.270  10.836  18.079  0.00  0.00    +0.000 NA
ATOM      4  C   UNL     1      -2.568  11.087  18.123  0.00  0.00    +0.000 A 
ATOM      5  C   UNL     1      -3.315  10.426  17.156  0.00  0.00    +0.000 A 
ATOM      6  C   UNL     1      -4.681  10.630  17.010  0.00  0.00    +0.000 A 
ATOM      7  C   UNL     1      -5.318  11.472  17.896  0.00  0.00    +0.000 A 
ATOM      8  C   UNL     1      -4.583  12.078  18.926  0.00  0.00    +0.000 A 
ATOM      9  C   UNL     1      -3.159  11.954  19.062  0.00  0.00    +0.000 A 
ATOM     10  C   UNL     1      -2.268  12.598  20.043  0.00  0.00    +0.000 A 
ENDROOT
BRANCH  10  11
ATOM     11  C   UNL     1      -2.862  13.542  21.074  0.00  0.00    +0.000 A 
ATOM     12  C   UNL     1      -3.400  13.098  22.295  0.00  0.00    +0.000 A 
ATOM     13  C   UNL     1      -4.021  13.972  23.202  0.00  0.00    +0.000 A 
ATOM     14  C   UNL     1      -4.198  15.312  22.882  0.00  0.00    +0.000 A 
ATOM     15  C   UNL     1      -3.670  15.794  21.694  0.00  0.00    +0.000 A 
ATOM     16  C   UNL     1      -2.957  14.934  20.846  0.00  0.00    +0.000 A 
ENDBRANCH  10  11
BRANCH   1  18
ATOM     17  N   UNL     1       0.947  14.030  20.594  0.00  0.00    +0.000 N 
ATOM     18  C   UNL     1       0.145  12.898  20.953  0.00  0.00    +0.000 C 
ATOM     19  O   UNL     1       0.271  12.345  22.046  0.00  0.00    +0.000 OA
BRANCH  17  20
ATOM     20  C   UNL     1       0.578  14.926  19.514  0.00  0.00    +0.000 C 
BRANCH  20  22
ATOM     21  C   UNL     1      -0.685  16.895  18.627  0.00  0.00    +0.000 C 
ATOM     22  C   UNL     1       0.293  16.405  19.664  0.00  0.00    +0.000 C 
ENDBRANCH  20  22
ENDBRANCH  17  20
BRANCH  17  23
ATOM     23  C   UNL     1       2.056  14.429  21.480  0.00  0.00    +0.000 C 
BRANCH  23  24
ATOM     24  C   UNL     1       3.486  13.989  21.105  0.00  0.00    +0.000 C 
ATOM     25  C   UNL     1       4.231  14.930  20.180  0.00  0.00    +0.000 C 
ENDBRANCH  23  24
ENDBRANCH  17  23
ENDBRANCH   1  18
BRANCH   2  26
ATOM     26  C   UNL     1       1.013  10.959  18.819  0.00  0.00    +0.000 C 
BRANCH  26  27
ATOM     27  N   UNL     1       1.450   9.648  19.336  0.00  0.00    +0.000 NA
BRANCH  27  28
ATOM     28  C   UNL     1       0.584   9.177  20.425  0.00  0.00    +0.000 C 
ATOM     29  C   UNL     1       1.231   8.991  21.791  0.00  0.00    +0.000 C 
ENDBRANCH  27  28
BRANCH  27  30
ATOM     30  C   UNL     1       1.558   8.686  18.211  0.00  0.00    +0.000 C 
BRANCH  30  31
ATOM     31  C   UNL     1       2.598   7.571  18.369  0.00  0.00    +0.000 A 
ATOM     32  C   UNL     1       2.520   6.606  19.387  0.00  0.00    +0.000 A 
ATOM     33  C   UNL     1       3.495   5.606  19.512  0.00  0.00    +0.000 A 
ATOM     34  C   UNL     1       4.551   5.541  18.604  0.00  0.00    +0.000 A 
ATOM     35  C   UNL     1       4.633   6.478  17.573  0.00  0.00    +0.000 A 
ATOM     36  C   UNL     1       3.664   7.480  17.456  0.00  0.00    +0.000 A 
ENDBRANCH  30  31
ENDBRANCH  27  30
ENDBRANCH  26  27
ENDBRANCH   2  26
TORSDOF 11
ENDMDL
MODEL 3
REMARK VINA RESULT:      -6.3      2.414      6.247
REMARK  Name = 
REMARK  14 active torsions:
REMARK  status: ('A' for Active; 'I' for Inactive)
REMARK    1  A    between atoms: C_1  and  C_2
REMARK    2  A    between atoms: C_2  and  C_3
REMARK    3  A    between atoms: C_3  and  N_4
REMARK    4  A    between atoms: N_4  and  C_5
REMARK    5  A    between atoms: C_5  and  C_6
REMARK    6  A    between atoms: C_6  and  C_7
REMARK    7  A    between atoms: C_8  and  C_10
REMARK    8  A    between atoms: C_11  and  C_12
REMARK    9  A    between atoms: C_12  and  N_13
REMARK   10  A    between atoms: N_13  and  C_14
REMARK   11  A    between atoms: N_13  and  C_16
REMARK   12  A    between atoms: C_14  and  C_15
REMARK   13  A    between atoms: C_16  and  C_17
REMARK   14  A    between atoms: C_30  and  C_31
REMARK                            x       y       z     vdW  Elec       q    Type
REMARK                         _______ _______ _______ _____ _____    ______ ____
ROOT
ATOM      1  C   UNL     1      -2.803  13.387  20.571  0.00  0.00    +0.000 A 
ATOM      2  C   UNL     1      -3.012  12.536  19.464  0.00  0.00    +0.000 A 
ATOM      3  N   UNL     1      -4.179  11.884  19.249  0.00  0.00    +0.000 NA
ATOM      4  C   UNL     1      -5.222  12.091  20.037  0.00  0.00    +0.000 A 
ATOM      5  C   UNL     1      -6.361  11.379  19.682  0.00  0.00    +0.000 A 
ATOM      6  C   UNL     1      -7.567  11.531  20.353  0.00  0.00    +0.000 A 
ATOM      7  C   UNL     1      -7.611  12.374  21.443  0.00  0.00    +0.000 A 
ATOM      8  C   UNL     1      -6.442  13.032  21.856  0.00  0.00    +0.000 A 
ATOM      9  C   UNL     1      -5.199  12.962  21.142  0.00  0.00    +0.000 A 
ATOM     10  C   UNL     1      -3.934  13.663  21.426  0.00  0.00    +0.000 A 
ENDROOT
BRANCH  10  11
ATOM     11  C   UNL     1      -3.862  14.613  22.608  0.00  0.00    +0.000 A 
ATOM     12  C   UNL     1      -3.568  14.183  23.915  0.00  0.00    +0.000 A 
ATOM     13  C   UNL     1      -3.587  15.060  25.013  0.00  0.00    +0.000 A 
ATOM     14  C   UNL     1      -3.982  16.381  24.854  0.00  0.00    +0.000 A 
ATOM     15  C   UNL     1      -4.268  16.849  23.580  0.00  0.00    +0.000 A 
ATOM     16  C   UNL     1      -4.140  15.993  22.476  0.00  0.00    +0.000 A 
ENDBRANCH  10  11
BRANCH   1  18
ATOM     17  N   UNL     1      -0.617  13.802  21.899  0.00  0.00    +0.000 N 
ATOM     18  C   UNL     1      -1.455  14.071  20.769  0.00  0.00    +0.000 C 
ATOM     19  O   UNL     1      -1.141  14.912  19.925  0.00  0.00    +0.000 OA
BRANCH  17  20
ATOM     20  C   UNL     1      -0.747  12.588  22.684  0.00  0.00    +0.000 C 
BRANCH  20  22
ATOM     21  C   UNL     1      -0.598  10.146  23.210  0.00  0.00    +0.000 C 
ATOM     22  C   UNL     1      -0.747  11.181  22.124  0.00  0.00    +0.000 C 
ENDBRANCH  20  22
ENDBRANCH  17  20
BRANCH  17  23
ATOM     23  C   UNL     1       0.553  14.665  22.143  0.00  0.00    +0.000 C 
BRANCH  23  24
ATOM     24  C   UNL     1       1.872  14.334  21.414  0.00  0.00    +0.000 C 
ATOM     25  C   UNL     1       2.538  15.504  20.718  0.00  0.00    +0.000 C 
ENDBRANCH  23  24
ENDBRANCH  17  23
ENDBRANCH   1  18
BRANCH   2  26
ATOM     26  C   UNL     1      -1.897  12.106  18.530  0.00  0.00    +0.000 C 
BRANCH  26  27
ATOM     27  N   UNL     1      -1.274  10.773  18.619  0.00  0.00    +0.000 NA
BRANCH  27  28
ATOM     28  C   UNL     1      -1.732   9.886  17.541  0.00  0.00    +0.000 C 
ATOM     29  C   UNL     1      -2.399  10.545  16.341  0.00  0.00    +0.000 C 
ENDBRANCH  27  28
BRANCH  27  30
ATOM     30  C   UNL     1       0.203  10.921  18.672  0.00  0.00    +0.000 C 
BRANCH  30  31
ATOM     31  C   UNL     1       1.010   9.629  18.835  0.00  0.00    +0.000 A 
ATOM     32  C   UNL     1       1.745   9.061  17.781  0.00  0.00    +0.000 A 
ATOM     33  C   UNL     1       2.462   7.870  17.959  0.00  0.00    +0.000 A 
ATOM     34  C   UNL     1       2.476   7.240  19.204  0.00  0.00    +0.000 A 
ATOM     35  C   UNL     1       1.769   7.801  20.268  0.00  0.00    +0.000 A 
ATOM     36  C   UNL     1       1.046   8.985  20.085  0.00  0.00    +0.000 A 
ENDBRANCH  30  31
ENDBRANCH  27  30
ENDBRANCH  26  27
ENDBRANCH   2  26
TORSDOF 11
ENDMDL
MODEL 4
REMARK VINA RESULT:      -6.3      2.484      6.867
REMARK  Name = 
REMARK  14 active torsions:
REMARK  status: ('A' for Active; 'I' for Inactive)
REMARK    1  A    between atoms: C_1  and  C_2
REMARK    2  A    between atoms: C_2  and  C_3
REMARK    3  A    between atoms: C_3  and  N_4
REMARK    4  A    between atoms: N_4  and  C_5
REMARK    5  A    between atoms: C_5  and  C_6
REMARK    6  A    between atoms: C_6  and  C_7
REMARK    7  A    between atoms: C_8  and  C_10
REMARK    8  A    between atoms: C_11  and  C_12
REMARK    9  A    between atoms: C_12  and  N_13
REMARK   10  A    between atoms: N_13  and  C_14
REMARK   11  A    between atoms: N_13  and  C_16
REMARK   12  A    between atoms: C_14  and  C_15
REMARK   13  A    between atoms: C_16  and  C_17
REMARK   14  A    between atoms: C_30  and  C_31
REMARK                            x       y       z     vdW  Elec       q    Type
REMARK                         _______ _______ _______ _____ _____    ______ ____
ROOT
ATOM      1  C   UNL     1       0.424  13.655  20.423  0.00  0.00    +0.000 A 
ATOM      2  C   UNL     1       0.093  12.462  21.100  0.00  0.00    +0.000 A 
ATOM      3  N   UNL     1      -0.793  12.420  22.123  0.00  0.00    +0.000 NA
ATOM      4  C   UNL     1      -1.464  13.504  22.480  0.00  0.00    +0.000 A 
ATOM      5  C   UNL     1      -2.359  13.309  23.524  0.00  0.00    +0.000 A 
ATOM      6  C   UNL     1      -3.197  14.319  23.977  0.00  0.00    +0.000 A 
ATOM      7  C   UNL     1      -3.089  15.569  23.407  0.00  0.00    +0.000 A 
ATOM      8  C   UNL     1      -2.128  15.792  22.409  0.00  0.00    +0.000 A 
ATOM      9  C   UNL     1      -1.299  14.757  21.859  0.00  0.00    +0.000 A 
ATOM     10  C   UNL     1      -0.318  14.846  20.764  0.00  0.00    +0.000 A 
ENDROOT
BRANCH  10  11
ATOM     11  C   UNL     1      -0.109  16.178  20.065  0.00  0.00    +0.000 A 
ATOM     12  C   UNL     1      -0.793  16.539  18.890  0.00  0.00    +0.000 A 
ATOM     13  C   UNL     1      -0.528  17.739  18.209  0.00  0.00    +0.000 A 
ATOM     14  C   UNL     1       0.490  18.582  18.634  0.00  0.00    +0.000 A 
ATOM     15  C   UNL     1       1.181  18.269  19.795  0.00  0.00    +0.000 A 
ATOM     16  C   UNL     1       0.834  17.125  20.528  0.00  0.00    +0.000 A 
ENDBRANCH  10  11
BRANCH   1  18
ATOM     17  N   UNL     1       2.816  14.022  19.496  0.00  0.00    +0.000 N 
ATOM     18  C   UNL     1       1.450  13.638  19.296  0.00  0.00    +0.000 C 
ATOM     19  O   UNL     1       1.031  13.321  18.182  0.00  0.00    +0.000 OA
BRANCH  17  20
ATOM     20  C   UNL     1       3.431  14.026  20.810  0.00  0.00    +0.000 C 
BRANCH  20  22
ATOM     21  C   UNL     1       4.507  14.924  22.883  0.00  0.00    +0.000 C 
ATOM     22  C   UNL     1       3.786  15.266  21.604  0.00  0.00    +0.000 C 
ENDBRANCH  20  22
ENDBRANCH  17  20
BRANCH  17  23
ATOM     23  C   UNL     1       3.687  14.204  18.320  0.00  0.00    +0.000 C 
BRANCH  23  24
ATOM     24  C   UNL     1       4.103  15.638  17.932  0.00  0.00    +0.000 C 
ATOM     25  C   UNL     1       3.024  16.465  17.262  0.00  0.00    +0.000 C 
ENDBRANCH  23  24
ENDBRANCH  17  23
ENDBRANCH   1  18
BRANCH   2  26
ATOM     26  C   UNL     1       0.841  11.159  20.892  0.00  0.00    +0.000 C 
BRANCH  26  27
ATOM     27  N   UNL     1       0.336  10.103  19.994  0.00  0.00    +0.000 NA
BRANCH  27  28
ATOM     28  C   UNL     1      -1.015  10.405  19.505  0.00  0.00    +0.000 C 
ATOM     29  C   UNL     1      -1.233  10.351  17.999  0.00  0.00    +0.000 C 
ENDBRANCH  27  28
BRANCH  27  30
ATOM     30  C   UNL     1       1.319   9.872  18.905  0.00  0.00    +0.000 C 
BRANCH  30  31
ATOM     31  C   UNL     1       2.000   8.499  18.886  0.00  0.00    +0.000 A 
ATOM     32  C   UNL     1       2.812   8.076  17.821  0.00  0.00    +0.000 A 
ATOM     33  C   UNL     1       3.411   6.808  17.827  0.00  0.00    +0.000 A 
ATOM     34  C   UNL     1       3.226   5.952  18.913  0.00  0.00    +0.000 A 
ATOM     35  C   UNL     1       2.440   6.364  19.990  0.00  0.00    +0.000 A 
ATOM     36  C   UNL     1       1.836   7.626  19.976  0.00  0.00    +0.000 A 
ENDBRANCH  30  31
ENDBRANCH  27  30
ENDBRANCH  26  27
ENDBRANCH   2  26
TORSDOF 11
ENDMDL
MODEL 5
REMARK VINA RESULT:      -6.2      2.753      3.719
REMARK  Name = 
REMARK  14 active torsions:
REMARK  status: ('A' for Active; 'I' for Inactive)
REMARK    1  A    between atoms: C_1  and  C_2
REMARK    2  A    between atoms: C_2  and  C_3
REMARK    3  A    between atoms: C_3  and  N_4
REMARK    4  A    between atoms: N_4  and  C_5
REMARK    5  A    between atoms: C_5  and  C_6
REMARK    6  A    between atoms: C_6  and  C_7
REMARK    7  A    between atoms: C_8  and  C_10
REMARK    8  A    between atoms: C_11  and  C_12
REMARK    9  A    between atoms: C_12  and  N_13
REMARK   10  A    between atoms: N_13  and  C_14
REMARK   11  A    between atoms: N_13  and  C_16
REMARK   12  A    between atoms: C_14  and  C_15
REMARK   13  A    between atoms: C_16  and  C_17
REMARK   14  A    between atoms: C_30  and  C_31
REMARK                            x       y       z     vdW  Elec       q    Type
REMARK                         _______ _______ _______ _____ _____    ______ ____
ROOT
ATOM      1  C   UNL     1      -2.644  12.519  19.906  0.00  0.00    +0.000 A 
ATOM      2  C   UNL     1      -2.984  13.102  21.145  0.00  0.00    +0.000 A 
ATOM      3  N   UNL     1      -4.255  13.149  21.611  0.00  0.00    +0.000 NA
ATOM      4  C   UNL     1      -5.238  12.559  20.951  0.00  0.00    +0.000 A 
ATOM      5  C   UNL     1      -6.482  12.661  21.559  0.00  0.00    +0.000 A 
ATOM      6  C   UNL     1      -7.610  12.038  21.042  0.00  0.00    +0.000 A 
ATOM      7  C   UNL     1      -7.495  11.347  19.855  0.00  0.00    +0.000 A 
ATOM      8  C   UNL     1      -6.258  11.311  19.194  0.00  0.00    +0.000 A 
ATOM      9  C   UNL     1      -5.053  11.874  19.734  0.00  0.00    +0.000 A 
ATOM     10  C   UNL     1      -3.688  11.833  19.180  0.00  0.00    +0.000 A 
ENDROOT
BRANCH  10  11
ATOM     11  C   UNL     1      -3.442  11.105  17.871  0.00  0.00    +0.000 A 
ATOM     12  C   UNL     1      -2.643   9.952  17.777  0.00  0.00    +0.000 A 
ATOM     13  C   UNL     1      -2.357   9.338  16.547  0.00  0.00    +0.000 A 
ATOM     14  C   UNL     1      -2.793   9.904  15.356  0.00  0.00    +0.000 A 
ATOM     15  C   UNL     1      -3.595  11.035  15.405  0.00  0.00    +0.000 A 
ATOM     16  C   UNL     1      -3.965  11.576  16.645  0.00  0.00    +0.000 A 
ENDBRANCH  10  11
BRANCH   1  18
ATOM     17  N   UNL     1      -0.206  11.645  19.972  0.00  0.00    +0.000 N 
ATOM     18  C   UNL     1      -1.197  12.523  19.427  0.00  0.00    +0.000 C 
ATOM     19  O   UNL     1      -0.909  13.362  18.572  0.00  0.00    +0.000 OA
BRANCH  17  20
ATOM     20  C   UNL     1      -0.558  10.422  20.669  0.00  0.00    +0.000 C 
BRANCH  20  22
ATOM     21  C   UNL     1      -1.040  10.628  23.116  0.00  0.00    +0.000 C 
ATOM     22  C   UNL     1      -0.116  10.057  22.071  0.00  0.00    +0.000 C 
ENDBRANCH  20  22
ENDBRANCH  17  20
BRANCH  17  23
ATOM     23  C   UNL     1       1.211  11.866  19.629  0.00  0.00    +0.000 C 
BRANCH  23  24
ATOM     24  C   UNL     1       1.719  11.367  18.260  0.00  0.00    +0.000 C 
ATOM     25  C   UNL     1       1.801   9.861  18.111  0.00  0.00    +0.000 C 
ENDBRANCH  23  24
ENDBRANCH  17  23
ENDBRANCH   1  18
BRANCH   2  26
ATOM     26  C   UNL     1      -2.005  13.913  21.973  0.00  0.00    +0.000 C 
BRANCH  26  27
ATOM     27  N   UNL     1      -2.407  14.586  23.222  0.00  0.00    +0.000 NA
BRANCH  27  28
ATOM     28  C   UNL     1      -1.338  14.549  24.228  0.00  0.00    +0.000 C 
ATOM     29  C   UNL     1      -1.207  15.762  25.141  0.00  0.00    +0.000 C 
ENDBRANCH  27  28
BRANCH  27  30
ATOM     30  C   UNL     1      -2.878  15.959  22.912  0.00  0.00    +0.000 C 
BRANCH  30  31
ATOM     31  C   UNL     1      -4.396  16.155  22.829  0.00  0.00    +0.000 A 
ATOM     32  C   UNL     1      -5.270  15.697  23.828  0.00  0.00    +0.000 A 
ATOM     33  C   UNL     1      -6.656  15.880  23.716  0.00  0.00    +0.000 A 
ATOM     34  C   UNL     1      -7.187  16.546  22.612  0.00  0.00    +0.000 A 
ATOM     35  C   UNL     1      -6.331  17.027  21.620  0.00  0.00    +0.000 A 
ATOM     36  C   UNL     1      -4.950  16.835  21.730  0.00  0.00    +0.000 A 
ENDBRANCH  30  31
ENDBRANCH  27  30
ENDBRANCH  26  27
ENDBRANCH   2  26
TORSDOF 11
ENDMDL
MODEL 6
REMARK VINA RESULT:      -6.2      2.324      7.930
REMARK  Name = 
REMARK  14 active torsions:
REMARK  status: ('A' for Active; 'I' for Inactive)
REMARK    1  A    between atoms: C_1  and  C_2
REMARK    2  A    between atoms: C_2  and  C_3
REMARK    3  A    between atoms: C_3  and  N_4
REMARK    4  A    between atoms: N_4  and  C_5
REMARK    5  A    between atoms: C_5  and  C_6
REMARK    6  A    between atoms: C_6  and  C_7
REMARK    7  A    between atoms: C_8  and  C_10
REMARK    8  A    between atoms: C_11  and  C_12
REMARK    9  A    between atoms: C_12  and  N_13
REMARK   10  A    between atoms: N_13  and  C_14
REMARK   11  A    between atoms: N_13  and  C_16
REMARK   12  A    between atoms: C_14  and  C_15
REMARK   13  A    between atoms: C_16  and  C_17
REMARK   14  A    between atoms: C_30  and  C_31
REMARK                            x       y       z     vdW  Elec       q    Type
REMARK                         _______ _______ _______ _____ _____    ______ ____
ROOT
ATOM      1  C   UNL     1      -0.028  13.219  21.005  0.00  0.00    +0.000 A 
ATOM      2  C   UNL     1       0.890  12.288  20.474  0.00  0.00    +0.000 A 
ATOM      3  N   UNL     1       1.807  12.614  19.532  0.00  0.00    +0.000 NA
ATOM      4  C   UNL     1       1.940  13.866  19.126  0.00  0.00    +0.000 A 
ATOM      5  C   UNL     1       2.937  14.061  18.179  0.00  0.00    +0.000 A 
ATOM      6  C   UNL     1       3.263  15.322  17.698  0.00  0.00    +0.000 A 
ATOM      7  C   UNL     1       2.527  16.403  18.135  0.00  0.00    +0.000 A 
ATOM      8  C   UNL     1       1.465  16.201  19.029  0.00  0.00    +0.000 A 
ATOM      9  C   UNL     1       1.148  14.926  19.609  0.00  0.00    +0.000 A 
ATOM     10  C   UNL     1       0.118  14.601  20.611  0.00  0.00    +0.000 A 
ENDROOT
BRANCH  10  11
ATOM     11  C   UNL     1      -0.758  15.713  21.159  0.00  0.00    +0.000 A 
ATOM     12  C   UNL     1      -0.455  16.410  22.343  0.00  0.00    +0.000 A 
ATOM     13  C   UNL     1      -1.317  17.378  22.883  0.00  0.00    +0.000 A 
ATOM     14  C   UNL     1      -2.554  17.626  22.301  0.00  0.00    +0.000 A 
ATOM     15  C   UNL     1      -2.886  16.970  21.126  0.00  0.00    +0.000 A 
ATOM     16  C   UNL     1      -1.971  16.085  20.536  0.00  0.00    +0.000 A 
ENDBRANCH  10  11
BRANCH   1  18
ATOM     17  N   UNL     1      -2.453  12.708  21.759  0.00  0.00    +0.000 N 
ATOM     18  C   UNL     1      -1.052  12.780  22.045  0.00  0.00    +0.000 C 
ATOM     19  O   UNL     1      -0.615  12.534  23.170  0.00  0.00    +0.000 OA
BRANCH  17  20
ATOM     20  C   UNL     1      -2.959  12.611  20.402  0.00  0.00    +0.000 C 
BRANCH  20  22
ATOM     21  C   UNL     1      -4.663  11.903  18.712  0.00  0.00    +0.000 C 
ATOM     22  C   UNL     1      -4.422  12.626  20.012  0.00  0.00    +0.000 C 
ENDBRANCH  20  22
ENDBRANCH  17  20
BRANCH  17  23
ATOM     23  C   UNL     1      -3.401  12.504  22.870  0.00  0.00    +0.000 C 
BRANCH  23  24
ATOM     24  C   UNL     1      -4.081  13.742  23.488  0.00  0.00    +0.000 C 
ATOM     25  C   UNL     1      -3.225  14.536  24.455  0.00  0.00    +0.000 C 
ENDBRANCH  23  24
ENDBRANCH  17  23
ENDBRANCH   1  18
BRANCH   2  26
ATOM     26  C   UNL     1       0.806  10.798  20.747  0.00  0.00    +0.000 C 
BRANCH  26  27
ATOM     27  N   UNL     1       0.313   9.844  19.736  0.00  0.00    +0.000 NA
BRANCH  27  28
ATOM     28  C   UNL     1      -0.981  10.262  19.180  0.00  0.00    +0.000 C 
ATOM     29  C   UNL     1      -1.169  10.105  17.677  0.00  0.00    +0.000 C 
ENDBRANCH  27  28
BRANCH  27  30
ATOM     30  C   UNL     1       1.359   9.638  18.703  0.00  0.00    +0.000 C 
BRANCH  30  31
ATOM     31  C   UNL     1       2.110   8.303  18.754  0.00  0.00    +0.000 A 
ATOM     32  C   UNL     1       1.978   7.405  19.826  0.00  0.00    +0.000 A 
ATOM     33  C   UNL     1       2.689   6.197  19.849  0.00  0.00    +0.000 A 
ATOM     34  C   UNL     1       3.527   5.857  18.788  0.00  0.00    +0.000 A 
ATOM     35  C   UNL     1       3.654   6.727  17.704  0.00  0.00    +0.000 A 
ATOM     36  C   UNL     1       2.950   7.936  17.688  0.00  0.00    +0.000 A 
ENDBRANCH  30  31
ENDBRANCH  27  30
ENDBRANCH  26  27
ENDBRANCH   2  26
TORSDOF 11
ENDMDL
MODEL 7
REMARK VINA RESULT:      -6.2      1.438      2.354
REMARK  Name = 
REMARK  14 active torsions:
REMARK  status: ('A' for Active; 'I' for Inactive)
REMARK    1  A    between atoms: C_1  and  C_2
REMARK    2  A    between atoms: C_2  and  C_3
REMARK    3  A    between atoms: C_3  and  N_4
REMARK    4  A    between atoms: N_4  and  C_5
REMARK    5  A    between atoms: C_5  and  C_6
REMARK    6  A    between atoms: C_6  and  C_7
REMARK    7  A    between atoms: C_8  and  C_10
REMARK    8  A    between atoms: C_11  and  C_12
REMARK    9  A    between atoms: C_12  and  N_13
REMARK   10  A    between atoms: N_13  and  C_14
REMARK   11  A    between atoms: N_13  and  C_16
REMARK   12  A    between atoms: C_14  and  C_15
REMARK   13  A    between atoms: C_16  and  C_17
REMARK   14  A    between atoms: C_30  and  C_31
REMARK                            x       y       z     vdW  Elec       q    Type
REMARK                         _______ _______ _______ _____ _____    ______ ____
ROOT
ATOM      1  C   UNL     1      -1.927  12.231  19.850  0.00  0.00    +0.000 A 
ATOM      2  C   UNL     1      -2.019  12.776  21.149  0.00  0.00    +0.000 A 
ATOM      3  N   UNL     1      -3.200  13.081  21.736  0.00  0.00    +0.000 NA
ATOM      4  C   UNL     1      -4.345  12.793  21.138  0.00  0.00    +0.000 A 
ATOM      5  C   UNL     1      -5.477  13.135  21.867  0.00  0.00    +0.000 A 
ATOM      6  C   UNL     1      -6.759  12.837  21.424  0.00  0.00    +0.000 A 
ATOM      7  C   UNL     1      -6.906  12.238  20.192  0.00  0.00    +0.000 A 
ATOM      8  C   UNL     1      -5.770  11.966  19.415  0.00  0.00    +0.000 A 
ATOM      9  C   UNL     1      -4.426  12.185  19.871  0.00  0.00    +0.000 A 
ATOM     10  C   UNL     1      -3.159  11.870  19.188  0.00  0.00    +0.000 A 
ENDROOT
BRANCH  10  11
ATOM     11  C   UNL     1      -3.199  11.213  17.820  0.00  0.00    +0.000 A 
ATOM     12  C   UNL     1      -3.973  11.712  16.756  0.00  0.00    +0.000 A 
ATOM     13  C   UNL     1      -4.065  11.047  15.522  0.00  0.00    +0.000 A 
ATOM     14  C   UNL     1      -3.450   9.816  15.335  0.00  0.00    +0.000 A 
ATOM     15  C   UNL     1      -2.667   9.295  16.354  0.00  0.00    +0.000 A 
ATOM     16  C   UNL     1      -2.493  10.020  17.543  0.00  0.00    +0.000 A 
ENDBRANCH  10  11
BRANCH   1  18
ATOM     17  N   UNL     1       0.244  10.830  19.660  0.00  0.00    +0.000 N 
ATOM     18  C   UNL     1      -0.564  11.935  19.237  0.00  0.00    +0.000 C 
ATOM     19  O   UNL     1      -0.166  12.729  18.384  0.00  0.00    +0.000 OA
BRANCH  17  20
ATOM     20  C   UNL     1      -0.317   9.684  20.351  0.00  0.00    +0.000 C 
BRANCH  20  22
ATOM     21  C   UNL     1      -0.402   9.623  22.851  0.00  0.00    +0.000 C 
ATOM     22  C   UNL     1       0.247   9.062  21.611  0.00  0.00    +0.000 C 
ENDBRANCH  20  22
ENDBRANCH  17  20
BRANCH  17  23
ATOM     23  C   UNL     1       1.640  10.744  19.191  0.00  0.00    +0.000 C 
BRANCH  23  24
ATOM     24  C   UNL     1       1.926   9.973  17.886  0.00  0.00    +0.000 C 
ATOM     25  C   UNL     1       2.350   8.529  18.069  0.00  0.00    +0.000 C 
ENDBRANCH  23  24
ENDBRANCH  17  23
ENDBRANCH   1  18
BRANCH   2  26
ATOM     26  C   UNL     1      -0.812  13.264  21.927  0.00  0.00    +0.000 C 
BRANCH  26  27
ATOM     27  N   UNL     1      -0.118  14.520  21.585  0.00  0.00    +0.000 NA
BRANCH  27  28
ATOM     28  C   UNL     1      -0.413  15.586  22.551  0.00  0.00    +0.000 C 
ATOM     29  C   UNL     1      -1.461  16.614  22.145  0.00  0.00    +0.000 C 
ENDBRANCH  27  28
BRANCH  27  30
ATOM     30  C   UNL     1       1.335  14.253  21.429  0.00  0.00    +0.000 C 
BRANCH  30  31
ATOM     31  C   UNL     1       1.982  14.754  20.133  0.00  0.00    +0.000 A 
ATOM     32  C   UNL     1       1.531  15.901  19.460  0.00  0.00    +0.000 A 
ATOM     33  C   UNL     1       2.136  16.326  18.269  0.00  0.00    +0.000 A 
ATOM     34  C   UNL     1       3.220  15.622  17.744  0.00  0.00    +0.000 A 
ATOM     35  C   UNL     1       3.695  14.492  18.411  0.00  0.00    +0.000 A 
ATOM     36  C   UNL     1       3.083  14.065  19.594  0.00  0.00    +0.000 A 
ENDBRANCH  30  31
ENDBRANCH  27  30
ENDBRANCH  26  27
ENDBRANCH   2  26
TORSDOF 11
ENDMDL
MODEL 8
REMARK VINA RESULT:      -6.2      1.043      1.499
REMARK  Name = 
REMARK  14 active torsions:
REMARK  status: ('A' for Active; 'I' for Inactive)
REMARK    1  A    between atoms: C_1  and  C_2
REMARK    2  A    between atoms: C_2  and  C_3
REMARK    3  A    between atoms: C_3  and  N_4
REMARK    4  A    between atoms: N_4  and  C_5
REMARK    5  A    between atoms: C_5  and  C_6
REMARK    6  A    between atoms: C_6  and  C_7
REMARK    7  A    between atoms: C_8  and  C_10
REMARK    8  A    between atoms: C_11  and  C_12
REMARK    9  A    between atoms: C_12  and  N_13
REMARK   10  A    between atoms: N_13  and  C_14
REMARK   11  A    between atoms: N_13  and  C_16
REMARK   12  A    between atoms: C_14  and  C_15
REMARK   13  A    between atoms: C_16  and  C_17
REMARK   14  A    between atoms: C_30  and  C_31
REMARK                            x       y       z     vdW  Elec       q    Type
REMARK                         _______ _______ _______ _____ _____    ______ ____
ROOT
ATOM      1  C   UNL     1      -2.725  12.724  20.189  0.00  0.00    +0.000 A 
ATOM      2  C   UNL     1      -3.128  13.311  21.408  0.00  0.00    +0.000 A 
ATOM      3  N   UNL     1      -4.416  13.330  21.824  0.00  0.00    +0.000 NA
ATOM      4  C   UNL     1      -5.358  12.710  21.132  0.00  0.00    +0.000 A 
ATOM      5  C   UNL     1      -6.628  12.786  21.689  0.00  0.00    +0.000 A 
ATOM      6  C   UNL     1      -7.719  12.131  21.135  0.00  0.00    +0.000 A 
ATOM      7  C   UNL     1      -7.540  11.433  19.961  0.00  0.00    +0.000 A 
ATOM      8  C   UNL     1      -6.277  11.421  19.349  0.00  0.00    +0.000 A 
ATOM      9  C   UNL     1      -5.109  12.019  19.930  0.00  0.00    +0.000 A 
ATOM     10  C   UNL     1      -3.722  12.006  19.431  0.00  0.00    +0.000 A 
ENDROOT
BRANCH  10  11
ATOM     11  C   UNL     1      -3.407  11.273  18.139  0.00  0.00    +0.000 A 
ATOM     12  C   UNL     1      -2.436  10.260  18.054  0.00  0.00    +0.000 A 
ATOM     13  C   UNL     1      -2.096   9.648  16.836  0.00  0.00    +0.000 A 
ATOM     14  C   UNL     1      -2.659  10.086  15.645  0.00  0.00    +0.000 A 
ATOM     15  C   UNL     1      -3.631  11.075  15.686  0.00  0.00    +0.000 A 
ATOM     16  C   UNL     1      -4.042  11.602  16.919  0.00  0.00    +0.000 A 
ENDBRANCH  10  11
BRANCH   1  18
ATOM     17  N   UNL     1      -0.268  11.923  20.371  0.00  0.00    +0.000 N 
ATOM     18  C   UNL     1      -1.260  12.761  19.767  0.00  0.00    +0.000 C 
ATOM     19  O   UNL     1      -0.962  13.589  18.906  0.00  0.00    +0.000 OA
BRANCH  17  20
ATOM     20  C   UNL     1      -0.613  10.706  21.081  0.00  0.00    +0.000 C 
BRANCH  20  22
ATOM     21  C   UNL     1       0.880   9.242  22.455  0.00  0.00    +0.000 C 
ATOM     22  C   UNL     1      -0.146  10.346  22.476  0.00  0.00    +0.000 C 
ENDBRANCH  20  22
ENDBRANCH  17  20
BRANCH  17  23
ATOM     23  C   UNL     1       1.156  12.177  20.079  0.00  0.00    +0.000 C 
BRANCH  23  24
ATOM     24  C   UNL     1       1.688  11.825  18.674  0.00  0.00    +0.000 C 
ATOM     25  C   UNL     1       2.579  12.873  18.039  0.00  0.00    +0.000 C 
ENDBRANCH  23  24
ENDBRANCH  17  23
ENDBRANCH   1  18
BRANCH   2  26
ATOM     26  C   UNL     1      -2.202  14.153  22.265  0.00  0.00    +0.000 C 
BRANCH  26  27
ATOM     27  N   UNL     1      -2.019  15.598  22.031  0.00  0.00    +0.000 NA
BRANCH  27  28
ATOM     28  C   UNL     1      -2.504  16.398  23.163  0.00  0.00    +0.000 C 
ATOM     29  C   UNL     1      -3.203  17.710  22.831  0.00  0.00    +0.000 C 
ENDBRANCH  27  28
BRANCH  27  30
ATOM     30  C   UNL     1      -0.599  15.865  21.687  0.00  0.00    +0.000 C 
BRANCH  30  31
ATOM     31  C   UNL     1      -0.339  16.478  20.307  0.00  0.00    +0.000 A 
ATOM     32  C   UNL     1       0.930  16.472  19.706  0.00  0.00    +0.000 A 
ATOM     33  C   UNL     1       1.138  17.053  18.447  0.00  0.00    +0.000 A 
ATOM     34  C   UNL     1       0.072  17.631  17.758  0.00  0.00    +0.000 A 
ATOM     35  C   UNL     1      -1.201  17.627  18.330  0.00  0.00    +0.000 A 
ATOM     36  C   UNL     1      -1.404  17.054  19.590  0.00  0.00    +0.000 A 
ENDBRANCH  30  31
ENDBRANCH  27  30
ENDBRANCH  26  27
ENDBRANCH   2  26
TORSDOF 11
ENDMDL
MODEL 9
REMARK VINA RESULT:      -6.2      2.093      6.707
REMARK  Name = 
REMARK  14 active torsions:
REMARK  status: ('A' for Active; 'I' for Inactive)
REMARK    1  A    between atoms: C_1  and  C_2
REMARK    2  A    between atoms: C_2  and  C_3
REMARK    3  A    between atoms: C_3  and  N_4
REMARK    4  A    between atoms: N_4  and  C_5
REMARK    5  A    between atoms: C_5  and  C_6
REMARK    6  A    between atoms: C_6  and  C_7
REMARK    7  A    between atoms: C_8  and  C_10
REMARK    8  A    between atoms: C_11  and  C_12
REMARK    9  A    between atoms: C_12  and  N_13
REMARK   10  A    between atoms: N_13  and  C_14
REMARK   11  A    between atoms: N_13  and  C_16
REMARK   12  A    between atoms: C_14  and  C_15
REMARK   13  A    between atoms: C_16  and  C_17
REMARK   14  A    between atoms: C_30  and  C_31
REMARK                            x       y       z     vdW  Elec       q    Type
REMARK                         _______ _______ _______ _____ _____    ______ ____
ROOT
ATOM      1  C   UNL     1      -2.640  12.389  20.203  0.00  0.00    +0.000 A 
ATOM      2  C   UNL     1      -1.415  11.969  19.643  0.00  0.00    +0.000 A 
ATOM      3  N   UNL     1      -1.328  11.358  18.437  0.00  0.00    +0.000 NA
ATOM      4  C   UNL     1      -2.403  11.205  17.680  0.00  0.00    +0.000 A 
ATOM      5  C   UNL     1      -2.163  10.589  16.458  0.00  0.00    +0.000 A 
ATOM      6  C   UNL     1      -3.162  10.416  15.510  0.00  0.00    +0.000 A 
ATOM      7  C   UNL     1      -4.443  10.817  15.823  0.00  0.00    +0.000 A 
ATOM      8  C   UNL     1      -4.707  11.364  17.088  0.00  0.00    +0.000 A 
ATOM      9  C   UNL     1      -3.689  11.632  18.064  0.00  0.00    +0.000 A 
ATOM     10  C   UNL     1      -3.825  12.271  19.385  0.00  0.00    +0.000 A 
ENDROOT
BRANCH  10  11
ATOM     11  C   UNL     1      -5.193  12.747  19.840  0.00  0.00    +0.000 A 
ATOM     12  C   UNL     1      -5.618  14.081  19.710  0.00  0.00    +0.000 A 
ATOM     13  C   UNL     1      -6.853  14.525  20.211  0.00  0.00    +0.000 A 
ATOM     14  C   UNL     1      -7.672  13.666  20.932  0.00  0.00    +0.000 A 
ATOM     15  C   UNL     1      -7.296  12.338  21.072  0.00  0.00    +0.000 A 
ATOM     16  C   UNL     1      -6.113  11.881  20.474  0.00  0.00    +0.000 A 
ENDBRANCH  10  11
BRANCH   1  18
ATOM     17  N   UNL     1      -2.242  14.397  21.790  0.00  0.00    +0.000 N 
ATOM     18  C   UNL     1      -2.670  13.047  21.577  0.00  0.00    +0.000 C 
ATOM     19  O   UNL     1      -3.040  12.337  22.513  0.00  0.00    +0.000 OA
BRANCH  17  20
ATOM     20  C   UNL     1      -2.171  15.364  20.711  0.00  0.00    +0.000 C 
BRANCH  20  22
ATOM     21  C   UNL     1      -1.061  16.962  19.137  0.00  0.00    +0.000 C 
ATOM     22  C   UNL     1      -0.942  15.652  19.875  0.00  0.00    +0.000 C 
ENDBRANCH  20  22
ENDBRANCH  17  20
BRANCH  17  23
ATOM     23  C   UNL     1      -2.079  14.886  23.172  0.00  0.00    +0.000 C 
BRANCH  23  24
ATOM     24  C   UNL     1      -3.323  15.425  23.909  0.00  0.00    +0.000 C 
ATOM     25  C   UNL     1      -3.181  15.547  25.413  0.00  0.00    +0.000 C 
ENDBRANCH  23  24
ENDBRANCH  17  23
ENDBRANCH   1  18
BRANCH   2  26
ATOM     26  C   UNL     1      -0.109  11.970  20.416  0.00  0.00    +0.000 C 
BRANCH  26  27
ATOM     27  N   UNL     1       0.357  10.787  21.163  0.00  0.00    +0.000 NA
BRANCH  27  28
ATOM     28  C   UNL     1      -0.069  10.828  22.568  0.00  0.00    +0.000 C 
ATOM     29  C   UNL     1      -0.227   9.492  23.282  0.00  0.00    +0.000 C 
ENDBRANCH  27  28
BRANCH  27  30
ATOM     30  C   UNL     1      -0.073   9.556  20.454  0.00  0.00    +0.000 C 
BRANCH  30  31
ATOM     31  C   UNL     1       1.018   8.797  19.689  0.00  0.00    +0.000 A 
ATOM     32  C   UNL     1       1.675   7.678  20.227  0.00  0.00    +0.000 A 
ATOM     33  C   UNL     1       2.679   7.014  19.507  0.00  0.00    +0.000 A 
ATOM     34  C   UNL     1       3.024   7.445  18.226  0.00  0.00    +0.000 A 
ATOM     35  C   UNL     1       2.366   8.542  17.668  0.00  0.00    +0.000 A 
ATOM     36  C   UNL     1       1.372   9.208  18.392  0.00  0.00    +0.000 A 
ENDBRANCH  30  31
ENDBRANCH  27  30
ENDBRANCH  26  27
ENDBRANCH   2  26
TORSDOF 11
ENDMDL
