MODEL 1
REMARK VINA RESULT:      -6.6      0.000      0.000
REMARK  Name = 
REMARK  2 active torsions:
REMARK  status: ('A' for Active; 'I' for Inactive)
REMARK    1  A    between atoms: C_2  and  C_9
REMARK    2  A    between atoms: C_14  and  C_16
REMARK                            x       y       z     vdW  Elec       q    Type
REMARK                         _______ _______ _______ _____ _____    ______ ____
ROOT
ATOM      1  C   UNL     1      -1.416  11.674  18.060  0.00  0.00    +0.000 C 
ATOM      2  C   UNL     1      -0.472  10.479  18.287  0.00  0.00    +0.000 C 
ATOM      3  C   UNL     1      -0.408  10.095  19.766  0.00  0.00    +0.000 C 
ATOM      4  C   UNL     1      -0.064  11.292  20.655  0.00  0.00    +0.000 C 
ATOM      5  N   UNL     1      -0.941  12.430  20.378  0.00  0.00    +0.000 N 
ATOM      6  C   UNL     1      -1.719  13.129  21.302  0.00  0.00    +0.000 C 
ATOM      7  O   UNL     1      -2.584  13.908  20.892  0.00  0.00    +0.000 OA
ATOM      8  C   UNL     1      -0.983  12.829  18.965  0.00  0.00    +0.000 C 
ENDROOT
BRANCH   6   9
ATOM      9  C   UNL     1      -1.476  12.932  22.816  0.00  0.00    +0.000 C 
ATOM     10  C   UNL     1      -2.374  11.829  23.396  0.00  0.00    +0.000 C 
ATOM     11  C   UNL     1      -3.781  12.293  23.750  0.00  0.00    +0.000 C 
ATOM     12  C   UNL     1      -3.802  13.535  24.636  0.00  0.00    +0.000 C 
ATOM     13  C   UNL     1      -2.707  14.538  24.377  0.00  0.00    +0.000 A 
ATOM     14  C   UNL     1      -2.765  15.772  25.045  0.00  0.00    +0.000 A 
ATOM     15  C   UNL     1      -1.734  16.704  24.922  0.00  0.00    +0.000 A 
ATOM     16  C   UNL     1      -0.629  16.412  24.132  0.00  0.00    +0.000 A 
ATOM     17  C   UNL     1      -0.565  15.195  23.454  0.00  0.00    +0.000 A 
ATOM     18  C   UNL     1      -1.596  14.246  23.565  0.00  0.00    +0.000 A 
ENDBRANCH   6   9
BRANCH   1  20
ATOM     19  O   UNL     1      -3.177  10.077  17.830  0.00  0.00    +0.000 OA
ATOM     20  C   UNL     1      -2.881  11.222  18.176  0.00  0.00    +0.000 C 
ATOM     21  N   UNL     1      -3.769  12.172  18.613  0.00  0.00    +0.000 N 
ATOM     22  C   UNL     1      -5.100  11.924  18.784  0.00  0.00    +0.000 A 
ATOM     23  N   UNL     1      -5.768  10.804  18.692  0.00  0.00    +0.000 NA
ATOM     24  C   UNL     1      -7.110  11.060  18.892  0.00  0.00    +0.000 A 
ATOM     25  C   UNL     1      -7.435  12.378  19.130  0.00  0.00    +0.000 A 
ATOM     26  S   UNL     1      -6.006  13.321  19.170  0.00  0.00    +0.000 S 
ATOM     27  H   UNL     1      -3.490  13.117  18.855  0.00  0.00    +0.000 HD
ENDBRANCH   1  20
TORSDOF 2
ENDMDL
MODEL 2
REMARK VINA RESULT:      -6.6      5.348      9.497
REMARK  Name = 
REMARK  2 active torsions:
REMARK  status: ('A' for Active; 'I' for Inactive)
REMARK    1  A    between atoms: C_2  and  C_9
REMARK    2  A    between atoms: C_14  and  C_16
REMARK                            x       y       z     vdW  Elec       q    Type
REMARK                         _______ _______ _______ _____ _____    ______ ____
ROOT
ATOM      1  C   UNL     1       0.239  10.675  19.692  0.00  0.00    +0.000 C 
ATOM      2  C   UNL     1       0.285  10.630  21.231  0.00  0.00    +0.000 C 
ATOM      3  C   UNL     1       1.418   9.729  21.726  0.00  0.00    +0.000 C 
ATOM      4  C   UNL     1       1.358   8.335  21.100  0.00  0.00    +0.000 C 
ATOM      5  N   UNL     1       1.258   8.410  19.642  0.00  0.00    +0.000 N 
ATOM      6  C   UNL     1       2.098   7.793  18.714  0.00  0.00    +0.000 C 
ATOM      7  O   UNL     1       2.038   8.134  17.530  0.00  0.00    +0.000 OA
ATOM      8  C   UNL     1       0.152   9.245  19.156  0.00  0.00    +0.000 C 
ENDROOT
BRANCH   6   9
ATOM      9  C   UNL     1       3.073   6.686  19.178  0.00  0.00    +0.000 C 
ATOM     10  C   UNL     1       4.379   6.705  18.370  0.00  0.00    +0.000 C 
ATOM     11  C   UNL     1       4.296   5.979  17.033  0.00  0.00    +0.000 C 
ATOM     12  C   UNL     1       3.747   4.560  17.151  0.00  0.00    +0.000 C 
ATOM     13  C   UNL     1       2.686   4.356  18.201  0.00  0.00    +0.000 A 
ATOM     14  C   UNL     1       2.028   3.117  18.250  0.00  0.00    +0.000 A 
ATOM     15  C   UNL     1       1.105   2.832  19.256  0.00  0.00    +0.000 A 
ATOM     16  C   UNL     1       0.829   3.785  20.230  0.00  0.00    +0.000 A 
ATOM     17  C   UNL     1       1.467   5.024  20.186  0.00  0.00    +0.000 A 
ATOM     18  C   UNL     1       2.397   5.327  19.178  0.00  0.00    +0.000 A 
ENDBRANCH   6   9
BRANCH   1  20
ATOM     19  O   UNL     1       2.027  11.141  18.178  0.00  0.00    +0.000 OA
ATOM     20  C   UNL     1       1.388  11.542  19.152  0.00  0.00    +0.000 C 
ATOM     21  N   UNL     1       1.650  12.693  19.851  0.00  0.00    +0.000 N 
ATOM     22  C   UNL     1       2.626  13.577  19.491  0.00  0.00    +0.000 A 
ATOM     23  N   UNL     1       3.396  13.600  18.435  0.00  0.00    +0.000 NA
ATOM     24  C   UNL     1       4.275  14.660  18.538  0.00  0.00    +0.000 A 
ATOM     25  C   UNL     1       4.154  15.423  19.680  0.00  0.00    +0.000 A 
ATOM     26  S   UNL     1       2.854  14.835  20.627  0.00  0.00    +0.000 S 
ATOM     27  H   UNL     1       1.123  12.971  20.672  0.00  0.00    +0.000 HD
ENDBRANCH   1  20
TORSDOF 2
ENDMDL
MODEL 3
REMARK VINA RESULT:      -6.2      3.143      7.537
REMARK  Name = 
REMARK  2 active torsions:
REMARK  status: ('A' for Active; 'I' for Inactive)
REMARK    1  A    between atoms: C_2  and  C_9
REMARK    2  A    between atoms: C_14  and  C_16
REMARK                            x       y       z     vdW  Elec       q    Type
REMARK                         _______ _______ _______ _____ _____    ______ ____
ROOT
ATOM      1  C   UNL     1      -1.461  15.939  22.069  0.00  0.00    +0.000 C 
ATOM      2  C   UNL     1      -2.336  15.535  23.270  0.00  0.00    +0.000 C 
ATOM      3  C   UNL     1      -2.510  14.017  23.344  0.00  0.00    +0.000 C 
ATOM      4  C   UNL     1      -3.018  13.433  22.025  0.00  0.00    +0.000 C 
ATOM      5  N   UNL     1      -2.202  13.879  20.896  0.00  0.00    +0.000 N 
ATOM      6  C   UNL     1      -1.564  13.070  19.954  0.00  0.00    +0.000 C 
ATOM      7  O   UNL     1      -0.723  13.570  19.204  0.00  0.00    +0.000 OA
ATOM      8  C   UNL     1      -2.057  15.337  20.796  0.00  0.00    +0.000 C 
ENDROOT
BRANCH   6   9
ATOM      9  C   UNL     1      -1.933  11.571  19.855  0.00  0.00    +0.000 C 
ATOM     10  C   UNL     1      -0.747  10.669  20.228  0.00  0.00    +0.000 C 
ATOM     11  C   UNL     1       0.238  10.434  19.090  0.00  0.00    +0.000 C 
ATOM     12  C   UNL     1      -0.428   9.955  17.804  0.00  0.00    +0.000 C 
ATOM     13  C   UNL     1      -1.795  10.525  17.527  0.00  0.00    +0.000 A 
ATOM     14  C   UNL     1      -2.391  10.252  16.285  0.00  0.00    +0.000 A 
ATOM     15  C   UNL     1      -3.692  10.670  16.005  0.00  0.00    +0.000 A 
ATOM     16  C   UNL     1      -4.417  11.365  16.965  0.00  0.00    +0.000 A 
ATOM     17  C   UNL     1      -3.832  11.654  18.198  0.00  0.00    +0.000 A 
ATOM     18  C   UNL     1      -2.522  11.242  18.496  0.00  0.00    +0.000 A 
ENDBRANCH   6   9
BRANCH   1  20
ATOM     19  O   UNL     1       0.411  15.641  23.523  0.00  0.00    +0.000 OA
ATOM     20  C   UNL     1       0.015  15.618  22.356  0.00  0.00    +0.000 C 
ATOM     21  N   UNL     1       0.802  15.382  21.258  0.00  0.00    +0.000 N 
ATOM     22  C   UNL     1       2.127  15.068  21.345  0.00  0.00    +0.000 A 
ATOM     23  N   UNL     1       2.871  14.828  22.394  0.00  0.00    +0.000 NA
ATOM     24  C   UNL     1       4.172  14.614  21.986  0.00  0.00    +0.000 A 
ATOM     25  C   UNL     1       4.392  14.700  20.628  0.00  0.00    +0.000 A 
ATOM     26  S   UNL     1       2.908  14.993  19.826  0.00  0.00    +0.000 S 
ATOM     27  H   UNL     1       0.445  15.407  20.308  0.00  0.00    +0.000 HD
ENDBRANCH   1  20
TORSDOF 2
ENDMDL
MODEL 4
REMARK VINA RESULT:      -6.2      7.162      9.961
REMARK  Name = 
REMARK  2 active torsions:
REMARK  status: ('A' for Active; 'I' for Inactive)
REMARK    1  A    between atoms: C_2  and  C_9
REMARK    2  A    between atoms: C_14  and  C_16
REMARK                            x       y       z     vdW  Elec       q    Type
REMARK                         _______ _______ _______ _____ _____    ______ ____
ROOT
ATOM      1  C   UNL     1       3.334   3.268  20.198  0.00  0.00    +0.000 C 
ATOM      2  C   UNL     1       2.010   2.484  20.254  0.00  0.00    +0.000 C 
ATOM      3  C   UNL     1       0.874   3.267  19.594  0.00  0.00    +0.000 C 
ATOM      4  C   UNL     1       0.744   4.681  20.163  0.00  0.00    +0.000 C 
ATOM      5  N   UNL     1       2.029   5.380  20.148  0.00  0.00    +0.000 N 
ATOM      6  C   UNL     1       2.298   6.622  19.570  0.00  0.00    +0.000 C 
ATOM      7  O   UNL     1       3.471   6.977  19.429  0.00  0.00    +0.000 OA
ATOM      8  C   UNL     1       3.119   4.653  20.811  0.00  0.00    +0.000 C 
ENDROOT
BRANCH   6   9
ATOM      9  C   UNL     1       1.129   7.535  19.133  0.00  0.00    +0.000 C 
ATOM     10  C   UNL     1       1.386   8.167  17.757  0.00  0.00    +0.000 C 
ATOM     11  C   UNL     1       2.258   9.416  17.798  0.00  0.00    +0.000 C 
ATOM     12  C   UNL     1       1.769  10.460  18.796  0.00  0.00    +0.000 C 
ATOM     13  C   UNL     1       1.149   9.918  20.057  0.00  0.00    +0.000 A 
ATOM     14  C   UNL     1       0.827  10.821  21.083  0.00  0.00    +0.000 A 
ATOM     15  C   UNL     1       0.165  10.395  22.235  0.00  0.00    +0.000 A 
ATOM     16  C   UNL     1      -0.186   9.058  22.375  0.00  0.00    +0.000 A 
ATOM     17  C   UNL     1       0.138   8.148  21.369  0.00  0.00    +0.000 A 
ATOM     18  C   UNL     1       0.807   8.560  20.204  0.00  0.00    +0.000 A 
ENDBRANCH   6   9
BRANCH   1  20
ATOM     19  O   UNL     1       3.575   2.314  18.021  0.00  0.00    +0.000 OA
ATOM     20  C   UNL     1       3.914   3.229  18.775  0.00  0.00    +0.000 C 
ATOM     21  N   UNL     1       4.826   4.207  18.471  0.00  0.00    +0.000 N 
ATOM     22  C   UNL     1       5.419   4.319  17.247  0.00  0.00    +0.000 A 
ATOM     23  N   UNL     1       5.201   3.657  16.140  0.00  0.00    +0.000 NA
ATOM     24  C   UNL     1       6.092   4.083  15.175  0.00  0.00    +0.000 A 
ATOM     25  C   UNL     1       6.976   5.063  15.573  0.00  0.00    +0.000 A 
ATOM     26  S   UNL     1       6.639   5.515  17.190  0.00  0.00    +0.000 S 
ATOM     27  H   UNL     1       5.107   4.923  19.133  0.00  0.00    +0.000 HD
ENDBRANCH   1  20
TORSDOF 2
ENDMDL
MODEL 5
REMARK VINA RESULT:      -6.2      2.678      5.547
REMARK  Name = 
REMARK  2 active torsions:
REMARK  status: ('A' for Active; 'I' for Inactive)
REMARK    1  A    between atoms: C_2  and  C_9
REMARK    2  A    between atoms: C_14  and  C_16
REMARK                            x       y       z     vdW  Elec       q    Type
REMARK                         _______ _______ _______ _____ _____    ______ ____
ROOT
ATOM      1  C   UNL     1      -6.252  14.248  22.450  0.00  0.00    +0.000 C 
ATOM      2  C   UNL     1      -5.698  15.192  23.532  0.00  0.00    +0.000 C 
ATOM      3  C   UNL     1      -4.216  15.492  23.301  0.00  0.00    +0.000 C 
ATOM      4  C   UNL     1      -3.388  14.214  23.155  0.00  0.00    +0.000 C 
ATOM      5  N   UNL     1      -3.970  13.313  22.161  0.00  0.00    +0.000 N 
ATOM      6  C   UNL     1      -3.327  12.768  21.049  0.00  0.00    +0.000 C 
ATOM      7  O   UNL     1      -4.000  12.219  20.174  0.00  0.00    +0.000 OA
ATOM      8  C   UNL     1      -5.383  12.990  22.394  0.00  0.00    +0.000 C 
ENDROOT
BRANCH   6   9
ATOM      9  C   UNL     1      -1.785  12.845  20.939  0.00  0.00    +0.000 C 
ATOM     10  C   UNL     1      -1.339  13.317  19.547  0.00  0.00    +0.000 C 
ATOM     11  C   UNL     1      -1.292  12.212  18.500  0.00  0.00    +0.000 C 
ATOM     12  C   UNL     1      -0.491  10.992  18.945  0.00  0.00    +0.000 C 
ATOM     13  C   UNL     1      -0.579  10.654  20.411  0.00  0.00    +0.000 A 
ATOM     14  C   UNL     1       0.001   9.455  20.854  0.00  0.00    +0.000 A 
ATOM     15  C   UNL     1       0.037   9.131  22.210  0.00  0.00    +0.000 A 
ATOM     16  C   UNL     1      -0.505  10.006  23.144  0.00  0.00    +0.000 A 
ATOM     17  C   UNL     1      -1.095  11.195  22.717  0.00  0.00    +0.000 A 
ATOM     18  C   UNL     1      -1.142  11.535  21.353  0.00  0.00    +0.000 A 
ENDBRANCH   6   9
BRANCH   1  20
ATOM     19  O   UNL     1      -6.573  16.236  21.165  0.00  0.00    +0.000 OA
ATOM     20  C   UNL     1      -6.444  15.010  21.129  0.00  0.00    +0.000 C 
ATOM     21  N   UNL     1      -6.515  14.240  19.996  0.00  0.00    +0.000 N 
ATOM     22  C   UNL     1      -6.667  14.765  18.746  0.00  0.00    +0.000 A 
ATOM     23  N   UNL     1      -6.669  16.012  18.349  0.00  0.00    +0.000 NA
ATOM     24  C   UNL     1      -6.919  16.053  16.992  0.00  0.00    +0.000 A 
ATOM     25  C   UNL     1      -7.106  14.830  16.383  0.00  0.00    +0.000 A 
ATOM     26  S   UNL     1      -6.897  13.581  17.535  0.00  0.00    +0.000 S 
ATOM     27  H   UNL     1      -6.440  13.228  20.013  0.00  0.00    +0.000 HD
ENDBRANCH   1  20
TORSDOF 2
ENDMDL
MODEL 6
REMARK VINA RESULT:      -6.2      7.837     11.773
REMARK  Name = 
REMARK  2 active torsions:
REMARK  status: ('A' for Active; 'I' for Inactive)
REMARK    1  A    between atoms: C_2  and  C_9
REMARK    2  A    between atoms: C_14  and  C_16
REMARK                            x       y       z     vdW  Elec       q    Type
REMARK                         _______ _______ _______ _____ _____    ______ ____
ROOT
ATOM      1  C   UNL     1       1.094   4.220  19.957  0.00  0.00    +0.000 C 
ATOM      2  C   UNL     1       1.388   2.999  20.847  0.00  0.00    +0.000 C 
ATOM      3  C   UNL     1       2.887   2.698  20.899  0.00  0.00    +0.000 C 
ATOM      4  C   UNL     1       3.495   2.566  19.501  0.00  0.00    +0.000 C 
ATOM      5  N   UNL     1       3.152   3.714  18.662  0.00  0.00    +0.000 N 
ATOM      6  C   UNL     1       4.041   4.542  17.975  0.00  0.00    +0.000 C 
ATOM      7  O   UNL     1       3.629   5.604  17.502  0.00  0.00    +0.000 OA
ATOM      8  C   UNL     1       1.712   3.990  18.577  0.00  0.00    +0.000 C 
ENDROOT
BRANCH   6   9
ATOM      9  C   UNL     1       5.516   4.110  17.802  0.00  0.00    +0.000 C 
ATOM     10  C   UNL     1       6.424   4.758  18.858  0.00  0.00    +0.000 C 
ATOM     11  C   UNL     1       6.868   6.173  18.514  0.00  0.00    +0.000 C 
ATOM     12  C   UNL     1       7.480   6.291  17.121  0.00  0.00    +0.000 C 
ATOM     13  C   UNL     1       6.877   5.400  16.066  0.00  0.00    +0.000 A 
ATOM     14  C   UNL     1       7.284   5.576  14.734  0.00  0.00    +0.000 A 
ATOM     15  C   UNL     1       6.835   4.723  13.727  0.00  0.00    +0.000 A 
ATOM     16  C   UNL     1       5.974   3.677  14.039  0.00  0.00    +0.000 A 
ATOM     17  C   UNL     1       5.553   3.498  15.356  0.00  0.00    +0.000 A 
ATOM     18  C   UNL     1       5.994   4.351  16.383  0.00  0.00    +0.000 A 
ENDBRANCH   6   9
BRANCH   1  20
ATOM     19  O   UNL     1       2.600   5.570  21.228  0.00  0.00    +0.000 OA
ATOM     20  C   UNL     1       1.496   5.514  20.683  0.00  0.00    +0.000 C 
ATOM     21  N   UNL     1       0.547   6.505  20.713  0.00  0.00    +0.000 N 
ATOM     22  C   UNL     1       0.755   7.717  21.303  0.00  0.00    +0.000 A 
ATOM     23  N   UNL     1       1.839   8.224  21.833  0.00  0.00    +0.000 NA
ATOM     24  C   UNL     1       1.546   9.464  22.363  0.00  0.00    +0.000 A 
ATOM     25  C   UNL     1       0.237   9.876  22.227  0.00  0.00    +0.000 A 
ATOM     26  S   UNL     1      -0.644   8.699  21.348  0.00  0.00    +0.000 S 
ATOM     27  H   UNL     1      -0.366   6.406  20.281  0.00  0.00    +0.000 HD
ENDBRANCH   1  20
TORSDOF 2
ENDMDL
MODEL 7
REMARK VINA RESULT:      -6.1      2.248      3.130
REMARK  Name = 
REMARK  2 active torsions:
REMARK  status: ('A' for Active; 'I' for Inactive)
REMARK    1  A    between atoms: C_2  and  C_9
REMARK    2  A    between atoms: C_14  and  C_16
REMARK                            x       y       z     vdW  Elec       q    Type
REMARK                         _______ _______ _______ _____ _____    ______ ____
ROOT
ATOM      1  C   UNL     1       0.768  11.091  20.663  0.00  0.00    +0.000 C 
ATOM      2  C   UNL     1       0.833   9.958  21.704  0.00  0.00    +0.000 C 
ATOM      3  C   UNL     1      -0.533   9.716  22.347  0.00  0.00    +0.000 C 
ATOM      4  C   UNL     1      -1.136  11.002  22.915  0.00  0.00    +0.000 C 
ATOM      5  N   UNL     1      -1.133  12.076  21.922  0.00  0.00    +0.000 N 
ATOM      6  C   UNL     1      -2.230  12.829  21.501  0.00  0.00    +0.000 C 
ATOM      7  O   UNL     1      -2.126  13.533  20.495  0.00  0.00    +0.000 OA
ATOM      8  C   UNL     1       0.182  12.340  21.323  0.00  0.00    +0.000 C 
ENDROOT
BRANCH   6   9
ATOM      9  C   UNL     1      -3.548  12.783  22.310  0.00  0.00    +0.000 C 
ATOM     10  C   UNL     1      -4.766  12.573  21.398  0.00  0.00    +0.000 C 
ATOM     11  C   UNL     1      -5.286  13.850  20.750  0.00  0.00    +0.000 C 
ATOM     12  C   UNL     1      -5.540  14.974  21.750  0.00  0.00    +0.000 C 
ATOM     13  C   UNL     1      -4.584  15.040  22.913  0.00  0.00    +0.000 A 
ATOM     14  C   UNL     1      -4.663  16.143  23.779  0.00  0.00    +0.000 A 
ATOM     15  C   UNL     1      -3.872  16.216  24.925  0.00  0.00    +0.000 A 
ATOM     16  C   UNL     1      -2.992  15.183  25.224  0.00  0.00    +0.000 A 
ATOM     17  C   UNL     1      -2.894  14.087  24.367  0.00  0.00    +0.000 A 
ATOM     18  C   UNL     1      -3.682  14.000  23.206  0.00  0.00    +0.000 A 
ENDBRANCH   6   9
BRANCH   1  20
ATOM     19  O   UNL     1       0.698   9.873  18.609  0.00  0.00    +0.000 OA
ATOM     20  C   UNL     1       0.071  10.597  19.385  0.00  0.00    +0.000 C 
ATOM     21  N   UNL     1      -1.204  11.061  19.180  0.00  0.00    +0.000 N 
ATOM     22  C   UNL     1      -1.962  10.704  18.103  0.00  0.00    +0.000 A 
ATOM     23  N   UNL     1      -1.726   9.833  17.156  0.00  0.00    +0.000 NA
ATOM     24  C   UNL     1      -2.764   9.862  16.246  0.00  0.00    +0.000 A 
ATOM     25  C   UNL     1      -3.770  10.763  16.520  0.00  0.00    +0.000 A 
ATOM     26  S   UNL     1      -3.441  11.555  18.002  0.00  0.00    +0.000 S 
ATOM     27  H   UNL     1      -1.673  11.686  19.827  0.00  0.00    +0.000 HD
ENDBRANCH   1  20
TORSDOF 2
ENDMDL
MODEL 8
REMARK VINA RESULT:      -6.1      3.340      7.603
REMARK  Name = 
REMARK  2 active torsions:
REMARK  status: ('A' for Active; 'I' for Inactive)
REMARK    1  A    between atoms: C_2  and  C_9
REMARK    2  A    between atoms: C_14  and  C_16
REMARK                            x       y       z     vdW  Elec       q    Type
REMARK                         _______ _______ _______ _____ _____    ______ ____
ROOT
ATOM      1  C   UNL     1      -0.512  15.557  21.745  0.00  0.00    +0.000 C 
ATOM      2  C   UNL     1      -0.915  15.069  23.149  0.00  0.00    +0.000 C 
ATOM      3  C   UNL     1      -1.084  13.549  23.179  0.00  0.00    +0.000 C 
ATOM      4  C   UNL     1      -2.038  13.056  22.089  0.00  0.00    +0.000 C 
ATOM      5  N   UNL     1      -1.663  13.582  20.777  0.00  0.00    +0.000 N 
ATOM      6  C   UNL     1      -1.416  12.842  19.619  0.00  0.00    +0.000 C 
ATOM      7  O   UNL     1      -0.883  13.395  18.654  0.00  0.00    +0.000 OA
ATOM      8  C   UNL     1      -1.531  15.044  20.728  0.00  0.00    +0.000 C 
ENDROOT
BRANCH   6   9
ATOM      9  C   UNL     1      -1.829  11.352  19.557  0.00  0.00    +0.000 C 
ATOM     10  C   UNL     1      -0.659  10.424  19.919  0.00  0.00    +0.000 C 
ATOM     11  C   UNL     1       0.291  10.140  18.763  0.00  0.00    +0.000 C 
ATOM     12  C   UNL     1      -0.420   9.657  17.503  0.00  0.00    +0.000 C 
ATOM     13  C   UNL     1      -1.777  10.259  17.248  0.00  0.00    +0.000 A 
ATOM     14  C   UNL     1      -2.412   9.979  16.027  0.00  0.00    +0.000 A 
ATOM     15  C   UNL     1      -3.707  10.428  15.770  0.00  0.00    +0.000 A 
ATOM     16  C   UNL     1      -4.388  11.162  16.734  0.00  0.00    +0.000 A 
ATOM     17  C   UNL     1      -3.765  11.457  17.947  0.00  0.00    +0.000 A 
ATOM     18  C   UNL     1      -2.460  11.015  18.220  0.00  0.00    +0.000 A 
ENDBRANCH   6   9
BRANCH   1  20
ATOM     19  O   UNL     1       1.685  14.903  22.417  0.00  0.00    +0.000 OA
ATOM     20  C   UNL     1       0.963  15.222  21.470  0.00  0.00    +0.000 C 
ATOM     21  N   UNL     1       1.378  15.364  20.170  0.00  0.00    +0.000 N 
ATOM     22  C   UNL     1       2.651  15.090  19.761  0.00  0.00    +0.000 A 
ATOM     23  N   UNL     1       3.656  14.571  20.418  0.00  0.00    +0.000 NA
ATOM     24  C   UNL     1       4.766  14.543  19.598  0.00  0.00    +0.000 A 
ATOM     25  C   UNL     1       4.581  15.048  18.328  0.00  0.00    +0.000 A 
ATOM     26  S   UNL     1       2.945  15.514  18.131  0.00  0.00    +0.000 S 
ATOM     27  H   UNL     1       0.760  15.664  19.424  0.00  0.00    +0.000 HD
ENDBRANCH   1  20
TORSDOF 2
ENDMDL
MODEL 9
REMARK VINA RESULT:      -6.0      2.540      5.532
REMARK  Name = 
REMARK  2 active torsions:
REMARK  status: ('A' for Active; 'I' for Inactive)
REMARK    1  A    between atoms: C_2  and  C_9
REMARK    2  A    between atoms: C_14  and  C_16
REMARK                            x       y       z     vdW  Elec       q    Type
REMARK                         _______ _______ _______ _____ _____    ______ ____
ROOT
ATOM      1  C   UNL     1      -6.325  14.660  23.191  0.00  0.00    +0.000 C 
ATOM      2  C   UNL     1      -5.809  15.916  23.917  0.00  0.00    +0.000 C 
ATOM      3  C   UNL     1      -4.335  16.173  23.601  0.00  0.00    +0.000 C 
ATOM      4  C   UNL     1      -3.467  14.941  23.868  0.00  0.00    +0.000 C 
ATOM      5  N   UNL     1      -4.013  13.753  23.212  0.00  0.00    +0.000 N 
ATOM      6  C   UNL     1      -3.344  12.904  22.330  0.00  0.00    +0.000 C 
ATOM      7  O   UNL     1      -3.993  12.084  21.676  0.00  0.00    +0.000 OA
ATOM      8  C   UNL     1      -5.419  13.478  23.537  0.00  0.00    +0.000 C 
ENDROOT
BRANCH   6   9
ATOM      9  C   UNL     1      -1.805  12.990  22.200  0.00  0.00    +0.000 C 
ATOM     10  C   UNL     1      -1.383  13.970  21.095  0.00  0.00    +0.000 C 
ATOM     11  C   UNL     1      -1.401  13.374  19.694  0.00  0.00    +0.000 C 
ATOM     12  C   UNL     1      -0.628  12.064  19.586  0.00  0.00    +0.000 C 
ATOM     13  C   UNL     1      -0.685  11.171  20.798  0.00  0.00    +0.000 A 
ATOM     14  C   UNL     1      -0.131   9.883  20.703  0.00  0.00    +0.000 A 
ATOM     15  C   UNL     1      -0.068   9.045  21.816  0.00  0.00    +0.000 A 
ATOM     16  C   UNL     1      -0.555   9.484  23.041  0.00  0.00    +0.000 A 
ATOM     17  C   UNL     1      -1.118  10.756  23.146  0.00  0.00    +0.000 A 
ATOM     18  C   UNL     1      -1.193  11.612  22.034  0.00  0.00    +0.000 A 
ENDBRANCH   6   9
BRANCH   1  20
ATOM     19  O   UNL     1      -6.807  16.107  21.353  0.00  0.00    +0.000 OA
ATOM     20  C   UNL     1      -6.528  14.957  21.696  0.00  0.00    +0.000 C 
ATOM     21  N   UNL     1      -6.434  13.880  20.853  0.00  0.00    +0.000 N 
ATOM     22  C   UNL     1      -6.573  13.980  19.499  0.00  0.00    +0.000 A 
ATOM     23  N   UNL     1      -6.703  15.037  18.739  0.00  0.00    +0.000 NA
ATOM     24  C   UNL     1      -6.873  14.635  17.430  0.00  0.00    +0.000 A 
ATOM     25  C   UNL     1      -6.871  13.272  17.221  0.00  0.00    +0.000 A 
ATOM     26  S   UNL     1      -6.582  12.466  18.704  0.00  0.00    +0.000 S 
ATOM     27  H   UNL     1      -6.238  12.939  21.179  0.00  0.00    +0.000 HD
ENDBRANCH   1  20
TORSDOF 2
ENDMDL
