MODEL 1
REMARK VINA RESULT:      -8.9      0.000      0.000
REMARK  Name = 
REMARK  5 active torsions:
REMARK  status: ('A' for Active; 'I' for Inactive)
REMARK    1  A    between atoms: C_1  and  C_2
REMARK    2  A    between atoms: C_5  and  C_7
REMARK    3  A    between atoms: N_15  and  S_16
REMARK    4  A    between atoms: S_16  and  C_19
REMARK    5  A    between atoms: C_23  and  C_24
REMARK                            x       y       z     vdW  Elec       q    Type
REMARK                         _______ _______ _______ _____ _____    ______ ____
ROOT
ATOM      1  C   UNL     1       0.913   9.331  20.170  0.00  0.00    +0.000 A 
ATOM      2  C   UNL     1       0.797   8.502  21.271  0.00  0.00    +0.000 A 
ATOM      3  N   UNL     1       1.492   7.356  21.000  0.00  0.00    +0.000 N 
ATOM      4  C   UNL     1       2.040   7.410  19.736  0.00  0.00    +0.000 A 
ATOM      5  C   UNL     1       2.806   6.458  19.048  0.00  0.00    +0.000 A 
ATOM      6  N   UNL     1       3.244   6.790  17.796  0.00  0.00    +0.000 NA
ATOM      7  C   UNL     1       2.949   8.003  17.281  0.00  0.00    +0.000 A 
ATOM      8  C   UNL     1       2.195   8.974  17.921  0.00  0.00    +0.000 A 
ATOM      9  C   UNL     1       1.708   8.656  19.197  0.00  0.00    +0.000 A 
ATOM     10  H   UNL     1       1.621   6.562  21.620  0.00  0.00    +0.000 HD
ENDROOT
BRANCH   5  11
ATOM     11  C   UNL     1       3.154   5.131  19.592  0.00  0.00    +0.000 A 
ATOM     12  C   UNL     1       4.242   4.417  19.127  0.00  0.00    +0.000 A 
ATOM     13  C   UNL     1       4.455   3.190  19.703  0.00  0.00    +0.000 A 
ATOM     14  N   UNL     1       3.673   2.680  20.668  0.00  0.00    +0.000 NA
ATOM     15  C   UNL     1       2.655   3.440  21.071  0.00  0.00    +0.000 A 
ATOM     16  N   UNL     1       1.824   2.925  22.043  0.00  0.00    +0.000 N 
ATOM     17  N   UNL     1       2.345   4.637  20.567  0.00  0.00    +0.000 NA
ATOM     18  H   UNL     1       1.906   1.917  22.049  0.00  0.00    +0.000 HD
ATOM     19  H   UNL     1       0.896   3.308  21.957  0.00  0.00    +0.000 HD
ENDBRANCH   5  11
BRANCH   1  20
ATOM     20  S   UNL     1       0.243  10.918  20.007  0.00  0.00    +0.000 S 
ATOM     21  O   UNL     1      -0.375  11.171  21.290  0.00  0.00    +0.000 OA
ATOM     22  O   UNL     1      -0.528  10.859  18.789  0.00  0.00    +0.000 OA
BRANCH  20  31
ATOM     23  C   UNL     1       3.148  13.577  20.937  0.00  0.00    +0.000 C 
ATOM     24  C   UNL     1       1.755  12.934  21.004  0.00  0.00    +0.000 C 
ATOM     25  C   UNL     1       0.663  14.017  21.117  0.00  0.00    +0.000 C 
ATOM     26  N   UNL     1       0.576  14.816  19.886  0.00  0.00    +0.000 N 
ATOM     27  C   UNL     1       0.685  16.203  19.990  0.00  0.00    +0.000 C 
ATOM     28  O   UNL     1       0.978  16.760  21.047  0.00  0.00    +0.000 OA
ATOM     29  C   UNL     1       0.440  14.031  18.648  0.00  0.00    +0.000 C 
ATOM     30  C   UNL     1       1.432  12.862  18.542  0.00  0.00    +0.000 C 
ATOM     31  N   UNL     1       1.516  12.049  19.796  0.00  0.00    +0.000 NA
BRANCH  27  32
ATOM     32  C   UNL     1       0.497  17.068  18.793  0.00  0.00    +0.000 A 
ATOM     33  C   UNL     1      -0.731  17.658  18.476  0.00  0.00    +0.000 A 
ATOM     34  C   UNL     1      -0.890  18.348  17.275  0.00  0.00    +0.000 A 
ATOM     35  C   UNL     1       0.205  18.545  16.436  0.00  0.00    +0.000 A 
ATOM     36  C   UNL     1       1.460  18.057  16.800  0.00  0.00    +0.000 A 
ATOM     37  C   UNL     1       1.605  17.311  17.970  0.00  0.00    +0.000 A 
ENDBRANCH  27  32
ENDBRANCH  20  31
ENDBRANCH   1  20
TORSDOF 4
ENDMDL
MODEL 2
REMARK VINA RESULT:      -8.8      0.849      1.514
REMARK  Name = 
REMARK  5 active torsions:
REMARK  status: ('A' for Active; 'I' for Inactive)
REMARK    1  A    between atoms: C_1  and  C_2
REMARK    2  A    between atoms: C_5  and  C_7
REMARK    3  A    between atoms: N_15  and  S_16
REMARK    4  A    between atoms: S_16  and  C_19
REMARK    5  A    between atoms: C_23  and  C_24
REMARK                            x       y       z     vdW  Elec       q    Type
REMARK                         _______ _______ _______ _____ _____    ______ ____
ROOT
ATOM      1  C   UNL     1       0.878   9.700  20.794  0.00  0.00    +0.000 A 
ATOM      2  C   UNL     1       0.806   8.776  21.820  0.00  0.00    +0.000 A 
ATOM      3  N   UNL     1       1.349   7.608  21.361  0.00  0.00    +0.000 N 
ATOM      4  C   UNL     1       1.753   7.744  20.049  0.00  0.00    +0.000 A 
ATOM      5  C   UNL     1       2.338   6.805  19.187  0.00  0.00    +0.000 A 
ATOM      6  N   UNL     1       2.661   7.227  17.927  0.00  0.00    +0.000 NA
ATOM      7  C   UNL     1       2.431   8.508  17.567  0.00  0.00    +0.000 A 
ATOM      8  C   UNL     1       1.854   9.468  18.382  0.00  0.00    +0.000 A 
ATOM      9  C   UNL     1       1.486   9.064  19.673  0.00  0.00    +0.000 A 
ATOM     10  H   UNL     1       1.469   6.746  21.884  0.00  0.00    +0.000 HD
ENDROOT
BRANCH   5  11
ATOM     11  C   UNL     1       2.613   5.404  19.559  0.00  0.00    +0.000 A 
ATOM     12  C   UNL     1       1.673   4.628  20.210  0.00  0.00    +0.000 A 
ATOM     13  C   UNL     1       2.050   3.344  20.513  0.00  0.00    +0.000 A 
ATOM     14  N   UNL     1       3.255   2.835  20.209  0.00  0.00    +0.000 NA
ATOM     15  C   UNL     1       4.096   3.645  19.567  0.00  0.00    +0.000 A 
ATOM     16  N   UNL     1       5.348   3.151  19.266  0.00  0.00    +0.000 N 
ATOM     17  N   UNL     1       3.840   4.914  19.240  0.00  0.00    +0.000 NA
ATOM     18  H   UNL     1       5.557   2.380  19.886  0.00  0.00    +0.000 HD
ATOM     19  H   UNL     1       6.023   3.898  19.221  0.00  0.00    +0.000 HD
ENDBRANCH   5  11
BRANCH   1  20
ATOM     20  S   UNL     1       0.354  11.348  20.862  0.00  0.00    +0.000 S 
ATOM     21  O   UNL     1       0.096  11.575  22.268  0.00  0.00    +0.000 OA
ATOM     22  O   UNL     1      -0.693  11.433  19.873  0.00  0.00    +0.000 OA
BRANCH  20  31
ATOM     23  C   UNL     1       3.411  13.983  21.151  0.00  0.00    +0.000 C 
ATOM     24  C   UNL     1       2.006  13.424  21.416  0.00  0.00    +0.000 C 
ATOM     25  C   UNL     1       0.964  14.560  21.430  0.00  0.00    +0.000 C 
ATOM     26  N   UNL     1       0.811  15.159  20.096  0.00  0.00    +0.000 N 
ATOM     27  C   UNL     1       0.977  16.539  19.969  0.00  0.00    +0.000 C 
ATOM     28  O   UNL     1       1.368  17.241  20.900  0.00  0.00    +0.000 OA
ATOM     29  C   UNL     1       0.555  14.196  19.012  0.00  0.00    +0.000 C 
ATOM     30  C   UNL     1       1.495  12.981  19.027  0.00  0.00    +0.000 C 
ATOM     31  N   UNL     1       1.645  12.371  20.386  0.00  0.00    +0.000 NA
BRANCH  27  32
ATOM     32  C   UNL     1       0.728  17.212  18.664  0.00  0.00    +0.000 A 
ATOM     33  C   UNL     1       1.735  17.408  17.714  0.00  0.00    +0.000 A 
ATOM     34  C   UNL     1       1.484  18.161  16.568  0.00  0.00    +0.000 A 
ATOM     35  C   UNL     1       0.197  18.629  16.313  0.00  0.00    +0.000 A 
ATOM     36  C   UNL     1      -0.839  18.342  17.200  0.00  0.00    +0.000 A 
ATOM     37  C   UNL     1      -0.574  17.644  18.379  0.00  0.00    +0.000 A 
ENDBRANCH  27  32
ENDBRANCH  20  31
ENDBRANCH   1  20
TORSDOF 4
ENDMDL
MODEL 3
REMARK VINA RESULT:      -8.5      0.900      1.382
REMARK  Name = 
REMARK  5 active torsions:
REMARK  status: ('A' for Active; 'I' for Inactive)
REMARK    1  A    between atoms: C_1  and  C_2
REMARK    2  A    between atoms: C_5  and  C_7
REMARK    3  A    between atoms: N_15  and  S_16
REMARK    4  A    between atoms: S_16  and  C_19
REMARK    5  A    between atoms: C_23  and  C_24
REMARK                            x       y       z     vdW  Elec       q    Type
REMARK                         _______ _______ _______ _____ _____    ______ ____
ROOT
ATOM      1  C   UNL     1       0.873   9.196  20.581  0.00  0.00    +0.000 A 
ATOM      2  C   UNL     1       0.845   8.294  21.629  0.00  0.00    +0.000 A 
ATOM      3  N   UNL     1       1.539   7.184  21.238  0.00  0.00    +0.000 N 
ATOM      4  C   UNL     1       2.000   7.332  19.946  0.00  0.00    +0.000 A 
ATOM      5  C   UNL     1       2.733   6.443  19.147  0.00  0.00    +0.000 A 
ATOM      6  N   UNL     1       3.080   6.866  17.894  0.00  0.00    +0.000 NA
ATOM      7  C   UNL     1       2.731   8.104  17.482  0.00  0.00    +0.000 A 
ATOM      8  C   UNL     1       2.006   9.014  18.234  0.00  0.00    +0.000 A 
ATOM      9  C   UNL     1       1.612   8.603  19.515  0.00  0.00    +0.000 A 
ATOM     10  H   UNL     1       1.723   6.354  21.793  0.00  0.00    +0.000 HD
ENDROOT
BRANCH   5  11
ATOM     11  C   UNL     1       3.139   5.091  19.577  0.00  0.00    +0.000 A 
ATOM     12  C   UNL     1       4.251   4.464  19.049  0.00  0.00    +0.000 A 
ATOM     13  C   UNL     1       4.519   3.203  19.521  0.00  0.00    +0.000 A 
ATOM     14  N   UNL     1       3.766   2.582  20.443  0.00  0.00    +0.000 NA
ATOM     15  C   UNL     1       2.721   3.264  20.912  0.00  0.00    +0.000 A 
ATOM     16  N   UNL     1       1.919   2.636  21.842  0.00  0.00    +0.000 N 
ATOM     17  N   UNL     1       2.358   4.485  20.511  0.00  0.00    +0.000 NA
ATOM     18  H   UNL     1       2.042   1.636  21.763  0.00  0.00    +0.000 HD
ATOM     19  H   UNL     1       0.976   2.986  21.792  0.00  0.00    +0.000 HD
ENDBRANCH   5  11
BRANCH   1  20
ATOM     20  S   UNL     1       0.168  10.775  20.569  0.00  0.00    +0.000 S 
ATOM     21  O   UNL     1       0.678  11.396  21.772  0.00  0.00    +0.000 OA
ATOM     22  O   UNL     1      -1.242  10.538  20.374  0.00  0.00    +0.000 OA
BRANCH  20  31
ATOM     23  C   UNL     1       2.752  12.818  18.219  0.00  0.00    +0.000 C 
ATOM     24  C   UNL     1       2.025  12.448  19.519  0.00  0.00    +0.000 C 
ATOM     25  C   UNL     1       1.694  13.713  20.335  0.00  0.00    +0.000 C 
ATOM     26  N   UNL     1       0.694  14.543  19.649  0.00  0.00    +0.000 N 
ATOM     27  C   UNL     1       1.003  15.883  19.406  0.00  0.00    +0.000 C 
ATOM     28  O   UNL     1       2.119  16.349  19.628  0.00  0.00    +0.000 OA
ATOM     29  C   UNL     1      -0.524  13.828  19.234  0.00  0.00    +0.000 C 
ATOM     30  C   UNL     1      -0.248  12.497  18.519  0.00  0.00    +0.000 C 
ATOM     31  N   UNL     1       0.768  11.652  19.222  0.00  0.00    +0.000 NA
BRANCH  27  32
ATOM     32  C   UNL     1      -0.012  16.796  18.813  0.00  0.00    +0.000 A 
ATOM     33  C   UNL     1       0.160  17.405  17.566  0.00  0.00    +0.000 A 
ATOM     34  C   UNL     1      -0.755  18.355  17.114  0.00  0.00    +0.000 A 
ATOM     35  C   UNL     1      -1.904  18.620  17.856  0.00  0.00    +0.000 A 
ATOM     36  C   UNL     1      -2.140  17.933  19.046  0.00  0.00    +0.000 A 
ATOM     37  C   UNL     1      -1.193  17.030  19.531  0.00  0.00    +0.000 A 
ENDBRANCH  27  32
ENDBRANCH  20  31
ENDBRANCH   1  20
TORSDOF 4
ENDMDL
MODEL 4
REMARK VINA RESULT:      -8.2      0.708      1.087
REMARK  Name = 
REMARK  5 active torsions:
REMARK  status: ('A' for Active; 'I' for Inactive)
REMARK    1  A    between atoms: C_1  and  C_2
REMARK    2  A    between atoms: C_5  and  C_7
REMARK    3  A    between atoms: N_15  and  S_16
REMARK    4  A    between atoms: S_16  and  C_19
REMARK    5  A    between atoms: C_23  and  C_24
REMARK                            x       y       z     vdW  Elec       q    Type
REMARK                         _______ _______ _______ _____ _____    ______ ____
ROOT
ATOM      1  C   UNL     1       0.648   9.773  20.590  0.00  0.00    +0.000 A 
ATOM      2  C   UNL     1       0.622   8.892  21.655  0.00  0.00    +0.000 A 
ATOM      3  N   UNL     1       1.271   7.754  21.265  0.00  0.00    +0.000 N 
ATOM      4  C   UNL     1       1.701   7.865  19.959  0.00  0.00    +0.000 A 
ATOM      5  C   UNL     1       2.385   6.940  19.157  0.00  0.00    +0.000 A 
ATOM      6  N   UNL     1       2.710   7.330  17.888  0.00  0.00    +0.000 NA
ATOM      7  C   UNL     1       2.387   8.570  17.462  0.00  0.00    +0.000 A 
ATOM      8  C   UNL     1       1.710   9.515  18.216  0.00  0.00    +0.000 A 
ATOM      9  C   UNL     1       1.339   9.140  19.515  0.00  0.00    +0.000 A 
ATOM     10  H   UNL     1       1.445   6.929  21.831  0.00  0.00    +0.000 HD
ENDROOT
BRANCH   5  11
ATOM     11  C   UNL     1       2.761   5.584  19.602  0.00  0.00    +0.000 A 
ATOM     12  C   UNL     1       4.008   5.052  19.335  0.00  0.00    +0.000 A 
ATOM     13  C   UNL     1       4.235   3.777  19.790  0.00  0.00    +0.000 A 
ATOM     14  N   UNL     1       3.322   3.057  20.461  0.00  0.00    +0.000 NA
ATOM     15  C   UNL     1       2.150   3.651  20.690  0.00  0.00    +0.000 A 
ATOM     16  N   UNL     1       1.188   2.921  21.356  0.00  0.00    +0.000 N 
ATOM     17  N   UNL     1       1.817   4.876  20.278  0.00  0.00    +0.000 NA
ATOM     18  H   UNL     1       1.393   1.935  21.256  0.00  0.00    +0.000 HD
ATOM     19  H   UNL     1       0.265   3.225  21.091  0.00  0.00    +0.000 HD
ENDBRANCH   5  11
BRANCH   1  20
ATOM     20  S   UNL     1      -0.009  11.373  20.567  0.00  0.00    +0.000 S 
ATOM     21  O   UNL     1      -0.672  11.498  21.847  0.00  0.00    +0.000 OA
ATOM     22  O   UNL     1      -0.737  11.445  19.323  0.00  0.00    +0.000 OA
BRANCH  20  31
ATOM     23  C   UNL     1       2.534  14.277  21.781  0.00  0.00    +0.000 C 
ATOM     24  C   UNL     1       1.176  13.592  21.577  0.00  0.00    +0.000 C 
ATOM     25  C   UNL     1       0.096  14.628  21.206  0.00  0.00    +0.000 C 
ATOM     26  N   UNL     1       0.350  15.210  19.880  0.00  0.00    +0.000 N 
ATOM     27  C   UNL     1       0.428  16.599  19.773  0.00  0.00    +0.000 C 
ATOM     28  O   UNL     1       0.422  17.334  20.759  0.00  0.00    +0.000 OA
ATOM     29  C   UNL     1       0.557  14.228  18.803  0.00  0.00    +0.000 C 
ATOM     30  C   UNL     1       1.538  13.103  19.170  0.00  0.00    +0.000 C 
ATOM     31  N   UNL     1       1.274  12.511  20.519  0.00  0.00    +0.000 NA
BRANCH  27  32
ATOM     32  C   UNL     1       0.576  17.247  18.440  0.00  0.00    +0.000 A 
ATOM     33  C   UNL     1       1.752  17.163  17.688  0.00  0.00    +0.000 A 
ATOM     34  C   UNL     1       1.889  17.896  16.510  0.00  0.00    +0.000 A 
ATOM     35  C   UNL     1       0.811  18.630  16.021  0.00  0.00    +0.000 A 
ATOM     36  C   UNL     1      -0.404  18.629  16.706  0.00  0.00    +0.000 A 
ATOM     37  C   UNL     1      -0.520  17.947  17.919  0.00  0.00    +0.000 A 
ENDBRANCH  27  32
ENDBRANCH  20  31
ENDBRANCH   1  20
TORSDOF 4
ENDMDL
MODEL 5
REMARK VINA RESULT:      -7.9      1.596      2.125
REMARK  Name = 
REMARK  5 active torsions:
REMARK  status: ('A' for Active; 'I' for Inactive)
REMARK    1  A    between atoms: C_1  and  C_2
REMARK    2  A    between atoms: C_5  and  C_7
REMARK    3  A    between atoms: N_15  and  S_16
REMARK    4  A    between atoms: S_16  and  C_19
REMARK    5  A    between atoms: C_23  and  C_24
REMARK                            x       y       z     vdW  Elec       q    Type
REMARK                         _______ _______ _______ _____ _____    ______ ____
ROOT
ATOM      1  C   UNL     1       1.598   8.646  19.390  0.00  0.00    +0.000 A 
ATOM      2  C   UNL     1       1.250   8.000  20.562  0.00  0.00    +0.000 A 
ATOM      3  N   UNL     1       1.869   6.781  20.560  0.00  0.00    +0.000 N 
ATOM      4  C   UNL     1       2.596   6.609  19.400  0.00  0.00    +0.000 A 
ATOM      5  C   UNL     1       3.363   5.514  18.975  0.00  0.00    +0.000 A 
ATOM      6  N   UNL     1       4.004   5.627  17.773  0.00  0.00    +0.000 NA
ATOM      7  C   UNL     1       3.897   6.768  17.059  0.00  0.00    +0.000 A 
ATOM      8  C   UNL     1       3.151   7.873  17.436  0.00  0.00    +0.000 A 
ATOM      9  C   UNL     1       2.459   7.782  18.653  0.00  0.00    +0.000 A 
ATOM     10  H   UNL     1       1.836   6.080  21.294  0.00  0.00    +0.000 HD
ENDROOT
BRANCH   5  11
ATOM     11  C   UNL     1       3.507   4.262  19.741  0.00  0.00    +0.000 A 
ATOM     12  C   UNL     1       4.593   3.425  19.569  0.00  0.00    +0.000 A 
ATOM     13  C   UNL     1       4.608   2.284  20.331  0.00  0.00    +0.000 A 
ATOM     14  N   UNL     1       3.641   1.965  21.206  0.00  0.00    +0.000 NA
ATOM     15  C   UNL     1       2.637   2.834  21.323  0.00  0.00    +0.000 A 
ATOM     16  N   UNL     1       1.620   2.515  22.197  0.00  0.00    +0.000 N 
ATOM     17  N   UNL     1       2.513   3.962  20.620  0.00  0.00    +0.000 NA
ATOM     18  H   UNL     1       1.616   1.516  22.350  0.00  0.00    +0.000 HD
ATOM     19  H   UNL     1       0.753   2.936  21.903  0.00  0.00    +0.000 HD
ENDBRANCH   5  11
BRANCH   1  20
ATOM     20  S   UNL     1       1.106  10.234  18.912  0.00  0.00    +0.000 S 
ATOM     21  O   UNL     1      -0.210  10.037  18.342  0.00  0.00    +0.000 OA
ATOM     22  O   UNL     1       2.209  10.730  18.124  0.00  0.00    +0.000 OA
BRANCH  20  31
ATOM     23  C   UNL     1      -0.531  11.856  22.238  0.00  0.00    +0.000 C 
ATOM     24  C   UNL     1      -0.492  11.376  20.781  0.00  0.00    +0.000 C 
ATOM     25  C   UNL     1      -1.270  12.345  19.869  0.00  0.00    +0.000 C 
ATOM     26  N   UNL     1      -0.598  13.649  19.781  0.00  0.00    +0.000 N 
ATOM     27  C   UNL     1      -1.333  14.793  20.096  0.00  0.00    +0.000 C 
ATOM     28  O   UNL     1      -2.470  14.734  20.562  0.00  0.00    +0.000 OA
ATOM     29  C   UNL     1       0.828  13.587  19.422  0.00  0.00    +0.000 C 
ATOM     30  C   UNL     1       1.626  12.547  20.223  0.00  0.00    +0.000 C 
ATOM     31  N   UNL     1       0.940  11.219  20.306  0.00  0.00    +0.000 NA
BRANCH  27  32
ATOM     32  C   UNL     1      -0.736  16.146  19.922  0.00  0.00    +0.000 A 
ATOM     33  C   UNL     1      -0.607  16.757  18.670  0.00  0.00    +0.000 A 
ATOM     34  C   UNL     1       0.079  17.964  18.544  0.00  0.00    +0.000 A 
ATOM     35  C   UNL     1       0.543  18.621  19.682  0.00  0.00    +0.000 A 
ATOM     36  C   UNL     1       0.318  18.075  20.945  0.00  0.00    +0.000 A 
ATOM     37  C   UNL     1      -0.311  16.835  21.066  0.00  0.00    +0.000 A 
ENDBRANCH  27  32
ENDBRANCH  20  31
ENDBRANCH   1  20
TORSDOF 4
ENDMDL
MODEL 6
REMARK VINA RESULT:      -7.8      2.683      4.144
REMARK  Name = 
REMARK  5 active torsions:
REMARK  status: ('A' for Active; 'I' for Inactive)
REMARK    1  A    between atoms: C_1  and  C_2
REMARK    2  A    between atoms: C_5  and  C_7
REMARK    3  A    between atoms: N_15  and  S_16
REMARK    4  A    between atoms: S_16  and  C_19
REMARK    5  A    between atoms: C_23  and  C_24
REMARK                            x       y       z     vdW  Elec       q    Type
REMARK                         _______ _______ _______ _____ _____    ______ ____
ROOT
ATOM      1  C   UNL     1       1.053   9.451  20.073  0.00  0.00    +0.000 A 
ATOM      2  C   UNL     1       0.780   8.746  21.231  0.00  0.00    +0.000 A 
ATOM      3  N   UNL     1       1.331   7.502  21.097  0.00  0.00    +0.000 N 
ATOM      4  C   UNL     1       1.940   7.373  19.866  0.00  0.00    +0.000 A 
ATOM      5  C   UNL     1       2.607   6.274  19.305  0.00  0.00    +0.000 A 
ATOM      6  N   UNL     1       3.142   6.436  18.057  0.00  0.00    +0.000 NA
ATOM      7  C   UNL     1       3.031   7.625  17.427  0.00  0.00    +0.000 A 
ATOM      8  C   UNL     1       2.381   8.736  17.939  0.00  0.00    +0.000 A 
ATOM      9  C   UNL     1       1.798   8.598  19.207  0.00  0.00    +0.000 A 
ATOM     10  H   UNL     1       1.327   6.758  21.787  0.00  0.00    +0.000 HD
ENDROOT
BRANCH   5  11
ATOM     11  C   UNL     1       2.753   4.969  19.976  0.00  0.00    +0.000 A 
ATOM     12  C   UNL     1       1.899   4.572  20.987  0.00  0.00    +0.000 A 
ATOM     13  C   UNL     1       2.144   3.341  21.541  0.00  0.00    +0.000 A 
ATOM     14  N   UNL     1       3.147   2.538  21.149  0.00  0.00    +0.000 NA
ATOM     15  C   UNL     1       3.914   2.990  20.157  0.00  0.00    +0.000 A 
ATOM     16  N   UNL     1       4.965   2.193  19.754  0.00  0.00    +0.000 N 
ATOM     17  N   UNL     1       3.777   4.176  19.560  0.00  0.00    +0.000 NA
ATOM     18  H   UNL     1       5.203   1.556  20.503  0.00  0.00    +0.000 HD
ATOM     19  H   UNL     1       5.711   2.754  19.376  0.00  0.00    +0.000 HD
ENDBRANCH   5  11
BRANCH   1  20
ATOM     20  S   UNL     1       0.604  11.088  19.741  0.00  0.00    +0.000 S 
ATOM     21  O   UNL     1       0.425  11.118  18.305  0.00  0.00    +0.000 OA
ATOM     22  O   UNL     1       1.617  11.879  20.397  0.00  0.00    +0.000 OA
BRANCH  20  31
ATOM     23  C   UNL     1      -3.189  12.428  20.171  0.00  0.00    +0.000 C 
ATOM     24  C   UNL     1      -1.709  12.501  19.772  0.00  0.00    +0.000 C 
ATOM     25  C   UNL     1      -1.132  13.897  20.080  0.00  0.00    +0.000 C 
ATOM     26  N   UNL     1      -1.072  14.141  21.528  0.00  0.00    +0.000 N 
ATOM     27  C   UNL     1      -1.693  15.285  22.030  0.00  0.00    +0.000 C 
ATOM     28  O   UNL     1      -2.388  16.016  21.327  0.00  0.00    +0.000 OA
ATOM     29  C   UNL     1      -0.398  13.087  22.305  0.00  0.00    +0.000 C 
ATOM     30  C   UNL     1      -0.856  11.665  21.949  0.00  0.00    +0.000 C 
ATOM     31  N   UNL     1      -0.911  11.419  20.473  0.00  0.00    +0.000 NA
BRANCH  27  32
ATOM     32  C   UNL     1      -1.572  15.639  23.472  0.00  0.00    +0.000 A 
ATOM     33  C   UNL     1      -0.551  16.457  23.964  0.00  0.00    +0.000 A 
ATOM     34  C   UNL     1      -0.403  16.649  25.337  0.00  0.00    +0.000 A 
ATOM     35  C   UNL     1      -1.340  16.113  26.218  0.00  0.00    +0.000 A 
ATOM     36  C   UNL     1      -2.427  15.390  25.727  0.00  0.00    +0.000 A 
ATOM     37  C   UNL     1      -2.539  15.143  24.358  0.00  0.00    +0.000 A 
ENDBRANCH  27  32
ENDBRANCH  20  31
ENDBRANCH   1  20
TORSDOF 4
ENDMDL
MODEL 7
REMARK VINA RESULT:      -7.8      3.815      5.118
REMARK  Name = 
REMARK  5 active torsions:
REMARK  status: ('A' for Active; 'I' for Inactive)
REMARK    1  A    between atoms: C_1  and  C_2
REMARK    2  A    between atoms: C_5  and  C_7
REMARK    3  A    between atoms: N_15  and  S_16
REMARK    4  A    between atoms: S_16  and  C_19
REMARK    5  A    between atoms: C_23  and  C_24
REMARK                            x       y       z     vdW  Elec       q    Type
REMARK                         _______ _______ _______ _____ _____    ______ ____
ROOT
ATOM      1  C   UNL     1       1.594   8.995  19.341  0.00  0.00    +0.000 A 
ATOM      2  C   UNL     1       2.222   9.307  18.149  0.00  0.00    +0.000 A 
ATOM      3  N   UNL     1       2.940   8.210  17.762  0.00  0.00    +0.000 N 
ATOM      4  C   UNL     1       2.813   7.197  18.689  0.00  0.00    +0.000 A 
ATOM      5  C   UNL     1       3.387   5.917  18.705  0.00  0.00    +0.000 A 
ATOM      6  N   UNL     1       3.065   5.098  19.751  0.00  0.00    +0.000 NA
ATOM      7  C   UNL     1       2.210   5.529  20.704  0.00  0.00    +0.000 A 
ATOM      8  C   UNL     1       1.622   6.783  20.732  0.00  0.00    +0.000 A 
ATOM      9  C   UNL     1       1.950   7.659  19.686  0.00  0.00    +0.000 A 
ATOM     10  H   UNL     1       3.491   8.112  16.915  0.00  0.00    +0.000 HD
ENDROOT
BRANCH   5  11
ATOM     11  C   UNL     1       4.313   5.416  17.671  0.00  0.00    +0.000 A 
ATOM     12  C   UNL     1       4.062   4.250  16.974  0.00  0.00    +0.000 A 
ATOM     13  C   UNL     1       5.003   3.882  16.046  0.00  0.00    +0.000 A 
ATOM     14  N   UNL     1       6.117   4.591  15.799  0.00  0.00    +0.000 NA
ATOM     15  C   UNL     1       6.274   5.713  16.503  0.00  0.00    +0.000 A 
ATOM     16  N   UNL     1       7.421   6.444  16.284  0.00  0.00    +0.000 N 
ATOM     17  N   UNL     1       5.433   6.153  17.441  0.00  0.00    +0.000 NA
ATOM     18  H   UNL     1       8.127   5.840  15.885  0.00  0.00    +0.000 HD
ATOM     19  H   UNL     1       7.676   6.961  17.110  0.00  0.00    +0.000 HD
ENDBRANCH   5  11
BRANCH   1  20
ATOM     20  S   UNL     1       0.537  10.027  20.243  0.00  0.00    +0.000 S 
ATOM     21  O   UNL     1       1.415  10.698  21.177  0.00  0.00    +0.000 OA
ATOM     22  O   UNL     1      -0.523   9.155  20.687  0.00  0.00    +0.000 OA
BRANCH  20  31
ATOM     23  C   UNL     1      -0.399  13.662  18.733  0.00  0.00    +0.000 C 
ATOM     24  C   UNL     1      -0.245  12.587  19.817  0.00  0.00    +0.000 C 
ATOM     25  C   UNL     1      -1.424  12.643  20.809  0.00  0.00    +0.000 C 
ATOM     26  N   UNL     1      -2.684  12.250  20.161  0.00  0.00    +0.000 N 
ATOM     27  C   UNL     1      -3.765  13.129  20.231  0.00  0.00    +0.000 C 
ATOM     28  O   UNL     1      -3.660  14.262  20.698  0.00  0.00    +0.000 OA
ATOM     29  C   UNL     1      -2.635  10.965  19.443  0.00  0.00    +0.000 C 
ATOM     30  C   UNL     1      -1.409  10.811  18.529  0.00  0.00    +0.000 C 
ATOM     31  N   UNL     1      -0.128  11.209  19.194  0.00  0.00    +0.000 NA
BRANCH  27  32
ATOM     32  C   UNL     1      -5.095  12.736  19.687  0.00  0.00    +0.000 A 
ATOM     33  C   UNL     1      -6.116  12.224  20.492  0.00  0.00    +0.000 A 
ATOM     34  C   UNL     1      -7.293  11.746  19.917  0.00  0.00    +0.000 A 
ATOM     35  C   UNL     1      -7.499  11.879  18.545  0.00  0.00    +0.000 A 
ATOM     36  C   UNL     1      -6.532  12.493  17.750  0.00  0.00    +0.000 A 
ATOM     37  C   UNL     1      -5.327  12.912  18.316  0.00  0.00    +0.000 A 
ENDBRANCH  27  32
ENDBRANCH  20  31
ENDBRANCH   1  20
TORSDOF 4
ENDMDL
MODEL 8
REMARK VINA RESULT:      -7.8      2.806      3.985
REMARK  Name = 
REMARK  5 active torsions:
REMARK  status: ('A' for Active; 'I' for Inactive)
REMARK    1  A    between atoms: C_1  and  C_2
REMARK    2  A    between atoms: C_5  and  C_7
REMARK    3  A    between atoms: N_15  and  S_16
REMARK    4  A    between atoms: S_16  and  C_19
REMARK    5  A    between atoms: C_23  and  C_24
REMARK                            x       y       z     vdW  Elec       q    Type
REMARK                         _______ _______ _______ _____ _____    ______ ____
ROOT
ATOM      1  C   UNL     1       1.142   9.589  20.414  0.00  0.00    +0.000 A 
ATOM      2  C   UNL     1       0.942   8.846  21.563  0.00  0.00    +0.000 A 
ATOM      3  N   UNL     1       1.412   7.585  21.326  0.00  0.00    +0.000 N 
ATOM      4  C   UNL     1       1.893   7.482  20.037  0.00  0.00    +0.000 A 
ATOM      5  C   UNL     1       2.444   6.379  19.370  0.00  0.00    +0.000 A 
ATOM      6  N   UNL     1       2.866   6.570  18.084  0.00  0.00    +0.000 NA
ATOM      7  C   UNL     1       2.760   7.791  17.516  0.00  0.00    +0.000 A 
ATOM      8  C   UNL     1       2.221   8.908  18.134  0.00  0.00    +0.000 A 
ATOM      9  C   UNL     1       1.755   8.741  19.446  0.00  0.00    +0.000 A 
ATOM     10  H   UNL     1       1.433   6.810  21.982  0.00  0.00    +0.000 HD
ENDROOT
BRANCH   5  11
ATOM     11  C   UNL     1       2.584   5.038  19.970  0.00  0.00    +0.000 A 
ATOM     12  C   UNL     1       1.657   4.543  20.867  0.00  0.00    +0.000 A 
ATOM     13  C   UNL     1       1.902   3.289  21.366  0.00  0.00    +0.000 A 
ATOM     14  N   UNL     1       2.972   2.552  21.023  0.00  0.00    +0.000 NA
ATOM     15  C   UNL     1       3.809   3.097  20.140  0.00  0.00    +0.000 A 
ATOM     16  N   UNL     1       4.926   2.369  19.792  0.00  0.00    +0.000 N 
ATOM     17  N   UNL     1       3.677   4.314  19.607  0.00  0.00    +0.000 NA
ATOM     18  H   UNL     1       5.121   1.694  20.519  0.00  0.00    +0.000 HD
ATOM     19  H   UNL     1       5.680   2.981  19.523  0.00  0.00    +0.000 HD
ENDBRANCH   5  11
BRANCH   1  20
ATOM     20  S   UNL     1       0.751  11.260  20.194  0.00  0.00    +0.000 S 
ATOM     21  O   UNL     1       0.908  11.472  18.771  0.00  0.00    +0.000 OA
ATOM     22  O   UNL     1       1.569  11.951  21.160  0.00  0.00    +0.000 OA
BRANCH  20  31
ATOM     23  C   UNL     1      -3.147  12.255  19.757  0.00  0.00    +0.000 C 
ATOM     24  C   UNL     1      -1.628  12.433  19.631  0.00  0.00    +0.000 C 
ATOM     25  C   UNL     1      -1.231  13.903  19.873  0.00  0.00    +0.000 C 
ATOM     26  N   UNL     1      -1.472  14.297  21.268  0.00  0.00    +0.000 N 
ATOM     27  C   UNL     1      -2.266  15.420  21.509  0.00  0.00    +0.000 C 
ATOM     28  O   UNL     1      -2.866  16.004  20.608  0.00  0.00    +0.000 OA
ATOM     29  C   UNL     1      -0.882  13.400  22.275  0.00  0.00    +0.000 C 
ATOM     30  C   UNL     1      -1.150  11.910  22.012  0.00  0.00    +0.000 C 
ATOM     31  N   UNL     1      -0.899  11.512  20.591  0.00  0.00    +0.000 NA
BRANCH  27  32
ATOM     32  C   UNL     1      -2.455  15.928  22.896  0.00  0.00    +0.000 A 
ATOM     33  C   UNL     1      -3.561  15.584  23.679  0.00  0.00    +0.000 A 
ATOM     34  C   UNL     1      -3.762  16.190  24.918  0.00  0.00    +0.000 A 
ATOM     35  C   UNL     1      -2.800  17.060  25.429  0.00  0.00    +0.000 A 
ATOM     36  C   UNL     1      -1.638  17.320  24.704  0.00  0.00    +0.000 A 
ATOM     37  C   UNL     1      -1.469  16.765  23.435  0.00  0.00    +0.000 A 
ENDBRANCH  27  32
ENDBRANCH  20  31
ENDBRANCH   1  20
TORSDOF 4
ENDMDL
MODEL 9
REMARK VINA RESULT:      -7.8      2.769      3.984
REMARK  Name = 
REMARK  5 active torsions:
REMARK  status: ('A' for Active; 'I' for Inactive)
REMARK    1  A    between atoms: C_1  and  C_2
REMARK    2  A    between atoms: C_5  and  C_7
REMARK    3  A    between atoms: N_15  and  S_16
REMARK    4  A    between atoms: S_16  and  C_19
REMARK    5  A    between atoms: C_23  and  C_24
REMARK                            x       y       z     vdW  Elec       q    Type
REMARK                         _______ _______ _______ _____ _____    ______ ____
ROOT
ATOM      1  C   UNL     1       1.249   9.129  19.932  0.00  0.00    +0.000 A 
ATOM      2  C   UNL     1       0.975   8.383  21.064  0.00  0.00    +0.000 A 
ATOM      3  N   UNL     1       1.580   7.166  20.912  0.00  0.00    +0.000 N 
ATOM      4  C   UNL     1       2.223   7.094  19.694  0.00  0.00    +0.000 A 
ATOM      5  C   UNL     1       2.948   6.038  19.123  0.00  0.00    +0.000 A 
ATOM      6  N   UNL     1       3.506   6.253  17.894  0.00  0.00    +0.000 NA
ATOM      7  C   UNL     1       3.363   7.453  17.291  0.00  0.00    +0.000 A 
ATOM      8  C   UNL     1       2.656   8.523  17.815  0.00  0.00    +0.000 A 
ATOM      9  C   UNL     1       2.048   8.329  19.064  0.00  0.00    +0.000 A 
ATOM     10  H   UNL     1       1.589   6.404  21.583  0.00  0.00    +0.000 HD
ENDROOT
BRANCH   5  11
ATOM     11  C   UNL     1       3.130   4.722  19.764  0.00  0.00    +0.000 A 
ATOM     12  C   UNL     1       4.192   3.897  19.442  0.00  0.00    +0.000 A 
ATOM     13  C   UNL     1       4.247   2.693  20.098  0.00  0.00    +0.000 A 
ATOM     14  N   UNL     1       3.340   2.304  21.009  0.00  0.00    +0.000 NA
ATOM     15  C   UNL     1       2.357   3.166  21.274  0.00  0.00    +0.000 A 
ATOM     16  N   UNL     1       1.402   2.777  22.188  0.00  0.00    +0.000 N 
ATOM     17  N   UNL     1       2.198   4.352  20.682  0.00  0.00    +0.000 NA
ATOM     18  H   UNL     1       1.397   1.768  22.252  0.00  0.00    +0.000 HD
ATOM     19  H   UNL     1       0.521   3.227  21.994  0.00  0.00    +0.000 HD
ENDBRANCH   5  11
BRANCH   1  20
ATOM     20  S   UNL     1       0.742  10.755  19.630  0.00  0.00    +0.000 S 
ATOM     21  O   UNL     1       0.614  10.820  18.190  0.00  0.00    +0.000 OA
ATOM     22  O   UNL     1       1.695  11.568  20.347  0.00  0.00    +0.000 OA
BRANCH  20  31
ATOM     23  C   UNL     1      -3.124  11.906  19.948  0.00  0.00    +0.000 C 
ATOM     24  C   UNL     1      -1.636  12.056  19.603  0.00  0.00    +0.000 C 
ATOM     25  C   UNL     1      -1.137  13.471  19.956  0.00  0.00    +0.000 C 
ATOM     26  N   UNL     1      -1.140  13.690  21.410  0.00  0.00    +0.000 N 
ATOM     27  C   UNL     1      -1.832  14.794  21.910  0.00  0.00    +0.000 C 
ATOM     28  O   UNL     1      -2.537  15.505  21.195  0.00  0.00    +0.000 OA
ATOM     29  C   UNL     1      -0.444  12.654  22.192  0.00  0.00    +0.000 C 
ATOM     30  C   UNL     1      -0.820  11.219  21.794  0.00  0.00    +0.000 C 
ATOM     31  N   UNL     1      -0.812  10.999  20.314  0.00  0.00    +0.000 NA
BRANCH  27  32
ATOM     32  C   UNL     1      -1.779  15.124  23.361  0.00  0.00    +0.000 A 
ATOM     33  C   UNL     1      -2.695  14.611  24.284  0.00  0.00    +0.000 A 
ATOM     34  C   UNL     1      -2.686  15.054  25.606  0.00  0.00    +0.000 A 
ATOM     35  C   UNL     1      -1.692  15.931  26.037  0.00  0.00    +0.000 A 
ATOM     36  C   UNL     1      -0.706  16.360  25.149  0.00  0.00    +0.000 A 
ATOM     37  C   UNL     1      -0.753  15.967  23.811  0.00  0.00    +0.000 A 
ENDBRANCH  27  32
ENDBRANCH  20  31
ENDBRANCH   1  20
TORSDOF 4
ENDMDL
