MODEL 1
REMARK VINA RESULT:      -7.8      0.000      0.000
REMARK  Name = 
REMARK  9 active torsions:
REMARK  status: ('A' for Active; 'I' for Inactive)
REMARK    1  A    between atoms: C_2  and  C_3
REMARK    2  A    between atoms: C_3  and  C_4
REMARK    3  A    between atoms: C_4  and  C_5
REMARK    4  A    between atoms: C_5  and  C_6
REMARK    5  A    between atoms: C_6  and  C_7
REMARK    6  A    between atoms: C_7  and  N_8
REMARK    7  A    between atoms: N_19  and  C_20
REMARK    8  A    between atoms: C_20  and  C_21
REMARK    9  A    between atoms: C_21  and  C_22
REMARK                            x       y       z     vdW  Elec       q    Type
REMARK                         _______ _______ _______ _____ _____    ______ ____
ROOT
ATOM      1  O   UNL     1       3.631   5.994  20.013  0.00  0.00    +0.000 OA
ATOM      2  C   UNL     1       2.423   6.094  19.829  0.00  0.00    +0.000 C 
ATOM      3  N   UNL     1       1.872   7.014  18.968  0.00  0.00    +0.000 N 
ATOM      4  H   UNL     1       0.872   7.014  18.797  0.00  0.00    +0.000 HD
ENDROOT
BRANCH   2   5
ATOM      5  C   UNL     1       1.402   5.177  20.479  0.00  0.00    +0.000 C 
BRANCH   5   6
ATOM      6  C   UNL     1       2.081   4.145  21.376  0.00  0.00    +0.000 C 
BRANCH   6   7
ATOM      7  C   UNL     1       1.554   2.731  21.127  0.00  0.00    +0.000 C 
BRANCH   7   8
ATOM      8  C   UNL     1       1.270   2.515  19.640  0.00  0.00    +0.000 C 
BRANCH   8   9
ATOM      9  C   UNL     1       2.406   1.760  18.949  0.00  0.00    +0.000 C 
BRANCH   9  10
ATOM     10  N   UNL     1       3.394   2.677  18.417  0.00  0.00    +0.000 N 
ATOM     11  C   UNL     1       3.189   3.457  17.311  0.00  0.00    +0.000 C 
ATOM     12  O   UNL     1       2.236   3.488  16.556  0.00  0.00    +0.000 OA
ATOM     13  C   UNL     1       4.368   4.310  17.180  0.00  0.00    +0.000 A 
ATOM     14  C   UNL     1       4.663   5.291  16.255  0.00  0.00    +0.000 A 
ATOM     15  C   UNL     1       5.881   5.961  16.402  0.00  0.00    +0.000 A 
ATOM     16  C   UNL     1       6.763   5.635  17.454  0.00  0.00    +0.000 A 
ATOM     17  C   UNL     1       6.439   4.641  18.381  0.00  0.00    +0.000 A 
ATOM     18  C   UNL     1       5.230   3.998  18.219  0.00  0.00    +0.000 A 
ATOM     19  C   UNL     1       4.589   2.958  19.024  0.00  0.00    +0.000 C 
ATOM     20  O   UNL     1       5.064   2.488  20.040  0.00  0.00    +0.000 OA
ENDBRANCH   9  10
ENDBRANCH   8   9
ENDBRANCH   7   8
ENDBRANCH   6   7
ENDBRANCH   5   6
ENDBRANCH   2   5
BRANCH   3  21
ATOM     21  C   UNL     1       2.671   7.970  18.219  0.00  0.00    +0.000 C 
BRANCH  21  22
ATOM     22  C   UNL     1       1.849   9.119  17.635  0.00  0.00    +0.000 C 
BRANCH  22  23
ATOM     23  C   UNL     1       1.028   9.798  18.680  0.00  0.00    +0.000 A 
ATOM     24  N   UNL     1       1.120   9.637  19.985  0.00  0.00    +0.000 NA
ATOM     25  C   UNL     1       0.161  10.458  20.528  0.00  0.00    +0.000 A 
ATOM     26  C   UNL     1      -0.177  10.681  21.871  0.00  0.00    +0.000 A 
ATOM     27  C   UNL     1      -1.206  11.585  22.163  0.00  0.00    +0.000 A 
ATOM     28  C   UNL     1      -1.883  12.252  21.139  0.00  0.00    +0.000 A 
ATOM     29  C   UNL     1      -1.562  12.041  19.793  0.00  0.00    +0.000 A 
ATOM     30  C   UNL     1      -0.534  11.132  19.532  0.00  0.00    +0.000 A 
ATOM     31  N   UNL     1       0.030  10.688  18.364  0.00  0.00    +0.000 N 
ATOM     32  H   UNL     1      -0.241  10.961  17.432  0.00  0.00    +0.000 HD
ENDBRANCH  22  23
ENDBRANCH  21  22
ENDBRANCH   3  21
TORSDOF 9
ENDMDL
MODEL 2
REMARK VINA RESULT:      -7.8      2.379      8.935
REMARK  Name = 
REMARK  9 active torsions:
REMARK  status: ('A' for Active; 'I' for Inactive)
REMARK    1  A    between atoms: C_2  and  C_3
REMARK    2  A    between atoms: C_3  and  C_4
REMARK    3  A    between atoms: C_4  and  C_5
REMARK    4  A    between atoms: C_5  and  C_6
REMARK    5  A    between atoms: C_6  and  C_7
REMARK    6  A    between atoms: C_7  and  N_8
REMARK    7  A    between atoms: N_19  and  C_20
REMARK    8  A    between atoms: C_20  and  C_21
REMARK    9  A    between atoms: C_21  and  C_22
REMARK                            x       y       z     vdW  Elec       q    Type
REMARK                         _______ _______ _______ _____ _____    ______ ____
ROOT
ATOM      1  O   UNL     1       2.183   4.944  20.518  0.00  0.00    +0.000 OA
ATOM      2  C   UNL     1       2.250   5.620  19.497  0.00  0.00    +0.000 C 
ATOM      3  N   UNL     1       2.300   5.070  18.238  0.00  0.00    +0.000 N 
ATOM      4  H   UNL     1       2.286   5.670  17.420  0.00  0.00    +0.000 HD
ENDROOT
BRANCH   2   5
ATOM      5  C   UNL     1       2.222   7.139  19.500  0.00  0.00    +0.000 C 
BRANCH   5   6
ATOM      6  C   UNL     1       2.573   7.699  18.124  0.00  0.00    +0.000 C 
BRANCH   6   7
ATOM      7  C   UNL     1       1.691   8.891  17.746  0.00  0.00    +0.000 C 
BRANCH   7   8
ATOM      8  C   UNL     1       0.888   9.372  18.955  0.00  0.00    +0.000 C 
BRANCH   8   9
ATOM      9  C   UNL     1       1.086  10.866  19.209  0.00  0.00    +0.000 C 
BRANCH   9  10
ATOM     10  N   UNL     1       0.017  11.402  20.029  0.00  0.00    +0.000 N 
ATOM     11  C   UNL     1      -1.089  12.029  19.521  0.00  0.00    +0.000 C 
ATOM     12  O   UNL     1      -1.352  12.313  18.367  0.00  0.00    +0.000 OA
ATOM     13  C   UNL     1      -1.964  12.310  20.656  0.00  0.00    +0.000 A 
ATOM     14  C   UNL     1      -3.210  12.903  20.698  0.00  0.00    +0.000 A 
ATOM     15  C   UNL     1      -3.820  13.018  21.951  0.00  0.00    +0.000 A 
ATOM     16  C   UNL     1      -3.177  12.545  23.114  0.00  0.00    +0.000 A 
ATOM     17  C   UNL     1      -1.918  11.944  23.045  0.00  0.00    +0.000 A 
ATOM     18  C   UNL     1      -1.338  11.837  21.798  0.00  0.00    +0.000 A 
ATOM     19  C   UNL     1      -0.069  11.236  21.385  0.00  0.00    +0.000 C 
ATOM     20  O   UNL     1       0.707  10.688  22.143  0.00  0.00    +0.000 OA
ENDBRANCH   9  10
ENDBRANCH   8   9
ENDBRANCH   7   8
ENDBRANCH   6   7
ENDBRANCH   5   6
ENDBRANCH   2   5
BRANCH   3  21
ATOM     21  C   UNL     1       2.306   3.634  18.005  0.00  0.00    +0.000 C 
BRANCH  21  22
ATOM     22  C   UNL     1       3.700   3.075  17.716  0.00  0.00    +0.000 C 
BRANCH  22  23
ATOM     23  C   UNL     1       4.749   4.133  17.803  0.00  0.00    +0.000 A 
ATOM     24  N   UNL     1       4.893   5.171  17.004  0.00  0.00    +0.000 NA
ATOM     25  C   UNL     1       5.993   5.849  17.472  0.00  0.00    +0.000 A 
ATOM     26  C   UNL     1       6.592   7.025  16.999  0.00  0.00    +0.000 A 
ATOM     27  C   UNL     1       7.719   7.519  17.668  0.00  0.00    +0.000 A 
ATOM     28  C   UNL     1       8.237   6.856  18.783  0.00  0.00    +0.000 A 
ATOM     29  C   UNL     1       7.654   5.679  19.267  0.00  0.00    +0.000 A 
ATOM     30  C   UNL     1       6.533   5.208  18.580  0.00  0.00    +0.000 A 
ATOM     31  N   UNL     1       5.729   4.113  18.765  0.00  0.00    +0.000 N 
ATOM     32  H   UNL     1       5.839   3.410  19.480  0.00  0.00    +0.000 HD
ENDBRANCH  22  23
ENDBRANCH  21  22
ENDBRANCH   3  21
TORSDOF 9
ENDMDL
MODEL 3
REMARK VINA RESULT:      -7.8      6.803      9.899
REMARK  Name = 
REMARK  9 active torsions:
REMARK  status: ('A' for Active; 'I' for Inactive)
REMARK    1  A    between atoms: C_2  and  C_3
REMARK    2  A    between atoms: C_3  and  C_4
REMARK    3  A    between atoms: C_4  and  C_5
REMARK    4  A    between atoms: C_5  and  C_6
REMARK    5  A    between atoms: C_6  and  C_7
REMARK    6  A    between atoms: C_7  and  N_8
REMARK    7  A    between atoms: N_19  and  C_20
REMARK    8  A    between atoms: C_20  and  C_21
REMARK    9  A    between atoms: C_21  and  C_22
REMARK                            x       y       z     vdW  Elec       q    Type
REMARK                         _______ _______ _______ _____ _____    ______ ____
ROOT
ATOM      1  O   UNL     1       5.419   7.219  17.614  0.00  0.00    +0.000 OA
ATOM      2  C   UNL     1       6.524   6.862  17.221  0.00  0.00    +0.000 C 
ATOM      3  N   UNL     1       6.697   5.937  16.219  0.00  0.00    +0.000 N 
ATOM      4  H   UNL     1       7.629   5.723  15.880  0.00  0.00    +0.000 HD
ENDROOT
BRANCH   2   5
ATOM      5  C   UNL     1       7.824   7.442  17.748  0.00  0.00    +0.000 C 
BRANCH   5   6
ATOM      6  C   UNL     1       7.805   8.968  17.703  0.00  0.00    +0.000 C 
BRANCH   6   7
ATOM      7  C   UNL     1       8.855   9.584  18.629  0.00  0.00    +0.000 C 
BRANCH   7   8
ATOM      8  C   UNL     1       9.462  10.838  17.998  0.00  0.00    +0.000 C 
BRANCH   8   9
ATOM      9  C   UNL     1      10.420  11.548  18.955  0.00  0.00    +0.000 C 
BRANCH   9  10
ATOM     10  N   UNL     1      10.447  12.975  18.703  0.00  0.00    +0.000 N 
ATOM     11  C   UNL     1      11.283  13.570  17.797  0.00  0.00    +0.000 C 
ATOM     12  O   UNL     1      12.162  13.075  17.119  0.00  0.00    +0.000 OA
ATOM     13  C   UNL     1      10.917  14.984  17.764  0.00  0.00    +0.000 A 
ATOM     14  C   UNL     1      11.426  16.021  17.008  0.00  0.00    +0.000 A 
ATOM     15  C   UNL     1      10.850  17.282  17.184  0.00  0.00    +0.000 A 
ATOM     16  C   UNL     1       9.796  17.473  18.102  0.00  0.00    +0.000 A 
ATOM     17  C   UNL     1       9.295  16.407  18.853  0.00  0.00    +0.000 A 
ATOM     18  C   UNL     1       9.875  15.171  18.659  0.00  0.00    +0.000 A 
ATOM     19  C   UNL     1       9.564  13.869  19.247  0.00  0.00    +0.000 C 
ATOM     20  O   UNL     1       8.667  13.675  20.044  0.00  0.00    +0.000 OA
ENDBRANCH   9  10
ENDBRANCH   8   9
ENDBRANCH   7   8
ENDBRANCH   6   7
ENDBRANCH   5   6
ENDBRANCH   2   5
BRANCH   3  21
ATOM     21  C   UNL     1       5.584   5.277  15.553  0.00  0.00    +0.000 C 
BRANCH  21  22
ATOM     22  C   UNL     1       5.320   3.864  16.074  0.00  0.00    +0.000 C 
BRANCH  22  23
ATOM     23  C   UNL     1       4.252   3.850  17.116  0.00  0.00    +0.000 A 
ATOM     24  N   UNL     1       3.106   3.202  17.064  0.00  0.00    +0.000 NA
ATOM     25  C   UNL     1       2.458   3.498  18.239  0.00  0.00    +0.000 A 
ATOM     26  C   UNL     1       1.206   3.076  18.707  0.00  0.00    +0.000 A 
ATOM     27  C   UNL     1       0.772   3.525  19.961  0.00  0.00    +0.000 A 
ATOM     28  C   UNL     1       1.568   4.376  20.731  0.00  0.00    +0.000 A 
ATOM     29  C   UNL     1       2.820   4.810  20.279  0.00  0.00    +0.000 A 
ATOM     30  C   UNL     1       3.226   4.349  19.025  0.00  0.00    +0.000 A 
ATOM     31  N   UNL     1       4.359   4.565  18.283  0.00  0.00    +0.000 N 
ATOM     32  H   UNL     1       5.137   5.152  18.545  0.00  0.00    +0.000 HD
ENDBRANCH  22  23
ENDBRANCH  21  22
ENDBRANCH   3  21
TORSDOF 9
ENDMDL
MODEL 4
REMARK VINA RESULT:      -7.5      1.650      2.235
REMARK  Name = 
REMARK  9 active torsions:
REMARK  status: ('A' for Active; 'I' for Inactive)
REMARK    1  A    between atoms: C_2  and  C_3
REMARK    2  A    between atoms: C_3  and  C_4
REMARK    3  A    between atoms: C_4  and  C_5
REMARK    4  A    between atoms: C_5  and  C_6
REMARK    5  A    between atoms: C_6  and  C_7
REMARK    6  A    between atoms: C_7  and  N_8
REMARK    7  A    between atoms: N_19  and  C_20
REMARK    8  A    between atoms: C_20  and  C_21
REMARK    9  A    between atoms: C_21  and  C_22
REMARK                            x       y       z     vdW  Elec       q    Type
REMARK                         _______ _______ _______ _____ _____    ______ ____
ROOT
ATOM      1  O   UNL     1       1.874   8.535  19.348  0.00  0.00    +0.000 OA
ATOM      2  C   UNL     1       1.916   7.587  20.125  0.00  0.00    +0.000 C 
ATOM      3  N   UNL     1       1.697   7.716  21.476  0.00  0.00    +0.000 N 
ATOM      4  H   UNL     1       1.674   6.894  22.068  0.00  0.00    +0.000 HD
ENDROOT
BRANCH   2   5
ATOM      5  C   UNL     1       2.151   6.154  19.678  0.00  0.00    +0.000 C 
BRANCH   5   6
ATOM      6  C   UNL     1       1.714   5.163  20.753  0.00  0.00    +0.000 C 
BRANCH   6   7
ATOM      7  C   UNL     1       0.977   3.960  20.161  0.00  0.00    +0.000 C 
BRANCH   7   8
ATOM      8  C   UNL     1       1.721   2.663  20.476  0.00  0.00    +0.000 C 
BRANCH   8   9
ATOM      9  C   UNL     1       2.269   2.001  19.210  0.00  0.00    +0.000 C 
BRANCH   9  10
ATOM     10  N   UNL     1       3.302   2.816  18.601  0.00  0.00    +0.000 N 
ATOM     11  C   UNL     1       3.140   3.491  17.422  0.00  0.00    +0.000 C 
ATOM     12  O   UNL     1       2.194   3.490  16.657  0.00  0.00    +0.000 OA
ATOM     13  C   UNL     1       4.358   4.273  17.221  0.00  0.00    +0.000 A 
ATOM     14  C   UNL     1       4.704   5.143  16.207  0.00  0.00    +0.000 A 
ATOM     15  C   UNL     1       5.950   5.769  16.300  0.00  0.00    +0.000 A 
ATOM     16  C   UNL     1       6.809   5.510  17.390  0.00  0.00    +0.000 A 
ATOM     17  C   UNL     1       6.434   4.628  18.406  0.00  0.00    +0.000 A 
ATOM     18  C   UNL     1       5.198   4.026  18.295  0.00  0.00    +0.000 A 
ATOM     19  C   UNL     1       4.505   3.101  19.191  0.00  0.00    +0.000 C 
ATOM     20  O   UNL     1       4.950   2.714  20.254  0.00  0.00    +0.000 OA
ENDBRANCH   9  10
ENDBRANCH   8   9
ENDBRANCH   7   8
ENDBRANCH   6   7
ENDBRANCH   5   6
ENDBRANCH   2   5
BRANCH   3  21
ATOM     21  C   UNL     1       1.422   8.996  22.111  0.00  0.00    +0.000 C 
BRANCH  21  22
ATOM     22  C   UNL     1      -0.014   9.478  21.903  0.00  0.00    +0.000 C 
BRANCH  22  23
ATOM     23  C   UNL     1      -0.057  10.854  21.325  0.00  0.00    +0.000 A 
ATOM     24  N   UNL     1      -0.104  11.990  21.991  0.00  0.00    +0.000 NA
ATOM     25  C   UNL     1      -0.138  12.978  21.037  0.00  0.00    +0.000 A 
ATOM     26  C   UNL     1      -0.191  14.371  21.186  0.00  0.00    +0.000 A 
ATOM     27  C   UNL     1      -0.213  15.169  20.036  0.00  0.00    +0.000 A 
ATOM     28  C   UNL     1      -0.182  14.592  18.764  0.00  0.00    +0.000 A 
ATOM     29  C   UNL     1      -0.132  13.203  18.595  0.00  0.00    +0.000 A 
ATOM     30  C   UNL     1      -0.114  12.432  19.759  0.00  0.00    +0.000 A 
ATOM     31  N   UNL     1      -0.072  11.078  19.970  0.00  0.00    +0.000 N 
ATOM     32  H   UNL     1      -0.058  10.366  19.255  0.00  0.00    +0.000 HD
ENDBRANCH  22  23
ENDBRANCH  21  22
ENDBRANCH   3  21
TORSDOF 9
ENDMDL
MODEL 5
REMARK VINA RESULT:      -7.5      5.971      9.091
REMARK  Name = 
REMARK  9 active torsions:
REMARK  status: ('A' for Active; 'I' for Inactive)
REMARK    1  A    between atoms: C_2  and  C_3
REMARK    2  A    between atoms: C_3  and  C_4
REMARK    3  A    between atoms: C_4  and  C_5
REMARK    4  A    between atoms: C_5  and  C_6
REMARK    5  A    between atoms: C_6  and  C_7
REMARK    6  A    between atoms: C_7  and  N_8
REMARK    7  A    between atoms: N_19  and  C_20
REMARK    8  A    between atoms: C_20  and  C_21
REMARK    9  A    between atoms: C_21  and  C_22
REMARK                            x       y       z     vdW  Elec       q    Type
REMARK                         _______ _______ _______ _____ _____    ______ ____
ROOT
ATOM      1  O   UNL     1       8.146   4.336  17.782  0.00  0.00    +0.000 OA
ATOM      2  C   UNL     1       7.336   5.255  17.830  0.00  0.00    +0.000 C 
ATOM      3  N   UNL     1       6.283   5.371  16.954  0.00  0.00    +0.000 N 
ATOM      4  H   UNL     1       5.600   6.111  17.075  0.00  0.00    +0.000 HD
ENDROOT
BRANCH   2   5
ATOM      5  C   UNL     1       7.364   6.335  18.898  0.00  0.00    +0.000 C 
BRANCH   5   6
ATOM      6  C   UNL     1       8.409   7.400  18.578  0.00  0.00    +0.000 C 
BRANCH   6   7
ATOM      7  C   UNL     1       7.847   8.508  17.685  0.00  0.00    +0.000 C 
BRANCH   7   8
ATOM      8  C   UNL     1       8.255   9.884  18.212  0.00  0.00    +0.000 C 
BRANCH   8   9
ATOM      9  C   UNL     1       9.420   9.792  19.199  0.00  0.00    +0.000 C 
BRANCH   9  10
ATOM     10  N   UNL     1       9.876  11.110  19.593  0.00  0.00    +0.000 N 
ATOM     11  C   UNL     1      10.667  11.906  18.809  0.00  0.00    +0.000 C 
ATOM     12  O   UNL     1      11.177  11.663  17.732  0.00  0.00    +0.000 OA
ATOM     13  C   UNL     1      10.800  13.179  19.513  0.00  0.00    +0.000 A 
ATOM     14  C   UNL     1      11.469  14.332  19.154  0.00  0.00    +0.000 A 
ATOM     15  C   UNL     1      11.399  15.412  20.039  0.00  0.00    +0.000 A 
ATOM     16  C   UNL     1      10.673  15.312  21.244  0.00  0.00    +0.000 A 
ATOM     17  C   UNL     1      10.000  14.135  21.583  0.00  0.00    +0.000 A 
ATOM     18  C   UNL     1      10.080  13.085  20.693  0.00  0.00    +0.000 A 
ATOM     19  C   UNL     1       9.470  11.756  20.730  0.00  0.00    +0.000 C 
ATOM     20  O   UNL     1       8.735  11.365  21.615  0.00  0.00    +0.000 OA
ENDBRANCH   9  10
ENDBRANCH   8   9
ENDBRANCH   7   8
ENDBRANCH   6   7
ENDBRANCH   5   6
ENDBRANCH   2   5
BRANCH   3  21
ATOM     21  C   UNL     1       6.051   4.427  15.872  0.00  0.00    +0.000 C 
BRANCH  21  22
ATOM     22  C   UNL     1       4.601   3.947  15.789  0.00  0.00    +0.000 C 
BRANCH  22  23
ATOM     23  C   UNL     1       3.992   3.796  17.143  0.00  0.00    +0.000 A 
ATOM     24  N   UNL     1       4.388   2.983  18.102  0.00  0.00    +0.000 NA
ATOM     25  C   UNL     1       3.520   3.191  19.147  0.00  0.00    +0.000 A 
ATOM     26  C   UNL     1       3.480   2.594  20.415  0.00  0.00    +0.000 A 
ATOM     27  C   UNL     1       2.482   2.993  21.313  0.00  0.00    +0.000 A 
ATOM     28  C   UNL     1       1.545   3.965  20.955  0.00  0.00    +0.000 A 
ATOM     29  C   UNL     1       1.567   4.570  19.693  0.00  0.00    +0.000 A 
ATOM     30  C   UNL     1       2.572   4.152  18.817  0.00  0.00    +0.000 A 
ATOM     31  N   UNL     1       2.888   4.514  17.533  0.00  0.00    +0.000 N 
ATOM     32  H   UNL     1       2.394   5.188  16.968  0.00  0.00    +0.000 HD
ENDBRANCH  22  23
ENDBRANCH  21  22
ENDBRANCH   3  21
TORSDOF 9
ENDMDL
MODEL 6
REMARK VINA RESULT:      -7.5      6.396      9.697
REMARK  Name = 
REMARK  9 active torsions:
REMARK  status: ('A' for Active; 'I' for Inactive)
REMARK    1  A    between atoms: C_2  and  C_3
REMARK    2  A    between atoms: C_3  and  C_4
REMARK    3  A    between atoms: C_4  and  C_5
REMARK    4  A    between atoms: C_5  and  C_6
REMARK    5  A    between atoms: C_6  and  C_7
REMARK    6  A    between atoms: C_7  and  N_8
REMARK    7  A    between atoms: N_19  and  C_20
REMARK    8  A    between atoms: C_20  and  C_21
REMARK    9  A    between atoms: C_21  and  C_22
REMARK                            x       y       z     vdW  Elec       q    Type
REMARK                         _______ _______ _______ _____ _____    ______ ____
ROOT
ATOM      1  O   UNL     1       7.056   5.074  19.162  0.00  0.00    +0.000 OA
ATOM      2  C   UNL     1       7.549   5.847  18.347  0.00  0.00    +0.000 C 
ATOM      3  N   UNL     1       7.535   5.615  16.993  0.00  0.00    +0.000 N 
ATOM      4  H   UNL     1       7.895   6.316  16.353  0.00  0.00    +0.000 HD
ENDROOT
BRANCH   2   5
ATOM      5  C   UNL     1       8.175   7.176  18.734  0.00  0.00    +0.000 C 
BRANCH   5   6
ATOM      6  C   UNL     1       7.757   8.283  17.771  0.00  0.00    +0.000 C 
BRANCH   6   7
ATOM      7  C   UNL     1       8.791   9.409  17.705  0.00  0.00    +0.000 C 
BRANCH   7   8
ATOM      8  C   UNL     1       8.593  10.392  18.859  0.00  0.00    +0.000 C 
BRANCH   8   9
ATOM      9  C   UNL     1       9.923  10.959  19.356  0.00  0.00    +0.000 C 
BRANCH   9  10
ATOM     10  N   UNL     1      10.064  12.354  18.991  0.00  0.00    +0.000 N 
ATOM     11  C   UNL     1      10.852  12.795  17.962  0.00  0.00    +0.000 C 
ATOM     12  O   UNL     1      11.600  12.164  17.239  0.00  0.00    +0.000 OA
ATOM     13  C   UNL     1      10.626  14.234  17.855  0.00  0.00    +0.000 A 
ATOM     14  C   UNL     1      11.151  15.157  16.972  0.00  0.00    +0.000 A 
ATOM     15  C   UNL     1      10.725  16.482  17.106  0.00  0.00    +0.000 A 
ATOM     16  C   UNL     1       9.800  16.846  18.107  0.00  0.00    +0.000 A 
ATOM     17  C   UNL     1       9.280  15.892  18.986  0.00  0.00    +0.000 A 
ATOM     18  C   UNL     1       9.711  14.591  18.832  0.00  0.00    +0.000 A 
ATOM     19  C   UNL     1       9.338  13.372  19.549  0.00  0.00    +0.000 C 
ATOM     20  O   UNL     1       8.516  13.329  20.444  0.00  0.00    +0.000 OA
ENDBRANCH   9  10
ENDBRANCH   8   9
ENDBRANCH   7   8
ENDBRANCH   6   7
ENDBRANCH   5   6
ENDBRANCH   2   5
BRANCH   3  21
ATOM     21  C   UNL     1       6.958   4.417  16.403  0.00  0.00    +0.000 C 
BRANCH  21  22
ATOM     22  C   UNL     1       5.559   4.641  15.828  0.00  0.00    +0.000 C 
BRANCH  22  23
ATOM     23  C   UNL     1       4.494   4.239  16.794  0.00  0.00    +0.000 A 
ATOM     24  N   UNL     1       3.538   5.005  17.280  0.00  0.00    +0.000 NA
ATOM     25  C   UNL     1       2.814   4.201  18.127  0.00  0.00    +0.000 A 
ATOM     26  C   UNL     1       1.687   4.501  18.906  0.00  0.00    +0.000 A 
ATOM     27  C   UNL     1       1.126   3.486  19.692  0.00  0.00    +0.000 A 
ATOM     28  C   UNL     1       1.676   2.202  19.702  0.00  0.00    +0.000 A 
ATOM     29  C   UNL     1       2.803   1.885  18.933  0.00  0.00    +0.000 A 
ATOM     30  C   UNL     1       3.342   2.917  18.161  0.00  0.00    +0.000 A 
ATOM     31  N   UNL     1       4.416   2.969  17.311  0.00  0.00    +0.000 N 
ATOM     32  H   UNL     1       5.046   2.209  17.103  0.00  0.00    +0.000 HD
ENDBRANCH  22  23
ENDBRANCH  21  22
ENDBRANCH   3  21
TORSDOF 9
ENDMDL
MODEL 7
REMARK VINA RESULT:      -7.4      0.946      1.211
REMARK  Name = 
REMARK  9 active torsions:
REMARK  status: ('A' for Active; 'I' for Inactive)
REMARK    1  A    between atoms: C_2  and  C_3
REMARK    2  A    between atoms: C_3  and  C_4
REMARK    3  A    between atoms: C_4  and  C_5
REMARK    4  A    between atoms: C_5  and  C_6
REMARK    5  A    between atoms: C_6  and  C_7
REMARK    6  A    between atoms: C_7  and  N_8
REMARK    7  A    between atoms: N_19  and  C_20
REMARK    8  A    between atoms: C_20  and  C_21
REMARK    9  A    between atoms: C_21  and  C_22
REMARK                            x       y       z     vdW  Elec       q    Type
REMARK                         _______ _______ _______ _____ _____    ______ ____
ROOT
ATOM      1  O   UNL     1       2.941   6.989  18.771  0.00  0.00    +0.000 OA
ATOM      2  C   UNL     1       2.066   7.437  19.503  0.00  0.00    +0.000 C 
ATOM      3  N   UNL     1       1.445   8.643  19.276  0.00  0.00    +0.000 N 
ATOM      4  H   UNL     1       0.679   8.940  19.870  0.00  0.00    +0.000 HD
ENDROOT
BRANCH   2   5
ATOM      5  C   UNL     1       1.522   6.688  20.708  0.00  0.00    +0.000 C 
BRANCH   5   6
ATOM      6  C   UNL     1       2.152   5.302  20.825  0.00  0.00    +0.000 C 
BRANCH   6   7
ATOM      7  C   UNL     1       1.173   4.192  20.441  0.00  0.00    +0.000 C 
BRANCH   7   8
ATOM      8  C   UNL     1       1.802   2.816  20.668  0.00  0.00    +0.000 C 
BRANCH   8   9
ATOM      9  C   UNL     1       2.198   2.150  19.350  0.00  0.00    +0.000 C 
BRANCH   9  10
ATOM     10  N   UNL     1       3.241   2.900  18.679  0.00  0.00    +0.000 N 
ATOM     11  C   UNL     1       3.042   3.615  17.528  0.00  0.00    +0.000 C 
ATOM     12  O   UNL     1       2.044   3.704  16.840  0.00  0.00    +0.000 OA
ATOM     13  C   UNL     1       4.298   4.308  17.249  0.00  0.00    +0.000 A 
ATOM     14  C   UNL     1       4.631   5.176  16.229  0.00  0.00    +0.000 A 
ATOM     15  C   UNL     1       5.926   5.704  16.237  0.00  0.00    +0.000 A 
ATOM     16  C   UNL     1       6.842   5.353  17.251  0.00  0.00    +0.000 A 
ATOM     17  C   UNL     1       6.479   4.476  18.276  0.00  0.00    +0.000 A 
ATOM     18  C   UNL     1       5.195   3.972  18.250  0.00  0.00    +0.000 A 
ATOM     19  C   UNL     1       4.503   3.079  19.179  0.00  0.00    +0.000 C 
ATOM     20  O   UNL     1       4.997   2.632  20.195  0.00  0.00    +0.000 OA
ENDBRANCH   9  10
ENDBRANCH   8   9
ENDBRANCH   7   8
ENDBRANCH   6   7
ENDBRANCH   5   6
ENDBRANCH   2   5
BRANCH   3  21
ATOM     21  C   UNL     1       1.791   9.509  18.159  0.00  0.00    +0.000 C 
BRANCH  21  22
ATOM     22  C   UNL     1       1.735  10.996  18.508  0.00  0.00    +0.000 C 
BRANCH  22  23
ATOM     23  C   UNL     1       0.706  11.280  19.552  0.00  0.00    +0.000 A 
ATOM     24  N   UNL     1       0.786  11.000  20.837  0.00  0.00    +0.000 NA
ATOM     25  C   UNL     1      -0.395  11.439  21.386  0.00  0.00    +0.000 A 
ATOM     26  C   UNL     1      -0.840  11.393  22.715  0.00  0.00    +0.000 A 
ATOM     27  C   UNL     1      -2.102  11.921  23.018  0.00  0.00    +0.000 A 
ATOM     28  C   UNL     1      -2.902  12.481  22.019  0.00  0.00    +0.000 A 
ATOM     29  C   UNL     1      -2.475  12.533  20.687  0.00  0.00    +0.000 A 
ATOM     30  C   UNL     1      -1.215  11.997  20.413  0.00  0.00    +0.000 A 
ATOM     31  N   UNL     1      -0.495  11.876  19.253  0.00  0.00    +0.000 N 
ATOM     32  H   UNL     1      -0.795  12.168  18.335  0.00  0.00    +0.000 HD
ENDBRANCH  22  23
ENDBRANCH  21  22
ENDBRANCH   3  21
TORSDOF 9
ENDMDL
MODEL 8
REMARK VINA RESULT:      -7.3      2.871      9.404
REMARK  Name = 
REMARK  9 active torsions:
REMARK  status: ('A' for Active; 'I' for Inactive)
REMARK    1  A    between atoms: C_2  and  C_3
REMARK    2  A    between atoms: C_3  and  C_4
REMARK    3  A    between atoms: C_4  and  C_5
REMARK    4  A    between atoms: C_5  and  C_6
REMARK    5  A    between atoms: C_6  and  C_7
REMARK    6  A    between atoms: C_7  and  N_8
REMARK    7  A    between atoms: N_19  and  C_20
REMARK    8  A    between atoms: C_20  and  C_21
REMARK    9  A    between atoms: C_21  and  C_22
REMARK                            x       y       z     vdW  Elec       q    Type
REMARK                         _______ _______ _______ _____ _____    ______ ____
ROOT
ATOM      1  O   UNL     1       3.063   3.995  17.349  0.00  0.00    +0.000 OA
ATOM      2  C   UNL     1       3.172   4.982  18.067  0.00  0.00    +0.000 C 
ATOM      3  N   UNL     1       4.348   5.328  18.690  0.00  0.00    +0.000 N 
ATOM      4  H   UNL     1       4.409   6.190  19.219  0.00  0.00    +0.000 HD
ENDROOT
BRANCH   2   5
ATOM      5  C   UNL     1       2.043   5.971  18.302  0.00  0.00    +0.000 C 
BRANCH   5   6
ATOM      6  C   UNL     1       2.584   7.373  18.568  0.00  0.00    +0.000 C 
BRANCH   6   7
ATOM      7  C   UNL     1       2.198   8.357  17.463  0.00  0.00    +0.000 C 
BRANCH   7   8
ATOM      8  C   UNL     1       1.132   9.334  17.958  0.00  0.00    +0.000 C 
BRANCH   8   9
ATOM      9  C   UNL     1       1.742  10.471  18.779  0.00  0.00    +0.000 C 
BRANCH   9  10
ATOM     10  N   UNL     1       0.830  10.913  19.816  0.00  0.00    +0.000 N 
ATOM     11  C   UNL     1      -0.045  11.954  19.666  0.00  0.00    +0.000 C 
ATOM     12  O   UNL     1      -0.181  12.717  18.728  0.00  0.00    +0.000 OA
ATOM     13  C   UNL     1      -0.851  11.998  20.883  0.00  0.00    +0.000 A 
ATOM     14  C   UNL     1      -1.890  12.835  21.238  0.00  0.00    +0.000 A 
ATOM     15  C   UNL     1      -2.489  12.617  22.482  0.00  0.00    +0.000 A 
ATOM     16  C   UNL     1      -2.039  11.583  23.329  0.00  0.00    +0.000 A 
ATOM     17  C   UNL     1      -0.989  10.745  22.946  0.00  0.00    +0.000 A 
ATOM     18  C   UNL     1      -0.416  10.976  21.712  0.00  0.00    +0.000 A 
ATOM     19  C   UNL     1       0.655  10.268  21.012  0.00  0.00    +0.000 C 
ATOM     20  O   UNL     1       1.227   9.288  21.447  0.00  0.00    +0.000 OA
ENDBRANCH   9  10
ENDBRANCH   8   9
ENDBRANCH   7   8
ENDBRANCH   6   7
ENDBRANCH   5   6
ENDBRANCH   2   5
BRANCH   3  21
ATOM     21  C   UNL     1       5.563   4.536  18.574  0.00  0.00    +0.000 C 
BRANCH  21  22
ATOM     22  C   UNL     1       6.704   5.278  17.877  0.00  0.00    +0.000 C 
BRANCH  22  23
ATOM     23  C   UNL     1       6.741   4.985  16.414  0.00  0.00    +0.000 A 
ATOM     24  N   UNL     1       7.568   5.499  15.526  0.00  0.00    +0.000 NA
ATOM     25  C   UNL     1       7.214   4.939  14.322  0.00  0.00    +0.000 A 
ATOM     26  C   UNL     1       7.762   5.130  13.046  0.00  0.00    +0.000 A 
ATOM     27  C   UNL     1       7.213   4.424  11.967  0.00  0.00    +0.000 A 
ATOM     28  C   UNL     1       6.142   3.548  12.157  0.00  0.00    +0.000 A 
ATOM     29  C   UNL     1       5.580   3.347  13.424  0.00  0.00    +0.000 A 
ATOM     30  C   UNL     1       6.145   4.065  14.480  0.00  0.00    +0.000 A 
ATOM     31  N   UNL     1       5.857   4.119  15.819  0.00  0.00    +0.000 N 
ATOM     32  H   UNL     1       5.119   3.615  16.288  0.00  0.00    +0.000 HD
ENDBRANCH  22  23
ENDBRANCH  21  22
ENDBRANCH   3  21
TORSDOF 9
ENDMDL
MODEL 9
REMARK VINA RESULT:      -7.2      2.424      9.372
REMARK  Name = 
REMARK  9 active torsions:
REMARK  status: ('A' for Active; 'I' for Inactive)
REMARK    1  A    between atoms: C_2  and  C_3
REMARK    2  A    between atoms: C_3  and  C_4
REMARK    3  A    between atoms: C_4  and  C_5
REMARK    4  A    between atoms: C_5  and  C_6
REMARK    5  A    between atoms: C_6  and  C_7
REMARK    6  A    between atoms: C_7  and  N_8
REMARK    7  A    between atoms: N_19  and  C_20
REMARK    8  A    between atoms: C_20  and  C_21
REMARK    9  A    between atoms: C_21  and  C_22
REMARK                            x       y       z     vdW  Elec       q    Type
REMARK                         _______ _______ _______ _____ _____    ______ ____
ROOT
ATOM      1  O   UNL     1       1.849   5.095  17.905  0.00  0.00    +0.000 OA
ATOM      2  C   UNL     1       2.302   5.677  18.884  0.00  0.00    +0.000 C 
ATOM      3  N   UNL     1       2.645   5.029  20.047  0.00  0.00    +0.000 N 
ATOM      4  H   UNL     1       3.079   5.542  20.806  0.00  0.00    +0.000 HD
ENDROOT
BRANCH   2   5
ATOM      5  C   UNL     1       2.594   7.168  18.906  0.00  0.00    +0.000 C 
BRANCH   5   6
ATOM      6  C   UNL     1       1.831   7.895  17.802  0.00  0.00    +0.000 C 
BRANCH   6   7
ATOM      7  C   UNL     1       1.729   9.398  18.067  0.00  0.00    +0.000 C 
BRANCH   7   8
ATOM      8  C   UNL     1       0.918   9.668  19.335  0.00  0.00    +0.000 C 
BRANCH   8   9
ATOM      9  C   UNL     1       1.109  11.101  19.835  0.00  0.00    +0.000 C 
BRANCH   9  10
ATOM     10  N   UNL     1      -0.087  11.587  20.494  0.00  0.00    +0.000 N 
ATOM     11  C   UNL     1      -1.118  12.204  19.838  0.00  0.00    +0.000 C 
ATOM     12  O   UNL     1      -1.208  12.517  18.666  0.00  0.00    +0.000 OA
ATOM     13  C   UNL     1      -2.165  12.430  20.832  0.00  0.00    +0.000 A 
ATOM     14  C   UNL     1      -3.418  12.993  20.697  0.00  0.00    +0.000 A 
ATOM     15  C   UNL     1      -4.216  13.056  21.843  0.00  0.00    +0.000 A 
ATOM     16  C   UNL     1      -3.747  12.562  23.078  0.00  0.00    +0.000 A 
ATOM     17  C   UNL     1      -2.476  11.992  23.188  0.00  0.00    +0.000 A 
ATOM     18  C   UNL     1      -1.709  11.936  22.044  0.00  0.00    +0.000 A 
ATOM     19  C   UNL     1      -0.376  11.377  21.816  0.00  0.00    +0.000 C 
ATOM     20  O   UNL     1       0.289  10.824  22.670  0.00  0.00    +0.000 OA
ENDBRANCH   9  10
ENDBRANCH   8   9
ENDBRANCH   7   8
ENDBRANCH   6   7
ENDBRANCH   5   6
ENDBRANCH   2   5
BRANCH   3  21
ATOM     21  C   UNL     1       2.476   3.595  20.230  0.00  0.00    +0.000 C 
BRANCH  21  22
ATOM     22  C   UNL     1       3.763   2.802  20.001  0.00  0.00    +0.000 C 
BRANCH  22  23
ATOM     23  C   UNL     1       4.609   3.416  18.936  0.00  0.00    +0.000 A 
ATOM     24  N   UNL     1       5.580   4.292  19.105  0.00  0.00    +0.000 NA
ATOM     25  C   UNL     1       6.054   4.567  17.846  0.00  0.00    +0.000 A 
ATOM     26  C   UNL     1       7.085   5.427  17.441  0.00  0.00    +0.000 A 
ATOM     27  C   UNL     1       7.380   5.526  16.075  0.00  0.00    +0.000 A 
ATOM     28  C   UNL     1       6.663   4.783  15.134  0.00  0.00    +0.000 A 
ATOM     29  C   UNL     1       5.629   3.921  15.519  0.00  0.00    +0.000 A 
ATOM     30  C   UNL     1       5.356   3.845  16.886  0.00  0.00    +0.000 A 
ATOM     31  N   UNL     1       4.435   3.127  17.605  0.00  0.00    +0.000 N 
ATOM     32  H   UNL     1       3.744   2.498  17.224  0.00  0.00    +0.000 HD
ENDBRANCH  22  23
ENDBRANCH  21  22
ENDBRANCH   3  21
TORSDOF 9
ENDMDL
