MODEL 1
REMARK VINA RESULT:      -7.8      0.000      0.000
REMARK  Name = 
REMARK  8 active torsions:
REMARK  status: ('A' for Active; 'I' for Inactive)
REMARK    1  A    between atoms: C_1  and  C_2
REMARK    2  A    between atoms: C_6  and  C_7
REMARK    3  A    between atoms: C_7  and  C_8
REMARK    4  A    between atoms: C_7  and  C_9
REMARK    5  A    between atoms: C_10  and  N_11
REMARK    6  A    between atoms: C_12  and  C_14
REMARK    7  A    between atoms: N_17  and  S_18
REMARK    8  A    between atoms: S_18  and  C_21
REMARK                            x       y       z     vdW  Elec       q    Type
REMARK                         _______ _______ _______ _____ _____    ______ ____
ROOT
ATOM      1  C   UNL     1       1.752   8.013  20.348  0.00  0.00    +0.000 C 
ATOM      2  C   UNL     1       2.228   7.979  18.873  0.00  0.00    +0.000 C 
ATOM      3  C   UNL     1       2.271   6.621  18.156  0.00  0.00    +0.000 C 
ATOM      4  N   UNL     1       2.768   5.557  19.068  0.00  0.00    +0.000 NA
ATOM      5  C   UNL     1       1.821   5.422  20.201  0.00  0.00    +0.000 C 
ATOM      6  C   UNL     1       1.899   6.667  21.073  0.00  0.00    +0.000 C 
ENDROOT
BRANCH   1   8
ATOM      7  N   UNL     1       0.198   9.870  19.815  0.00  0.00    +0.000 N 
ATOM      8  C   UNL     1       0.379   8.715  20.595  0.00  0.00    +0.000 C 
ATOM      9  O   UNL     1      -0.436   8.273  21.398  0.00  0.00    +0.000 OA
ATOM     10  H   UNL     1       1.039  10.290  19.450  0.00  0.00    +0.000 HD
BRANCH   7  17
ATOM     11  C   UNL     1      -1.421   9.785  17.284  0.00  0.00    +0.000 C 
ATOM     12  C   UNL     1      -1.767  10.615  18.494  0.00  0.00    +0.000 A 
ATOM     13  C   UNL     1      -2.879  11.476  18.341  0.00  0.00    +0.000 A 
ATOM     14  C   UNL     1      -3.215  12.402  19.313  0.00  0.00    +0.000 A 
ATOM     15  C   UNL     1      -2.437  12.482  20.455  0.00  0.00    +0.000 A 
ATOM     16  C   UNL     1      -1.303  11.651  20.660  0.00  0.00    +0.000 A 
ATOM     17  C   UNL     1      -0.979  10.666  19.678  0.00  0.00    +0.000 A 
BRANCH  16  18
ATOM     18  C   UNL     1      -0.667  11.854  22.037  0.00  0.00    +0.000 C 
ATOM     19  C   UNL     1      -0.639  13.345  22.389  0.00  0.00    +0.000 C 
ATOM     20  C   UNL     1      -1.160  11.013  23.205  0.00  0.00    +0.000 C 
ENDBRANCH  16  18
ENDBRANCH   7  17
ENDBRANCH   1   8
BRANCH   4  21
ATOM     21  S   UNL     1       3.060   4.033  18.309  0.00  0.00    +0.000 S 
ATOM     22  O   UNL     1       3.185   3.026  19.344  0.00  0.00    +0.000 OA
ATOM     23  O   UNL     1       2.093   3.888  17.243  0.00  0.00    +0.000 OA
BRANCH  21  24
ATOM     24  C   UNL     1       4.677   4.196  17.569  0.00  0.00    +0.000 A 
ATOM     25  C   UNL     1       4.800   4.085  16.181  0.00  0.00    +0.000 A 
ATOM     26  C   UNL     1       6.051   4.251  15.583  0.00  0.00    +0.000 A 
ATOM     27  C   UNL     1       7.163   4.544  16.368  0.00  0.00    +0.000 A 
ATOM     28  C   UNL     1       7.034   4.689  17.750  0.00  0.00    +0.000 A 
ATOM     29  C   UNL     1       5.788   4.523  18.356  0.00  0.00    +0.000 A 
ENDBRANCH  21  24
ENDBRANCH   4  21
TORSDOF 5
ENDMDL
MODEL 2
REMARK VINA RESULT:      -7.3      2.479      3.138
REMARK  Name = 
REMARK  8 active torsions:
REMARK  status: ('A' for Active; 'I' for Inactive)
REMARK    1  A    between atoms: C_1  and  C_2
REMARK    2  A    between atoms: C_6  and  C_7
REMARK    3  A    between atoms: C_7  and  C_8
REMARK    4  A    between atoms: C_7  and  C_9
REMARK    5  A    between atoms: C_10  and  N_11
REMARK    6  A    between atoms: C_12  and  C_14
REMARK    7  A    between atoms: N_17  and  S_18
REMARK    8  A    between atoms: S_18  and  C_21
REMARK                            x       y       z     vdW  Elec       q    Type
REMARK                         _______ _______ _______ _____ _____    ______ ____
ROOT
ATOM      1  C   UNL     1       1.128   9.567  19.739  0.00  0.00    +0.000 C 
ATOM      2  C   UNL     1       1.641   9.336  18.295  0.00  0.00    +0.000 C 
ATOM      3  C   UNL     1       2.127   7.929  17.913  0.00  0.00    +0.000 C 
ATOM      4  N   UNL     1       2.898   7.317  19.028  0.00  0.00    +0.000 NA
ATOM      5  C   UNL     1       2.002   7.166  20.199  0.00  0.00    +0.000 C 
ATOM      6  C   UNL     1       1.661   8.542  20.752  0.00  0.00    +0.000 C 
ENDROOT
BRANCH   1   8
ATOM      7  N   UNL     1      -0.902  10.688  18.864  0.00  0.00    +0.000 N 
ATOM      8  C   UNL     1      -0.402   9.847  19.873  0.00  0.00    +0.000 C 
ATOM      9  O   UNL     1      -1.069   9.363  20.781  0.00  0.00    +0.000 OA
ATOM     10  H   UNL     1      -0.219  11.256  18.387  0.00  0.00    +0.000 HD
BRANCH   7  17
ATOM     11  C   UNL     1      -2.248   9.752  16.345  0.00  0.00    +0.000 C 
ATOM     12  C   UNL     1      -2.916  10.573  17.418  0.00  0.00    +0.000 A 
ATOM     13  C   UNL     1      -4.234  10.997  17.125  0.00  0.00    +0.000 A 
ATOM     14  C   UNL     1      -4.909  11.881  17.950  0.00  0.00    +0.000 A 
ATOM     15  C   UNL     1      -4.270  12.358  19.080  0.00  0.00    +0.000 A 
ATOM     16  C   UNL     1      -2.944  11.976  19.421  0.00  0.00    +0.000 A 
ATOM     17  C   UNL     1      -2.262  11.032  18.596  0.00  0.00    +0.000 A 
BRANCH  16  18
ATOM     18  C   UNL     1      -2.493  12.553  20.765  0.00  0.00    +0.000 C 
ATOM     19  C   UNL     1      -1.564  13.751  20.538  0.00  0.00    +0.000 C 
ATOM     20  C   UNL     1      -3.543  12.852  21.825  0.00  0.00    +0.000 C 
ENDBRANCH  16  18
ENDBRANCH   7  17
ENDBRANCH   1   8
BRANCH   4  21
ATOM     21  S   UNL     1       3.674   5.824  18.634  0.00  0.00    +0.000 S 
ATOM     22  O   UNL     1       3.739   5.712  17.191  0.00  0.00    +0.000 OA
ATOM     23  O   UNL     1       4.871   5.732  19.442  0.00  0.00    +0.000 OA
BRANCH  21  24
ATOM     24  C   UNL     1       2.537   4.562  19.185  0.00  0.00    +0.000 A 
ATOM     25  C   UNL     1       1.656   3.995  18.260  0.00  0.00    +0.000 A 
ATOM     26  C   UNL     1       0.789   2.977  18.666  0.00  0.00    +0.000 A 
ATOM     27  C   UNL     1       0.821   2.521  19.981  0.00  0.00    +0.000 A 
ATOM     28  C   UNL     1       1.726   3.062  20.895  0.00  0.00    +0.000 A 
ATOM     29  C   UNL     1       2.593   4.081  20.498  0.00  0.00    +0.000 A 
ENDBRANCH  21  24
ENDBRANCH   4  21
TORSDOF 5
ENDMDL
MODEL 3
REMARK VINA RESULT:      -7.1      0.851      1.037
REMARK  Name = 
REMARK  8 active torsions:
REMARK  status: ('A' for Active; 'I' for Inactive)
REMARK    1  A    between atoms: C_1  and  C_2
REMARK    2  A    between atoms: C_6  and  C_7
REMARK    3  A    between atoms: C_7  and  C_8
REMARK    4  A    between atoms: C_7  and  C_9
REMARK    5  A    between atoms: C_10  and  N_11
REMARK    6  A    between atoms: C_12  and  C_14
REMARK    7  A    between atoms: N_17  and  S_18
REMARK    8  A    between atoms: S_18  and  C_21
REMARK                            x       y       z     vdW  Elec       q    Type
REMARK                         _______ _______ _______ _____ _____    ______ ____
ROOT
ATOM      1  C   UNL     1       1.595   8.729  19.986  0.00  0.00    +0.000 C 
ATOM      2  C   UNL     1       1.909   8.521  18.483  0.00  0.00    +0.000 C 
ATOM      3  C   UNL     1       2.069   7.083  17.967  0.00  0.00    +0.000 C 
ATOM      4  N   UNL     1       2.809   6.248  18.951  0.00  0.00    +0.000 NA
ATOM      5  C   UNL     1       2.018   6.178  20.204  0.00  0.00    +0.000 C 
ATOM      6  C   UNL     1       2.010   7.545  20.872  0.00  0.00    +0.000 C 
ENDROOT
BRANCH   1   8
ATOM      7  N   UNL     1      -0.197  10.370  19.492  0.00  0.00    +0.000 N 
ATOM      8  C   UNL     1       0.170   9.284  20.305  0.00  0.00    +0.000 C 
ATOM      9  O   UNL     1      -0.531   8.794  21.185  0.00  0.00    +0.000 OA
ATOM     10  H   UNL     1       0.562  10.863  19.047  0.00  0.00    +0.000 HD
BRANCH   7  17
ATOM     11  C   UNL     1      -2.064   9.797  17.206  0.00  0.00    +0.000 C 
ATOM     12  C   UNL     1      -2.368  10.738  18.345  0.00  0.00    +0.000 A 
ATOM     13  C   UNL     1      -3.581  11.457  18.230  0.00  0.00    +0.000 A 
ATOM     14  C   UNL     1      -3.912  12.463  19.122  0.00  0.00    +0.000 A 
ATOM     15  C   UNL     1      -3.028  12.767  20.141  0.00  0.00    +0.000 A 
ATOM     16  C   UNL     1      -1.791  12.086  20.301  0.00  0.00    +0.000 A 
ATOM     17  C   UNL     1      -1.466  11.020  19.409  0.00  0.00    +0.000 A 
BRANCH  16  18
ATOM     18  C   UNL     1      -1.034  12.528  21.556  0.00  0.00    +0.000 C 
ATOM     19  C   UNL     1      -1.368  11.596  22.727  0.00  0.00    +0.000 C 
ATOM     20  C   UNL     1       0.462  12.788  21.458  0.00  0.00    +0.000 C 
ENDBRANCH  16  18
ENDBRANCH   7  17
ENDBRANCH   1   8
BRANCH   4  21
ATOM     21  S   UNL     1       3.233   4.672  18.387  0.00  0.00    +0.000 S 
ATOM     22  O   UNL     1       3.634   3.873  19.527  0.00  0.00    +0.000 OA
ATOM     23  O   UNL     1       2.176   4.229  17.504  0.00  0.00    +0.000 OA
BRANCH  21  24
ATOM     24  C   UNL     1       4.704   4.921  17.405  0.00  0.00    +0.000 A 
ATOM     25  C   UNL     1       4.897   4.136  16.265  0.00  0.00    +0.000 A 
ATOM     26  C   UNL     1       6.022   4.347  15.463  0.00  0.00    +0.000 A 
ATOM     27  C   UNL     1       6.932   5.347  15.794  0.00  0.00    +0.000 A 
ATOM     28  C   UNL     1       6.721   6.154  16.912  0.00  0.00    +0.000 A 
ATOM     29  C   UNL     1       5.601   5.949  17.719  0.00  0.00    +0.000 A 
ENDBRANCH  21  24
ENDBRANCH   4  21
TORSDOF 5
ENDMDL
MODEL 4
REMARK VINA RESULT:      -7.1      3.016      9.171
REMARK  Name = 
REMARK  8 active torsions:
REMARK  status: ('A' for Active; 'I' for Inactive)
REMARK    1  A    between atoms: C_1  and  C_2
REMARK    2  A    between atoms: C_6  and  C_7
REMARK    3  A    between atoms: C_7  and  C_8
REMARK    4  A    between atoms: C_7  and  C_9
REMARK    5  A    between atoms: C_10  and  N_11
REMARK    6  A    between atoms: C_12  and  C_14
REMARK    7  A    between atoms: N_17  and  S_18
REMARK    8  A    between atoms: S_18  and  C_21
REMARK                            x       y       z     vdW  Elec       q    Type
REMARK                         _______ _______ _______ _____ _____    ______ ____
ROOT
ATOM      1  C   UNL     1       1.178   8.884  18.566  0.00  0.00    +0.000 C 
ATOM      2  C   UNL     1       1.931  10.074  17.920  0.00  0.00    +0.000 C 
ATOM      3  C   UNL     1       2.065  11.373  18.730  0.00  0.00    +0.000 C 
ATOM      4  N   UNL     1       0.807  11.668  19.467  0.00  0.00    +0.000 NA
ATOM      5  C   UNL     1       0.558  10.573  20.437  0.00  0.00    +0.000 C 
ATOM      6  C   UNL     1       0.206   9.301  19.679  0.00  0.00    +0.000 C 
ENDROOT
BRANCH   1   8
ATOM      7  N   UNL     1       2.198   6.732  17.876  0.00  0.00    +0.000 N 
ATOM      8  C   UNL     1       2.061   7.649  18.932  0.00  0.00    +0.000 C 
ATOM      9  O   UNL     1       2.568   7.525  20.042  0.00  0.00    +0.000 OA
ATOM     10  H   UNL     1       1.497   6.785  17.153  0.00  0.00    +0.000 HD
BRANCH   7  17
ATOM     11  C   UNL     1       4.846   6.852  16.457  0.00  0.00    +0.000 C 
ATOM     12  C   UNL     1       4.307   5.634  17.163  0.00  0.00    +0.000 A 
ATOM     13  C   UNL     1       5.088   4.461  17.031  0.00  0.00    +0.000 A 
ATOM     14  C   UNL     1       4.638   3.237  17.496  0.00  0.00    +0.000 A 
ATOM     15  C   UNL     1       3.395   3.169  18.099  0.00  0.00    +0.000 A 
ATOM     16  C   UNL     1       2.563   4.310  18.252  0.00  0.00    +0.000 A 
ATOM     17  C   UNL     1       3.041   5.581  17.811  0.00  0.00    +0.000 A 
BRANCH  16  18
ATOM     18  C   UNL     1       1.285   4.005  19.037  0.00  0.00    +0.000 C 
ATOM     19  C   UNL     1       0.838   2.562  18.773  0.00  0.00    +0.000 C 
ATOM     20  C   UNL     1       1.235   4.344  20.519  0.00  0.00    +0.000 C 
ENDBRANCH  16  18
ENDBRANCH   7  17
ENDBRANCH   1   8
BRANCH   4  21
ATOM     21  S   UNL     1       0.769  13.212  20.240  0.00  0.00    +0.000 S 
ATOM     22  O   UNL     1       1.824  13.251  21.232  0.00  0.00    +0.000 OA
ATOM     23  O   UNL     1       0.688  14.215  19.201  0.00  0.00    +0.000 OA
BRANCH  21  24
ATOM     24  C   UNL     1      -0.771  13.229  21.145  0.00  0.00    +0.000 A 
ATOM     25  C   UNL     1      -1.974  13.217  20.434  0.00  0.00    +0.000 A 
ATOM     26  C   UNL     1      -3.186  13.189  21.127  0.00  0.00    +0.000 A 
ATOM     27  C   UNL     1      -3.190  13.152  22.519  0.00  0.00    +0.000 A 
ATOM     28  C   UNL     1      -1.989  13.129  23.228  0.00  0.00    +0.000 A 
ATOM     29  C   UNL     1      -0.773  13.159  22.543  0.00  0.00    +0.000 A 
ENDBRANCH  21  24
ENDBRANCH   4  21
TORSDOF 5
ENDMDL
MODEL 5
REMARK VINA RESULT:      -7.1      3.995      8.597
REMARK  Name = 
REMARK  8 active torsions:
REMARK  status: ('A' for Active; 'I' for Inactive)
REMARK    1  A    between atoms: C_1  and  C_2
REMARK    2  A    between atoms: C_6  and  C_7
REMARK    3  A    between atoms: C_7  and  C_8
REMARK    4  A    between atoms: C_7  and  C_9
REMARK    5  A    between atoms: C_10  and  N_11
REMARK    6  A    between atoms: C_12  and  C_14
REMARK    7  A    between atoms: N_17  and  S_18
REMARK    8  A    between atoms: S_18  and  C_21
REMARK                            x       y       z     vdW  Elec       q    Type
REMARK                         _______ _______ _______ _____ _____    ______ ____
ROOT
ATOM      1  C   UNL     1       1.178   9.008  18.667  0.00  0.00    +0.000 C 
ATOM      2  C   UNL     1       1.904  10.145  17.903  0.00  0.00    +0.000 C 
ATOM      3  C   UNL     1       2.138  11.476  18.633  0.00  0.00    +0.000 C 
ATOM      4  N   UNL     1       0.955  11.841  19.458  0.00  0.00    +0.000 NA
ATOM      5  C   UNL     1       0.762  10.801  20.497  0.00  0.00    +0.000 C 
ATOM      6  C   UNL     1       0.315   9.506  19.835  0.00  0.00    +0.000 C 
ENDROOT
BRANCH   1   8
ATOM      7  N   UNL     1       2.207   6.871  17.945  0.00  0.00    +0.000 N 
ATOM      8  C   UNL     1       2.058   7.767  19.018  0.00  0.00    +0.000 C 
ATOM      9  O   UNL     1       2.554   7.622  20.131  0.00  0.00    +0.000 OA
ATOM     10  H   UNL     1       1.514   6.938  17.217  0.00  0.00    +0.000 HD
BRANCH   7  17
ATOM     11  C   UNL     1       4.860   7.014  16.537  0.00  0.00    +0.000 C 
ATOM     12  C   UNL     1       4.320   5.785  17.225  0.00  0.00    +0.000 A 
ATOM     13  C   UNL     1       5.103   4.615  17.078  0.00  0.00    +0.000 A 
ATOM     14  C   UNL     1       4.653   3.384  17.524  0.00  0.00    +0.000 A 
ATOM     15  C   UNL     1       3.408   3.306  18.121  0.00  0.00    +0.000 A 
ATOM     16  C   UNL     1       2.573   4.444  18.288  0.00  0.00    +0.000 A 
ATOM     17  C   UNL     1       3.052   5.722  17.867  0.00  0.00    +0.000 A 
BRANCH  16  18
ATOM     18  C   UNL     1       1.293   4.127  19.064  0.00  0.00    +0.000 C 
ATOM     19  C   UNL     1       0.846   2.689  18.775  0.00  0.00    +0.000 C 
ATOM     20  C   UNL     1       1.239   4.441  20.551  0.00  0.00    +0.000 C 
ENDBRANCH  16  18
ENDBRANCH   7  17
ENDBRANCH   1   8
BRANCH   4  21
ATOM     21  S   UNL     1       1.021  13.420  20.155  0.00  0.00    +0.000 S 
ATOM     22  O   UNL     1      -0.127  14.171  19.688  0.00  0.00    +0.000 OA
ATOM     23  O   UNL     1       1.279  13.259  21.569  0.00  0.00    +0.000 OA
BRANCH  21  24
ATOM     24  C   UNL     1       2.455  14.185  19.415  0.00  0.00    +0.000 A 
ATOM     25  C   UNL     1       2.350  14.714  18.126  0.00  0.00    +0.000 A 
ATOM     26  C   UNL     1       3.451  15.353  17.549  0.00  0.00    +0.000 A 
ATOM     27  C   UNL     1       4.637  15.475  18.267  0.00  0.00    +0.000 A 
ATOM     28  C   UNL     1       4.731  14.978  19.567  0.00  0.00    +0.000 A 
ATOM     29  C   UNL     1       3.637  14.337  20.150  0.00  0.00    +0.000 A 
ENDBRANCH  21  24
ENDBRANCH   4  21
TORSDOF 5
ENDMDL
MODEL 6
REMARK VINA RESULT:      -7.1      2.935      8.797
REMARK  Name = 
REMARK  8 active torsions:
REMARK  status: ('A' for Active; 'I' for Inactive)
REMARK    1  A    between atoms: C_1  and  C_2
REMARK    2  A    between atoms: C_6  and  C_7
REMARK    3  A    between atoms: C_7  and  C_8
REMARK    4  A    between atoms: C_7  and  C_9
REMARK    5  A    between atoms: C_10  and  N_11
REMARK    6  A    between atoms: C_12  and  C_14
REMARK    7  A    between atoms: N_17  and  S_18
REMARK    8  A    between atoms: S_18  and  C_21
REMARK                            x       y       z     vdW  Elec       q    Type
REMARK                         _______ _______ _______ _____ _____    ______ ____
ROOT
ATOM      1  C   UNL     1       2.472   7.995  18.891  0.00  0.00    +0.000 C 
ATOM      2  C   UNL     1       1.846   8.209  20.292  0.00  0.00    +0.000 C 
ATOM      3  C   UNL     1       0.575   9.066  20.396  0.00  0.00    +0.000 C 
ATOM      4  N   UNL     1       0.655  10.240  19.486  0.00  0.00    +0.000 NA
ATOM      5  C   UNL     1       0.740   9.753  18.088  0.00  0.00    +0.000 C 
ATOM      6  C   UNL     1       2.086   9.077  17.872  0.00  0.00    +0.000 C 
ENDROOT
BRANCH   1   8
ATOM      7  N   UNL     1       3.396   5.696  18.810  0.00  0.00    +0.000 N 
ATOM      8  C   UNL     1       2.381   6.540  18.328  0.00  0.00    +0.000 C 
ATOM      9  O   UNL     1       1.498   6.205  17.547  0.00  0.00    +0.000 OA
ATOM     10  H   UNL     1       4.215   6.156  19.176  0.00  0.00    +0.000 HD
BRANCH   7  17
ATOM     11  C   UNL     1       4.819   4.601  16.398  0.00  0.00    +0.000 C 
ATOM     12  C   UNL     1       4.226   3.758  17.498  0.00  0.00    +0.000 A 
ATOM     13  C   UNL     1       4.273   2.360  17.283  0.00  0.00    +0.000 A 
ATOM     14  C   UNL     1       3.631   1.476  18.134  0.00  0.00    +0.000 A 
ATOM     15  C   UNL     1       2.928   1.981  19.213  0.00  0.00    +0.000 A 
ATOM     16  C   UNL     1       2.838   3.375  19.475  0.00  0.00    +0.000 A 
ATOM     17  C   UNL     1       3.532   4.286  18.623  0.00  0.00    +0.000 A 
BRANCH  16  18
ATOM     18  C   UNL     1       2.094   3.682  20.777  0.00  0.00    +0.000 C 
ATOM     19  C   UNL     1       0.719   4.284  20.468  0.00  0.00    +0.000 C 
ATOM     20  C   UNL     1       2.004   2.600  21.843  0.00  0.00    +0.000 C 
ENDBRANCH  16  18
ENDBRANCH   7  17
ENDBRANCH   1   8
BRANCH   4  21
ATOM     21  S   UNL     1      -0.623  11.387  19.675  0.00  0.00    +0.000 S 
ATOM     22  O   UNL     1      -1.561  11.207  18.586  0.00  0.00    +0.000 OA
ATOM     23  O   UNL     1      -1.062  11.324  21.052  0.00  0.00    +0.000 OA
BRANCH  21  24
ATOM     24  C   UNL     1       0.150  12.976  19.414  0.00  0.00    +0.000 A 
ATOM     25  C   UNL     1       1.543  13.068  19.475  0.00  0.00    +0.000 A 
ATOM     26  C   UNL     1       2.165  14.295  19.231  0.00  0.00    +0.000 A 
ATOM     27  C   UNL     1       1.397  15.412  18.912  0.00  0.00    +0.000 A 
ATOM     28  C   UNL     1       0.009  15.312  18.816  0.00  0.00    +0.000 A 
ATOM     29  C   UNL     1      -0.621  14.090  19.060  0.00  0.00    +0.000 A 
ENDBRANCH  21  24
ENDBRANCH   4  21
TORSDOF 5
ENDMDL
MODEL 7
REMARK VINA RESULT:      -7.0      1.094      2.668
REMARK  Name = 
REMARK  8 active torsions:
REMARK  status: ('A' for Active; 'I' for Inactive)
REMARK    1  A    between atoms: C_1  and  C_2
REMARK    2  A    between atoms: C_6  and  C_7
REMARK    3  A    between atoms: C_7  and  C_8
REMARK    4  A    between atoms: C_7  and  C_9
REMARK    5  A    between atoms: C_10  and  N_11
REMARK    6  A    between atoms: C_12  and  C_14
REMARK    7  A    between atoms: N_17  and  S_18
REMARK    8  A    between atoms: S_18  and  C_21
REMARK                            x       y       z     vdW  Elec       q    Type
REMARK                         _______ _______ _______ _____ _____    ______ ____
ROOT
ATOM      1  C   UNL     1       1.492   8.992  20.079  0.00  0.00    +0.000 C 
ATOM      2  C   UNL     1       1.703   8.772  18.559  0.00  0.00    +0.000 C 
ATOM      3  C   UNL     1       1.793   7.329  18.040  0.00  0.00    +0.000 C 
ATOM      4  N   UNL     1       2.575   6.479  18.977  0.00  0.00    +0.000 NA
ATOM      5  C   UNL     1       1.866   6.431  20.279  0.00  0.00    +0.000 C 
ATOM      6  C   UNL     1       1.935   7.800  20.940  0.00  0.00    +0.000 C 
ENDROOT
BRANCH   1   8
ATOM      7  N   UNL     1      -0.141  10.852  19.937  0.00  0.00    +0.000 N 
ATOM      8  C   UNL     1       0.105   9.582  20.487  0.00  0.00    +0.000 C 
ATOM      9  O   UNL     1      -0.667   8.970  21.217  0.00  0.00    +0.000 OA
ATOM     10  H   UNL     1       0.673  11.364  19.632  0.00  0.00    +0.000 HD
BRANCH   7  17
ATOM     11  C   UNL     1      -0.730  12.658  22.266  0.00  0.00    +0.000 C 
ATOM     12  C   UNL     1      -1.626  12.490  21.065  0.00  0.00    +0.000 A 
ATOM     13  C   UNL     1      -2.867  13.166  21.134  0.00  0.00    +0.000 A 
ATOM     14  C   UNL     1      -3.847  12.978  20.175  0.00  0.00    +0.000 A 
ATOM     15  C   UNL     1      -3.600  12.103  19.132  0.00  0.00    +0.000 A 
ATOM     16  C   UNL     1      -2.377  11.389  19.015  0.00  0.00    +0.000 A 
ATOM     17  C   UNL     1      -1.349  11.613  19.979  0.00  0.00    +0.000 A 
BRANCH  16  18
ATOM     18  C   UNL     1      -2.299  10.563  17.729  0.00  0.00    +0.000 C 
ATOM     19  C   UNL     1      -3.323   9.423  17.772  0.00  0.00    +0.000 C 
ATOM     20  C   UNL     1      -2.324  11.287  16.390  0.00  0.00    +0.000 C 
ENDBRANCH  16  18
ENDBRANCH   7  17
ENDBRANCH   1   8
BRANCH   4  21
ATOM     21  S   UNL     1       2.922   4.891  18.393  0.00  0.00    +0.000 S 
ATOM     22  O   UNL     1       3.250   4.051  19.527  0.00  0.00    +0.000 OA
ATOM     23  O   UNL     1       1.863   4.525  17.478  0.00  0.00    +0.000 OA
BRANCH  21  24
ATOM     24  C   UNL     1       4.428   5.072  17.450  0.00  0.00    +0.000 A 
ATOM     25  C   UNL     1       4.719   4.136  16.454  0.00  0.00    +0.000 A 
ATOM     26  C   UNL     1       5.872   4.288  15.679  0.00  0.00    +0.000 A 
ATOM     27  C   UNL     1       6.713   5.377  15.891  0.00  0.00    +0.000 A 
ATOM     28  C   UNL     1       6.404   6.330  16.863  0.00  0.00    +0.000 A 
ATOM     29  C   UNL     1       5.255   6.185  17.642  0.00  0.00    +0.000 A 
ENDBRANCH  21  24
ENDBRANCH   4  21
TORSDOF 5
ENDMDL
MODEL 8
REMARK VINA RESULT:      -7.0      2.644      3.781
REMARK  Name = 
REMARK  8 active torsions:
REMARK  status: ('A' for Active; 'I' for Inactive)
REMARK    1  A    between atoms: C_1  and  C_2
REMARK    2  A    between atoms: C_6  and  C_7
REMARK    3  A    between atoms: C_7  and  C_8
REMARK    4  A    between atoms: C_7  and  C_9
REMARK    5  A    between atoms: C_10  and  N_11
REMARK    6  A    between atoms: C_12  and  C_14
REMARK    7  A    between atoms: N_17  and  S_18
REMARK    8  A    between atoms: S_18  and  C_21
REMARK                            x       y       z     vdW  Elec       q    Type
REMARK                         _______ _______ _______ _____ _____    ______ ____
ROOT
ATOM      1  C   UNL     1       0.756   9.272  19.381  0.00  0.00    +0.000 C 
ATOM      2  C   UNL     1       1.095   8.161  20.407  0.00  0.00    +0.000 C 
ATOM      3  C   UNL     1       2.351   7.310  20.167  0.00  0.00    +0.000 C 
ATOM      4  N   UNL     1       2.503   6.988  18.723  0.00  0.00    +0.000 NA
ATOM      5  C   UNL     1       2.683   8.253  17.971  0.00  0.00    +0.000 C 
ATOM      6  C   UNL     1       1.382   9.043  17.997  0.00  0.00    +0.000 C 
ENDROOT
BRANCH   1   8
ATOM      7  N   UNL     1       0.550  11.704  18.945  0.00  0.00    +0.000 N 
ATOM      8  C   UNL     1       0.901  10.737  19.902  0.00  0.00    +0.000 C 
ATOM      9  O   UNL     1       1.285  10.980  21.041  0.00  0.00    +0.000 OA
ATOM     10  H   UNL     1       0.562  11.396  17.985  0.00  0.00    +0.000 HD
BRANCH   7  17
ATOM     11  C   UNL     1       2.805  13.546  18.197  0.00  0.00    +0.000 C 
ATOM     12  C   UNL     1       1.476  13.999  18.748  0.00  0.00    +0.000 A 
ATOM     13  C   UNL     1       1.370  15.385  19.014  0.00  0.00    +0.000 A 
ATOM     14  C   UNL     1       0.266  15.913  19.662  0.00  0.00    +0.000 A 
ATOM     15  C   UNL     1      -0.747  15.059  20.058  0.00  0.00    +0.000 A 
ATOM     16  C   UNL     1      -0.692  13.658  19.827  0.00  0.00    +0.000 A 
ATOM     17  C   UNL     1       0.425  13.115  19.122  0.00  0.00    +0.000 A 
BRANCH  16  18
ATOM     18  C   UNL     1      -1.971  12.939  20.262  0.00  0.00    +0.000 C 
ATOM     19  C   UNL     1      -2.885  13.907  21.023  0.00  0.00    +0.000 C 
ATOM     20  C   UNL     1      -2.746  12.131  19.232  0.00  0.00    +0.000 C 
ENDBRANCH  16  18
ENDBRANCH   7  17
ENDBRANCH   1   8
BRANCH   4  21
ATOM     21  S   UNL     1       3.761   5.859  18.364  0.00  0.00    +0.000 S 
ATOM     22  O   UNL     1       4.186   6.074  16.996  0.00  0.00    +0.000 OA
ATOM     23  O   UNL     1       4.710   5.907  19.454  0.00  0.00    +0.000 OA
BRANCH  21  24
ATOM     24  C   UNL     1       2.962   4.263  18.397  0.00  0.00    +0.000 A 
ATOM     25  C   UNL     1       3.753   3.110  18.383  0.00  0.00    +0.000 A 
ATOM     26  C   UNL     1       3.145   1.854  18.451  0.00  0.00    +0.000 A 
ATOM     27  C   UNL     1       1.760   1.758  18.550  0.00  0.00    +0.000 A 
ATOM     28  C   UNL     1       0.972   2.908  18.599  0.00  0.00    +0.000 A 
ATOM     29  C   UNL     1       1.572   4.167  18.530  0.00  0.00    +0.000 A 
ENDBRANCH  21  24
ENDBRANCH   4  21
TORSDOF 5
ENDMDL
MODEL 9
REMARK VINA RESULT:      -7.0      1.703      3.068
REMARK  Name = 
REMARK  8 active torsions:
REMARK  status: ('A' for Active; 'I' for Inactive)
REMARK    1  A    between atoms: C_1  and  C_2
REMARK    2  A    between atoms: C_6  and  C_7
REMARK    3  A    between atoms: C_7  and  C_8
REMARK    4  A    between atoms: C_7  and  C_9
REMARK    5  A    between atoms: C_10  and  N_11
REMARK    6  A    between atoms: C_12  and  C_14
REMARK    7  A    between atoms: N_17  and  S_18
REMARK    8  A    between atoms: S_18  and  C_21
REMARK                            x       y       z     vdW  Elec       q    Type
REMARK                         _______ _______ _______ _____ _____    ______ ____
ROOT
ATOM      1  C   UNL     1       1.588   7.778  18.677  0.00  0.00    +0.000 C 
ATOM      2  C   UNL     1       1.663   6.668  19.756  0.00  0.00    +0.000 C 
ATOM      3  C   UNL     1       3.019   5.990  20.007  0.00  0.00    +0.000 C 
ATOM      4  N   UNL     1       3.738   5.760  18.726  0.00  0.00    +0.000 NA
ATOM      5  C   UNL     1       4.018   7.072  18.095  0.00  0.00    +0.000 C 
ATOM      6  C   UNL     1       2.709   7.695  17.630  0.00  0.00    +0.000 C 
ENDROOT
BRANCH   1   8
ATOM      7  N   UNL     1       0.156   9.333  19.972  0.00  0.00    +0.000 N 
ATOM      8  C   UNL     1       1.334   9.222  19.214  0.00  0.00    +0.000 C 
ATOM      9  O   UNL     1       2.109  10.144  18.978  0.00  0.00    +0.000 OA
ATOM     10  H   UNL     1      -0.531   8.609  19.826  0.00  0.00    +0.000 HD
BRANCH   7  17
ATOM     11  C   UNL     1       0.026   9.208  22.973  0.00  0.00    +0.000 C 
ATOM     12  C   UNL     1      -0.347  10.414  22.149  0.00  0.00    +0.000 A 
ATOM     13  C   UNL     1      -0.891  11.500  22.875  0.00  0.00    +0.000 A 
ATOM     14  C   UNL     1      -1.417  12.608  22.233  0.00  0.00    +0.000 A 
ATOM     15  C   UNL     1      -1.410  12.643  20.851  0.00  0.00    +0.000 A 
ATOM     16  C   UNL     1      -0.886  11.579  20.067  0.00  0.00    +0.000 A 
ATOM     17  C   UNL     1      -0.305  10.454  20.727  0.00  0.00    +0.000 A 
BRANCH  16  18
ATOM     18  C   UNL     1      -0.897  11.891  18.569  0.00  0.00    +0.000 C 
ATOM     19  C   UNL     1      -2.231  11.457  17.951  0.00  0.00    +0.000 C 
ATOM     20  C   UNL     1      -0.492  13.283  18.106  0.00  0.00    +0.000 C 
ENDBRANCH  16  18
ENDBRANCH   7  17
ENDBRANCH   1   8
BRANCH   4  21
ATOM     21  S   UNL     1       5.176   4.812  18.866  0.00  0.00    +0.000 S 
ATOM     22  O   UNL     1       6.165   5.590  19.585  0.00  0.00    +0.000 OA
ATOM     23  O   UNL     1       4.785   3.497  19.327  0.00  0.00    +0.000 OA
BRANCH  21  24
ATOM     24  C   UNL     1       5.782   4.654  17.194  0.00  0.00    +0.000 A 
ATOM     25  C   UNL     1       4.917   4.180  16.203  0.00  0.00    +0.000 A 
ATOM     26  C   UNL     1       5.362   4.089  14.882  0.00  0.00    +0.000 A 
ATOM     27  C   UNL     1       6.656   4.489  14.557  0.00  0.00    +0.000 A 
ATOM     28  C   UNL     1       7.508   4.995  15.540  0.00  0.00    +0.000 A 
ATOM     29  C   UNL     1       7.071   5.087  16.862  0.00  0.00    +0.000 A 
ENDBRANCH  21  24
ENDBRANCH   4  21
TORSDOF 5
ENDMDL
