MODEL 1
REMARK VINA RESULT:      -7.3      0.000      0.000
REMARK  Name = 
REMARK  4 active torsions:
REMARK  status: ('A' for Active; 'I' for Inactive)
REMARK    1  A    between atoms: C_1  and  N_2
REMARK    2  A    between atoms: C_5  and  C_6
REMARK    3  A    between atoms: C_5  and  C_7
REMARK    4  A    between atoms: C_7  and  N_8
REMARK                            x       y       z     vdW  Elec       q    Type
REMARK                         _______ _______ _______ _____ _____    ______ ____
ROOT
ATOM      1  N   UNL     1       2.808   5.777  18.099  0.00  0.00    +0.000 N 
ATOM      2  C   UNL     1       2.408   7.087  18.464  0.00  0.00    +0.000 A 
ATOM      3  C   UNL     1       2.358   8.137  17.528  0.00  0.00    +0.000 A 
ATOM      4  C   UNL     1       1.867   9.402  17.870  0.00  0.00    +0.000 A 
ATOM      5  C   UNL     1       1.421   9.656  19.161  0.00  0.00    +0.000 A 
ATOM      6  C   UNL     1       1.458   8.638  20.110  0.00  0.00    +0.000 A 
ATOM      7  C   UNL     1       1.929   7.363  19.765  0.00  0.00    +0.000 A 
ATOM      8  S   UNL     1       1.898   6.098  21.029  0.00  0.00    +0.000 S 
ATOM      9  C   UNL     1       1.696   4.657  19.990  0.00  0.00    +0.000 A 
ATOM     10  C   UNL     1       1.029   3.550  20.533  0.00  0.00    +0.000 A 
ATOM     11  C   UNL     1       0.811   2.411  19.764  0.00  0.00    +0.000 A 
ATOM     12  C   UNL     1       1.264   2.374  18.451  0.00  0.00    +0.000 A 
ATOM     13  C   UNL     1       1.948   3.470  17.913  0.00  0.00    +0.000 A 
ATOM     14  C   UNL     1       2.193   4.631  18.667  0.00  0.00    +0.000 A 
ENDROOT
BRANCH   1  15
ATOM     15  C   UNL     1       3.920   5.593  17.134  0.00  0.00    +0.000 C 
BRANCH  15  20
ATOM     16  C   UNL     1       7.884   8.321  17.574  0.00  0.00    +0.000 C 
ATOM     17  N   UNL     1       6.938   7.328  17.081  0.00  0.00    +0.000 NA
ATOM     18  C   UNL     1       7.570   6.036  16.836  0.00  0.00    +0.000 C 
ATOM     19  C   UNL     1       6.359   5.137  16.682  0.00  0.00    +0.000 C 
ATOM     20  C   UNL     1       5.349   5.648  17.744  0.00  0.00    +0.000 C 
ATOM     21  C   UNL     1       5.489   4.776  19.005  0.00  0.00    +0.000 C 
ATOM     22  C   UNL     1       5.845   7.081  18.036  0.00  0.00    +0.000 C 
ENDBRANCH  15  20
ENDBRANCH   1  15
TORSDOF 2
ENDMDL
MODEL 2
REMARK VINA RESULT:      -6.9      1.814      4.654
REMARK  Name = 
REMARK  4 active torsions:
REMARK  status: ('A' for Active; 'I' for Inactive)
REMARK    1  A    between atoms: C_1  and  N_2
REMARK    2  A    between atoms: C_5  and  C_6
REMARK    3  A    between atoms: C_5  and  C_7
REMARK    4  A    between atoms: C_7  and  N_8
REMARK                            x       y       z     vdW  Elec       q    Type
REMARK                         _______ _______ _______ _____ _____    ______ ____
ROOT
ATOM      1  N   UNL     1       2.974   6.120  19.795  0.00  0.00    +0.000 N 
ATOM      2  C   UNL     1       2.197   7.306  19.769  0.00  0.00    +0.000 A 
ATOM      3  C   UNL     1       1.550   7.796  20.920  0.00  0.00    +0.000 A 
ATOM      4  C   UNL     1       0.868   9.018  20.913  0.00  0.00    +0.000 A 
ATOM      5  C   UNL     1       0.808   9.781  19.754  0.00  0.00    +0.000 A 
ATOM      6  C   UNL     1       1.437   9.324  18.600  0.00  0.00    +0.000 A 
ATOM      7  C   UNL     1       2.139   8.109  18.608  0.00  0.00    +0.000 A 
ATOM      8  S   UNL     1       2.961   7.617  17.098  0.00  0.00    +0.000 S 
ATOM      9  C   UNL     1       4.306   6.669  17.798  0.00  0.00    +0.000 A 
ATOM     10  C   UNL     1       5.506   6.608  17.075  0.00  0.00    +0.000 A 
ATOM     11  C   UNL     1       6.600   5.913  17.583  0.00  0.00    +0.000 A 
ATOM     12  C   UNL     1       6.495   5.274  18.812  0.00  0.00    +0.000 A 
ATOM     13  C   UNL     1       5.292   5.316  19.526  0.00  0.00    +0.000 A 
ATOM     14  C   UNL     1       4.166   6.001  19.035  0.00  0.00    +0.000 A 
ENDROOT
BRANCH   1  15
ATOM     15  C   UNL     1       2.513   4.961  20.599  0.00  0.00    +0.000 C 
BRANCH  15  20
ATOM     16  C   UNL     1       3.901   1.128  18.006  0.00  0.00    +0.000 C 
ATOM     17  N   UNL     1       3.468   2.474  18.358  0.00  0.00    +0.000 NA
ATOM     18  C   UNL     1       2.370   2.939  17.517  0.00  0.00    +0.000 C 
ATOM     19  C   UNL     1       1.899   4.156  18.289  0.00  0.00    +0.000 C 
ATOM     20  C   UNL     1       2.001   3.742  19.782  0.00  0.00    +0.000 C 
ATOM     21  C   UNL     1       0.614   3.257  20.245  0.00  0.00    +0.000 C 
ATOM     22  C   UNL     1       2.990   2.556  19.748  0.00  0.00    +0.000 C 
ENDBRANCH  15  20
ENDBRANCH   1  15
TORSDOF 2
ENDMDL
MODEL 3
REMARK VINA RESULT:      -6.9      1.087      1.453
REMARK  Name = 
REMARK  4 active torsions:
REMARK  status: ('A' for Active; 'I' for Inactive)
REMARK    1  A    between atoms: C_1  and  N_2
REMARK    2  A    between atoms: C_5  and  C_6
REMARK    3  A    between atoms: C_5  and  C_7
REMARK    4  A    between atoms: C_7  and  N_8
REMARK                            x       y       z     vdW  Elec       q    Type
REMARK                         _______ _______ _______ _____ _____    ______ ____
ROOT
ATOM      1  N   UNL     1       3.130   5.780  17.859  0.00  0.00    +0.000 N 
ATOM      2  C   UNL     1       2.576   6.911  18.510  0.00  0.00    +0.000 A 
ATOM      3  C   UNL     1       2.258   8.090  17.809  0.00  0.00    +0.000 A 
ATOM      4  C   UNL     1       1.620   9.166  18.437  0.00  0.00    +0.000 A 
ATOM      5  C   UNL     1       1.290   9.097  19.785  0.00  0.00    +0.000 A 
ATOM      6  C   UNL     1       1.593   7.945  20.505  0.00  0.00    +0.000 A 
ATOM      7  C   UNL     1       2.213   6.856  19.875  0.00  0.00    +0.000 A 
ATOM      8  S   UNL     1       2.523   5.395  20.859  0.00  0.00    +0.000 S 
ATOM      9  C   UNL     1       2.429   4.157  19.573  0.00  0.00    +0.000 A 
ATOM     10  C   UNL     1       2.007   2.869  19.937  0.00  0.00    +0.000 A 
ATOM     11  C   UNL     1       1.882   1.871  18.975  0.00  0.00    +0.000 A 
ATOM     12  C   UNL     1       2.182   2.155  17.649  0.00  0.00    +0.000 A 
ATOM     13  C   UNL     1       2.622   3.433  17.286  0.00  0.00    +0.000 A 
ATOM     14  C   UNL     1       2.769   4.461  18.235  0.00  0.00    +0.000 A 
ENDROOT
BRANCH   1  15
ATOM     15  C   UNL     1       4.139   5.973  16.788  0.00  0.00    +0.000 C 
BRANCH  15  20
ATOM     16  C   UNL     1       7.650   5.523  20.077  0.00  0.00    +0.000 C 
ATOM     17  N   UNL     1       6.870   6.011  18.947  0.00  0.00    +0.000 NA
ATOM     18  C   UNL     1       7.690   6.220  17.758  0.00  0.00    +0.000 C 
ATOM     19  C   UNL     1       6.627   6.376  16.688  0.00  0.00    +0.000 C 
ATOM     20  C   UNL     1       5.533   5.341  17.063  0.00  0.00    +0.000 C 
ATOM     21  C   UNL     1       5.776   4.060  16.243  0.00  0.00    +0.000 C 
ATOM     22  C   UNL     1       5.808   5.069  18.559  0.00  0.00    +0.000 C 
ENDBRANCH  15  20
ENDBRANCH   1  15
TORSDOF 2
ENDMDL
MODEL 4
REMARK VINA RESULT:      -6.8      1.027      1.107
REMARK  Name = 
REMARK  4 active torsions:
REMARK  status: ('A' for Active; 'I' for Inactive)
REMARK    1  A    between atoms: C_1  and  N_2
REMARK    2  A    between atoms: C_5  and  C_6
REMARK    3  A    between atoms: C_5  and  C_7
REMARK    4  A    between atoms: C_7  and  N_8
REMARK                            x       y       z     vdW  Elec       q    Type
REMARK                         _______ _______ _______ _____ _____    ______ ____
ROOT
ATOM      1  N   UNL     1       2.818   5.744  18.087  0.00  0.00    +0.000 N 
ATOM      2  C   UNL     1       2.463   7.068  18.449  0.00  0.00    +0.000 A 
ATOM      3  C   UNL     1       2.469   8.121  17.514  0.00  0.00    +0.000 A 
ATOM      4  C   UNL     1       2.022   9.404  17.851  0.00  0.00    +0.000 A 
ATOM      5  C   UNL     1       1.564   9.672  19.135  0.00  0.00    +0.000 A 
ATOM      6  C   UNL     1       1.546   8.651  20.082  0.00  0.00    +0.000 A 
ATOM      7  C   UNL     1       1.973   7.359  19.742  0.00  0.00    +0.000 A 
ATOM      8  S   UNL     1       1.872   6.094  21.002  0.00  0.00    +0.000 S 
ATOM      9  C   UNL     1       1.632   4.664  19.956  0.00  0.00    +0.000 A 
ATOM     10  C   UNL     1       0.913   3.583  20.484  0.00  0.00    +0.000 A 
ATOM     11  C   UNL     1       0.664   2.455  19.708  0.00  0.00    +0.000 A 
ATOM     12  C   UNL     1       1.138   2.403  18.403  0.00  0.00    +0.000 A 
ATOM     13  C   UNL     1       1.873   3.473  17.879  0.00  0.00    +0.000 A 
ATOM     14  C   UNL     1       2.149   4.622  18.641  0.00  0.00    +0.000 A 
ENDROOT
BRANCH   1  15
ATOM     15  C   UNL     1       3.938   5.520  17.140  0.00  0.00    +0.000 C 
BRANCH  15  20
ATOM     16  C   UNL     1       8.022   5.794  19.707  0.00  0.00    +0.000 C 
ATOM     17  N   UNL     1       7.098   5.762  18.581  0.00  0.00    +0.000 NA
ATOM     18  C   UNL     1       7.549   4.865  17.522  0.00  0.00    +0.000 C 
ATOM     19  C   UNL     1       6.295   4.750  16.676  0.00  0.00    +0.000 C 
ATOM     20  C   UNL     1       5.130   4.694  17.700  0.00  0.00    +0.000 C 
ATOM     21  C   UNL     1       4.768   3.216  17.940  0.00  0.00    +0.000 C 
ATOM     22  C   UNL     1       5.758   5.297  18.977  0.00  0.00    +0.000 C 
ENDBRANCH  15  20
ENDBRANCH   1  15
TORSDOF 2
ENDMDL
MODEL 5
REMARK VINA RESULT:      -6.3      5.651      8.165
REMARK  Name = 
REMARK  4 active torsions:
REMARK  status: ('A' for Active; 'I' for Inactive)
REMARK    1  A    between atoms: C_1  and  N_2
REMARK    2  A    between atoms: C_5  and  C_6
REMARK    3  A    between atoms: C_5  and  C_7
REMARK    4  A    between atoms: C_7  and  N_8
REMARK                            x       y       z     vdW  Elec       q    Type
REMARK                         _______ _______ _______ _____ _____    ______ ____
ROOT
ATOM      1  N   UNL     1      -1.375  11.616  20.053  0.00  0.00    +0.000 N 
ATOM      2  C   UNL     1      -0.522  10.719  20.744  0.00  0.00    +0.000 A 
ATOM      3  C   UNL     1      -0.502  10.646  22.150  0.00  0.00    +0.000 A 
ATOM      4  C   UNL     1       0.267   9.691  22.825  0.00  0.00    +0.000 A 
ATOM      5  C   UNL     1       1.045   8.787  22.112  0.00  0.00    +0.000 A 
ATOM      6  C   UNL     1       1.047   8.834  20.721  0.00  0.00    +0.000 A 
ATOM      7  C   UNL     1       0.261   9.776  20.041  0.00  0.00    +0.000 A 
ATOM      8  S   UNL     1       0.282   9.737  18.253  0.00  0.00    +0.000 S 
ATOM      9  C   UNL     1      -1.361  10.365  17.932  0.00  0.00    +0.000 A 
ATOM     10  C   UNL     1      -1.999   9.949  16.754  0.00  0.00    +0.000 A 
ATOM     11  C   UNL     1      -3.292  10.376  16.465  0.00  0.00    +0.000 A 
ATOM     12  C   UNL     1      -3.948  11.224  17.349  0.00  0.00    +0.000 A 
ATOM     13  C   UNL     1      -3.306  11.656  18.515  0.00  0.00    +0.000 A 
ATOM     14  C   UNL     1      -1.997  11.251  18.831  0.00  0.00    +0.000 A 
ENDROOT
BRANCH   1  15
ATOM     15  C   UNL     1      -1.594  12.980  20.593  0.00  0.00    +0.000 C 
BRANCH  15  20
ATOM     16  C   UNL     1       2.641  13.597  18.352  0.00  0.00    +0.000 C 
ATOM     17  N   UNL     1       1.652  13.368  19.396  0.00  0.00    +0.000 NA
ATOM     18  C   UNL     1       1.887  14.200  20.572  0.00  0.00    +0.000 C 
ATOM     19  C   UNL     1       0.579  14.035  21.320  0.00  0.00    +0.000 C 
ATOM     20  C   UNL     1      -0.511  14.029  20.215  0.00  0.00    +0.000 C 
ATOM     21  C   UNL     1      -1.083  15.455  20.092  0.00  0.00    +0.000 C 
ATOM     22  C   UNL     1       0.285  13.670  18.941  0.00  0.00    +0.000 C 
ENDBRANCH  15  20
ENDBRANCH   1  15
TORSDOF 2
ENDMDL
MODEL 6
REMARK VINA RESULT:      -6.2      1.606      2.219
REMARK  Name = 
REMARK  4 active torsions:
REMARK  status: ('A' for Active; 'I' for Inactive)
REMARK    1  A    between atoms: C_1  and  N_2
REMARK    2  A    between atoms: C_5  and  C_6
REMARK    3  A    between atoms: C_5  and  C_7
REMARK    4  A    between atoms: C_7  and  N_8
REMARK                            x       y       z     vdW  Elec       q    Type
REMARK                         _______ _______ _______ _____ _____    ______ ____
ROOT
ATOM      1  N   UNL     1       4.185   5.380  18.853  0.00  0.00    +0.000 N 
ATOM      2  C   UNL     1       3.410   6.565  18.779  0.00  0.00    +0.000 A 
ATOM      3  C   UNL     1       3.758   7.629  17.925  0.00  0.00    +0.000 A 
ATOM      4  C   UNL     1       2.937   8.753  17.781  0.00  0.00    +0.000 A 
ATOM      5  C   UNL     1       1.748   8.848  18.493  0.00  0.00    +0.000 A 
ATOM      6  C   UNL     1       1.376   7.813  19.346  0.00  0.00    +0.000 A 
ATOM      7  C   UNL     1       2.186   6.676  19.477  0.00  0.00    +0.000 A 
ATOM      8  S   UNL     1       1.612   5.369  20.555  0.00  0.00    +0.000 S 
ATOM      9  C   UNL     1       2.372   3.970  19.742  0.00  0.00    +0.000 A 
ATOM     10  C   UNL     1       1.733   2.726  19.850  0.00  0.00    +0.000 A 
ATOM     11  C   UNL     1       2.258   1.606  19.212  0.00  0.00    +0.000 A 
ATOM     12  C   UNL     1       3.425   1.725  18.468  0.00  0.00    +0.000 A 
ATOM     13  C   UNL     1       4.076   2.961  18.375  0.00  0.00    +0.000 A 
ATOM     14  C   UNL     1       3.577   4.109  19.017  0.00  0.00    +0.000 A 
ENDROOT
BRANCH   1  15
ATOM     15  C   UNL     1       5.665   5.470  18.801  0.00  0.00    +0.000 C 
BRANCH  15  20
ATOM     16  C   UNL     1       5.281   4.234  14.146  0.00  0.00    +0.000 C 
ATOM     17  N   UNL     1       5.709   4.256  15.538  0.00  0.00    +0.000 NA
ATOM     18  C   UNL     1       7.162   4.217  15.670  0.00  0.00    +0.000 C 
ATOM     19  C   UNL     1       7.338   4.594  17.128  0.00  0.00    +0.000 C 
ATOM     20  C   UNL     1       6.270   5.690  17.386  0.00  0.00    +0.000 C 
ATOM     21  C   UNL     1       6.945   7.067  17.237  0.00  0.00    +0.000 C 
ATOM     22  C   UNL     1       5.261   5.472  16.237  0.00  0.00    +0.000 C 
ENDBRANCH  15  20
ENDBRANCH   1  15
TORSDOF 2
ENDMDL
MODEL 7
REMARK VINA RESULT:      -6.1      5.984      8.690
REMARK  Name = 
REMARK  4 active torsions:
REMARK  status: ('A' for Active; 'I' for Inactive)
REMARK    1  A    between atoms: C_1  and  N_2
REMARK    2  A    between atoms: C_5  and  C_6
REMARK    3  A    between atoms: C_5  and  C_7
REMARK    4  A    between atoms: C_7  and  N_8
REMARK                            x       y       z     vdW  Elec       q    Type
REMARK                         _______ _______ _______ _____ _____    ______ ____
ROOT
ATOM      1  N   UNL     1      -1.512  11.732  20.241  0.00  0.00    +0.000 N 
ATOM      2  C   UNL     1      -0.671  10.842  20.956  0.00  0.00    +0.000 A 
ATOM      3  C   UNL     1      -0.723  10.735  22.359  0.00  0.00    +0.000 A 
ATOM      4  C   UNL     1       0.037   9.785  23.051  0.00  0.00    +0.000 A 
ATOM      5  C   UNL     1       0.877   8.921  22.360  0.00  0.00    +0.000 A 
ATOM      6  C   UNL     1       0.952   9.003  20.972  0.00  0.00    +0.000 A 
ATOM      7  C   UNL     1       0.176   9.939  20.273  0.00  0.00    +0.000 A 
ATOM      8  S   UNL     1       0.292   9.946  18.489  0.00  0.00    +0.000 S 
ATOM      9  C   UNL     1      -1.349  10.535  18.095  0.00  0.00    +0.000 A 
ATOM     10  C   UNL     1      -1.912  10.131  16.876  0.00  0.00    +0.000 A 
ATOM     11  C   UNL     1      -3.199  10.529  16.527  0.00  0.00    +0.000 A 
ATOM     12  C   UNL     1      -3.926  11.336  17.394  0.00  0.00    +0.000 A 
ATOM     13  C   UNL     1      -3.359  11.757  18.603  0.00  0.00    +0.000 A 
ATOM     14  C   UNL     1      -2.057  11.380  18.979  0.00  0.00    +0.000 A 
ENDROOT
BRANCH   1  15
ATOM     15  C   UNL     1      -1.800  13.075  20.801  0.00  0.00    +0.000 C 
BRANCH  15  20
ATOM     16  C   UNL     1      -0.267  16.987  18.414  0.00  0.00    +0.000 C 
ATOM     17  N   UNL     1      -0.464  15.598  18.807  0.00  0.00    +0.000 NA
ATOM     18  C   UNL     1       0.792  14.859  18.873  0.00  0.00    +0.000 C 
ATOM     19  C   UNL     1       0.362  13.607  19.614  0.00  0.00    +0.000 C 
ATOM     20  C   UNL     1      -0.642  14.107  20.686  0.00  0.00    +0.000 C 
ATOM     21  C   UNL     1       0.120  14.294  22.012  0.00  0.00    +0.000 C 
ATOM     22  C   UNL     1      -1.086  15.481  20.136  0.00  0.00    +0.000 C 
ENDBRANCH  15  20
ENDBRANCH   1  15
TORSDOF 2
ENDMDL
MODEL 8
REMARK VINA RESULT:      -6.1      4.407      8.257
REMARK  Name = 
REMARK  4 active torsions:
REMARK  status: ('A' for Active; 'I' for Inactive)
REMARK    1  A    between atoms: C_1  and  N_2
REMARK    2  A    between atoms: C_5  and  C_6
REMARK    3  A    between atoms: C_5  and  C_7
REMARK    4  A    between atoms: C_7  and  N_8
REMARK                            x       y       z     vdW  Elec       q    Type
REMARK                         _______ _______ _______ _____ _____    ______ ____
ROOT
ATOM      1  N   UNL     1      -0.368  10.907  19.221  0.00  0.00    +0.000 N 
ATOM      2  C   UNL     1       0.551   9.835  19.099  0.00  0.00    +0.000 A 
ATOM      3  C   UNL     1       1.437   9.735  18.009  0.00  0.00    +0.000 A 
ATOM      4  C   UNL     1       2.410   8.731  17.944  0.00  0.00    +0.000 A 
ATOM      5  C   UNL     1       2.520   7.794  18.963  0.00  0.00    +0.000 A 
ATOM      6  C   UNL     1       1.659   7.866  20.055  0.00  0.00    +0.000 A 
ATOM      7  C   UNL     1       0.696   8.883  20.134  0.00  0.00    +0.000 A 
ATOM      8  S   UNL     1      -0.338   8.934  21.592  0.00  0.00    +0.000 S 
ATOM      9  C   UNL     1      -0.658  10.692  21.657  0.00  0.00    +0.000 A 
ATOM     10  C   UNL     1      -0.894  11.266  22.915  0.00  0.00    +0.000 A 
ATOM     11  C   UNL     1      -1.116  12.635  23.034  0.00  0.00    +0.000 A 
ATOM     12  C   UNL     1      -1.108  13.433  21.897  0.00  0.00    +0.000 A 
ATOM     13  C   UNL     1      -0.892  12.860  20.638  0.00  0.00    +0.000 A 
ATOM     14  C   UNL     1      -0.674  11.479  20.483  0.00  0.00    +0.000 A 
ENDROOT
BRANCH   1  15
ATOM     15  C   UNL     1      -1.059  11.419  18.012  0.00  0.00    +0.000 C 
BRANCH  15  20
ATOM     16  C   UNL     1      -3.760  10.094  14.231  0.00  0.00    +0.000 C 
ATOM     17  N   UNL     1      -3.263  10.841  15.379  0.00  0.00    +0.000 NA
ATOM     18  C   UNL     1      -4.327  11.191  16.314  0.00  0.00    +0.000 C 
ATOM     19  C   UNL     1      -3.526  11.625  17.527  0.00  0.00    +0.000 C 
ATOM     20  C   UNL     1      -2.333  10.635  17.588  0.00  0.00    +0.000 C 
ATOM     21  C   UNL     1      -2.690   9.507  18.574  0.00  0.00    +0.000 C 
ATOM     22  C   UNL     1      -2.269  10.076  16.149  0.00  0.00    +0.000 C 
ENDBRANCH  15  20
ENDBRANCH   1  15
TORSDOF 2
ENDMDL
MODEL 9
REMARK VINA RESULT:      -6.1      6.803      9.439
REMARK  Name = 
REMARK  4 active torsions:
REMARK  status: ('A' for Active; 'I' for Inactive)
REMARK    1  A    between atoms: C_1  and  N_2
REMARK    2  A    between atoms: C_5  and  C_6
REMARK    3  A    between atoms: C_5  and  C_7
REMARK    4  A    between atoms: C_7  and  N_8
REMARK                            x       y       z     vdW  Elec       q    Type
REMARK                         _______ _______ _______ _____ _____    ______ ____
ROOT
ATOM      1  N   UNL     1      -0.991  13.013  19.410  0.00  0.00    +0.000 N 
ATOM      2  C   UNL     1      -1.645  11.928  18.774  0.00  0.00    +0.000 A 
ATOM      3  C   UNL     1      -3.019  11.966  18.467  0.00  0.00    +0.000 A 
ATOM      4  C   UNL     1      -3.638  10.936  17.749  0.00  0.00    +0.000 A 
ATOM      5  C   UNL     1      -2.903   9.835  17.326  0.00  0.00    +0.000 A 
ATOM      6  C   UNL     1      -1.543   9.769  17.615  0.00  0.00    +0.000 A 
ATOM      7  C   UNL     1      -0.914  10.809  18.315  0.00  0.00    +0.000 A 
ATOM      8  S   UNL     1       0.846  10.670  18.602  0.00  0.00    +0.000 S 
ATOM      9  C   UNL     1       1.269  12.406  18.642  0.00  0.00    +0.000 A 
ATOM     10  C   UNL     1       2.562  12.772  18.239  0.00  0.00    +0.000 A 
ATOM     11  C   UNL     1       2.941  14.111  18.217  0.00  0.00    +0.000 A 
ATOM     12  C   UNL     1       2.031  15.087  18.602  0.00  0.00    +0.000 A 
ATOM     13  C   UNL     1       0.747  14.724  19.024  0.00  0.00    +0.000 A 
ATOM     14  C   UNL     1       0.337  13.379  19.067  0.00  0.00    +0.000 A 
ENDROOT
BRANCH   1  15
ATOM     15  C   UNL     1      -1.688  13.759  20.486  0.00  0.00    +0.000 C 
BRANCH  15  20
ATOM     16  C   UNL     1      -0.435   9.960  23.196  0.00  0.00    +0.000 C 
ATOM     17  N   UNL     1      -1.240  10.968  22.519  0.00  0.00    +0.000 NA
ATOM     18  C   UNL     1      -2.234  11.567  23.404  0.00  0.00    +0.000 C 
ATOM     19  C   UNL     1      -2.669  12.771  22.590  0.00  0.00    +0.000 C 
ATOM     20  C   UNL     1      -1.364  13.299  21.936  0.00  0.00    +0.000 C 
ATOM     21  C   UNL     1      -0.811  14.439  22.811  0.00  0.00    +0.000 C 
ATOM     22  C   UNL     1      -0.421  12.077  22.004  0.00  0.00    +0.000 C 
ENDBRANCH  15  20
ENDBRANCH   1  15
TORSDOF 2
ENDMDL
