MODEL 1
REMARK VINA RESULT:      -7.6      0.000      0.000
REMARK  Name = 
REMARK  12 active torsions:
REMARK  status: ('A' for Active; 'I' for Inactive)
REMARK    1  A    between atoms: C_1  and  C_2
REMARK    2  A    between atoms: C_2  and  C_3
REMARK    3  A    between atoms: C_2  and  C_4
REMARK    4  A    between atoms: C_2  and  C_6
REMARK    5  A    between atoms: C_4  and  O_5
REMARK    6  A    between atoms: C_6  and  O_7
REMARK    7  A    between atoms: C_6  and  C_8
REMARK    8  A    between atoms: N_10  and  C_11
REMARK    9  A    between atoms: C_11  and  C_12
REMARK   10  A    between atoms: N_14  and  C_15
REMARK   11  A    between atoms: C_15  and  C_16
REMARK   12  A    between atoms: C_16  and  C_17
REMARK                            x       y       z     vdW  Elec       q    Type
REMARK                         _______ _______ _______ _____ _____    ______ ____
ROOT
ATOM      1  C   UNL     1       7.230   4.708  18.255  0.00  0.00    +0.000 C 
ENDROOT
BRANCH   1   2
ATOM      2  C   UNL     1       7.275   6.153  17.935  0.00  0.00    +0.000 A 
ATOM      3  C   UNL     1       8.036   7.142  18.516  0.00  0.00    +0.000 A 
ATOM      4  N   UNL     1       7.759   8.252  17.779  0.00  0.00    +0.000 N 
ATOM      5  N   UNL     1       6.824   7.993  16.847  0.00  0.00    +0.000 NA
ATOM      6  N   UNL     1       6.524   6.703  16.928  0.00  0.00    +0.000 NA
BRANCH   4   7
ATOM      7  C   UNL     1       8.365   9.565  17.868  0.00  0.00    +0.000 C 
BRANCH   7   8
ATOM      8  C   UNL     1       9.128   9.771  19.175  0.00  0.00    +0.000 C 
BRANCH   8   9
ATOM      9  C   UNL     1      10.077  10.939  19.115  0.00  0.00    +0.000 A 
ATOM     10  C   UNL     1      10.613  11.347  17.886  0.00  0.00    +0.000 A 
ATOM     11  C   UNL     1      11.489  12.430  17.824  0.00  0.00    +0.000 A 
ATOM     12  C   UNL     1      11.839  13.111  18.988  0.00  0.00    +0.000 A 
ATOM     13  C   UNL     1      11.312  12.710  20.215  0.00  0.00    +0.000 A 
ATOM     14  C   UNL     1      10.434  11.627  20.280  0.00  0.00    +0.000 A 
ENDBRANCH   8   9
ENDBRANCH   7   8
ENDBRANCH   4   7
ENDBRANCH   1   2
BRANCH   1  17
ATOM     15  C   UNL     1       4.898   3.915  18.447  0.00  0.00    +0.000 C 
ATOM     16  O   UNL     1       4.785   3.677  17.248  0.00  0.00    +0.000 OA
ATOM     17  N   UNL     1       6.044   4.414  19.022  0.00  0.00    +0.000 N 
ATOM     18  H   UNL     1       6.112   4.457  20.033  0.00  0.00    +0.000 HD
BRANCH  15  19
ATOM     19  C   UNL     1       3.720   3.703  19.421  0.00  0.00    +0.000 C 
BRANCH  19  21
ATOM     20  C   UNL     1       1.749   4.259  17.953  0.00  0.00    +0.000 C 
ATOM     21  C   UNL     1       2.560   4.715  19.186  0.00  0.00    +0.000 C 
ATOM     22  C   UNL     1       3.094   6.131  18.891  0.00  0.00    +0.000 C 
BRANCH  21  23
ATOM     23  C   UNL     1       1.620   4.786  20.408  0.00  0.00    +0.000 C 
BRANCH  23  24
ATOM     24  O   UNL     1       0.665   3.729  20.383  0.00  0.00    +0.000 OA
ATOM     25  H   UNL     1       0.554   3.415  21.297  0.00  0.00    +0.000 HD
ENDBRANCH  23  24
ENDBRANCH  21  23
ENDBRANCH  19  21
BRANCH  19  26
ATOM     26  O   UNL     1       3.236   2.362  19.295  0.00  0.00    +0.000 OA
ATOM     27  H   UNL     1       2.542   2.259  19.975  0.00  0.00    +0.000 HD
ENDBRANCH  19  26
ENDBRANCH  15  19
ENDBRANCH   1  17
TORSDOF 10
ENDMDL
MODEL 2
REMARK VINA RESULT:      -7.5      1.223      1.635
REMARK  Name = 
REMARK  12 active torsions:
REMARK  status: ('A' for Active; 'I' for Inactive)
REMARK    1  A    between atoms: C_1  and  C_2
REMARK    2  A    between atoms: C_2  and  C_3
REMARK    3  A    between atoms: C_2  and  C_4
REMARK    4  A    between atoms: C_2  and  C_6
REMARK    5  A    between atoms: C_4  and  O_5
REMARK    6  A    between atoms: C_6  and  O_7
REMARK    7  A    between atoms: C_6  and  C_8
REMARK    8  A    between atoms: N_10  and  C_11
REMARK    9  A    between atoms: C_11  and  C_12
REMARK   10  A    between atoms: N_14  and  C_15
REMARK   11  A    between atoms: C_15  and  C_16
REMARK   12  A    between atoms: C_16  and  C_17
REMARK                            x       y       z     vdW  Elec       q    Type
REMARK                         _______ _______ _______ _____ _____    ______ ____
ROOT
ATOM      1  C   UNL     1       6.179   4.236  16.394  0.00  0.00    +0.000 C 
ENDROOT
BRANCH   1   2
ATOM      2  C   UNL     1       6.595   5.579  16.857  0.00  0.00    +0.000 A 
ATOM      3  C   UNL     1       7.523   5.914  17.816  0.00  0.00    +0.000 A 
ATOM      4  N   UNL     1       7.579   7.272  17.768  0.00  0.00    +0.000 N 
ATOM      5  N   UNL     1       6.685   7.762  16.890  0.00  0.00    +0.000 NA
ATOM      6  N   UNL     1       6.078   6.730  16.317  0.00  0.00    +0.000 NA
BRANCH   4   7
ATOM      7  C   UNL     1       8.474   8.161  18.481  0.00  0.00    +0.000 C 
BRANCH   7   8
ATOM      8  C   UNL     1       8.307   9.621  18.063  0.00  0.00    +0.000 C 
BRANCH   8   9
ATOM      9  C   UNL     1       9.364  10.517  18.650  0.00  0.00    +0.000 A 
ATOM     10  C   UNL     1      10.297  11.147  17.813  0.00  0.00    +0.000 A 
ATOM     11  C   UNL     1      11.275  11.982  18.351  0.00  0.00    +0.000 A 
ATOM     12  C   UNL     1      11.333  12.191  19.727  0.00  0.00    +0.000 A 
ATOM     13  C   UNL     1      10.411  11.567  20.566  0.00  0.00    +0.000 A 
ATOM     14  C   UNL     1       9.430  10.732  20.031  0.00  0.00    +0.000 A 
ENDBRANCH   8   9
ENDBRANCH   7   8
ENDBRANCH   4   7
ENDBRANCH   1   2
BRANCH   1  17
ATOM     15  C   UNL     1       4.171   3.412  17.573  0.00  0.00    +0.000 C 
ATOM     16  O   UNL     1       3.386   3.899  16.763  0.00  0.00    +0.000 OA
ATOM     17  N   UNL     1       5.538   3.524  17.473  0.00  0.00    +0.000 N 
ATOM     18  H   UNL     1       6.126   2.984  18.099  0.00  0.00    +0.000 HD
BRANCH  15  19
ATOM     19  C   UNL     1       3.669   2.650  18.817  0.00  0.00    +0.000 C 
BRANCH  19  21
ATOM     20  C   UNL     1       3.264   4.881  19.917  0.00  0.00    +0.000 C 
ATOM     21  C   UNL     1       2.660   3.482  19.662  0.00  0.00    +0.000 C 
ATOM     22  C   UNL     1       2.401   2.833  21.037  0.00  0.00    +0.000 C 
BRANCH  21  23
ATOM     23  C   UNL     1       1.311   3.641  18.930  0.00  0.00    +0.000 C 
BRANCH  23  24
ATOM     24  O   UNL     1       0.549   2.439  18.992  0.00  0.00    +0.000 OA
ATOM     25  H   UNL     1       0.085   2.433  19.847  0.00  0.00    +0.000 HD
ENDBRANCH  23  24
ENDBRANCH  21  23
ENDBRANCH  19  21
BRANCH  19  26
ATOM     26  O   UNL     1       3.069   1.417  18.408  0.00  0.00    +0.000 OA
ATOM     27  H   UNL     1       2.774   0.974  19.228  0.00  0.00    +0.000 HD
ENDBRANCH  19  26
ENDBRANCH  15  19
ENDBRANCH   1  17
TORSDOF 10
ENDMDL
MODEL 3
REMARK VINA RESULT:      -7.5      1.465      2.020
REMARK  Name = 
REMARK  12 active torsions:
REMARK  status: ('A' for Active; 'I' for Inactive)
REMARK    1  A    between atoms: C_1  and  C_2
REMARK    2  A    between atoms: C_2  and  C_3
REMARK    3  A    between atoms: C_2  and  C_4
REMARK    4  A    between atoms: C_2  and  C_6
REMARK    5  A    between atoms: C_4  and  O_5
REMARK    6  A    between atoms: C_6  and  O_7
REMARK    7  A    between atoms: C_6  and  C_8
REMARK    8  A    between atoms: N_10  and  C_11
REMARK    9  A    between atoms: C_11  and  C_12
REMARK   10  A    between atoms: N_14  and  C_15
REMARK   11  A    between atoms: C_15  and  C_16
REMARK   12  A    between atoms: C_16  and  C_17
REMARK                            x       y       z     vdW  Elec       q    Type
REMARK                         _______ _______ _______ _____ _____    ______ ____
ROOT
ATOM      1  C   UNL     1       6.353   5.041  17.207  0.00  0.00    +0.000 C 
ENDROOT
BRANCH   1   2
ATOM      2  C   UNL     1       7.151   6.195  17.681  0.00  0.00    +0.000 A 
ATOM      3  C   UNL     1       7.240   7.460  17.147  0.00  0.00    +0.000 A 
ATOM      4  N   UNL     1       8.026   8.138  18.026  0.00  0.00    +0.000 N 
ATOM      5  N   UNL     1       8.467   7.328  19.005  0.00  0.00    +0.000 NA
ATOM      6  N   UNL     1       7.929   6.131  18.808  0.00  0.00    +0.000 NA
BRANCH   4   7
ATOM      7  C   UNL     1       8.364   9.547  18.029  0.00  0.00    +0.000 C 
BRANCH   7   8
ATOM      8  C   UNL     1       9.084   9.976  19.306  0.00  0.00    +0.000 C 
BRANCH   8   9
ATOM      9  C   UNL     1      10.113  11.047  19.061  0.00  0.00    +0.000 A 
ATOM     10  C   UNL     1      10.793  11.629  20.141  0.00  0.00    +0.000 A 
ATOM     11  C   UNL     1      11.750  12.619  19.919  0.00  0.00    +0.000 A 
ATOM     12  C   UNL     1      12.032  13.038  18.620  0.00  0.00    +0.000 A 
ATOM     13  C   UNL     1      11.359  12.465  17.542  0.00  0.00    +0.000 A 
ATOM     14  C   UNL     1      10.401  11.474  17.760  0.00  0.00    +0.000 A 
ENDBRANCH   8   9
ENDBRANCH   7   8
ENDBRANCH   4   7
ENDBRANCH   1   2
BRANCH   1  17
ATOM     15  C   UNL     1       4.695   4.457  18.941  0.00  0.00    +0.000 C 
ATOM     16  O   UNL     1       5.486   3.788  19.601  0.00  0.00    +0.000 OA
ATOM     17  N   UNL     1       5.027   5.099  17.772  0.00  0.00    +0.000 N 
ATOM     18  H   UNL     1       4.363   5.743  17.355  0.00  0.00    +0.000 HD
BRANCH  15  19
ATOM     19  C   UNL     1       3.218   4.600  19.366  0.00  0.00    +0.000 C 
BRANCH  19  21
ATOM     20  C   UNL     1       2.878   2.243  18.540  0.00  0.00    +0.000 C 
ATOM     21  C   UNL     1       2.551   3.229  19.684  0.00  0.00    +0.000 C 
ATOM     22  C   UNL     1       1.016   3.351  19.765  0.00  0.00    +0.000 C 
BRANCH  21  23
ATOM     23  C   UNL     1       3.071   2.646  21.015  0.00  0.00    +0.000 C 
BRANCH  23  24
ATOM     24  O   UNL     1       2.336   3.160  22.121  0.00  0.00    +0.000 OA
ATOM     25  H   UNL     1       1.457   3.416  21.793  0.00  0.00    +0.000 HD
ENDBRANCH  23  24
ENDBRANCH  21  23
ENDBRANCH  19  21
BRANCH  19  26
ATOM     26  O   UNL     1       3.134   5.463  20.505  0.00  0.00    +0.000 OA
ATOM     27  H   UNL     1       2.780   4.916  21.234  0.00  0.00    +0.000 HD
ENDBRANCH  19  26
ENDBRANCH  15  19
ENDBRANCH   1  17
TORSDOF 10
ENDMDL
MODEL 4
REMARK VINA RESULT:      -7.4      1.336      2.106
REMARK  Name = 
REMARK  12 active torsions:
REMARK  status: ('A' for Active; 'I' for Inactive)
REMARK    1  A    between atoms: C_1  and  C_2
REMARK    2  A    between atoms: C_2  and  C_3
REMARK    3  A    between atoms: C_2  and  C_4
REMARK    4  A    between atoms: C_2  and  C_6
REMARK    5  A    between atoms: C_4  and  O_5
REMARK    6  A    between atoms: C_6  and  O_7
REMARK    7  A    between atoms: C_6  and  C_8
REMARK    8  A    between atoms: N_10  and  C_11
REMARK    9  A    between atoms: C_11  and  C_12
REMARK   10  A    between atoms: N_14  and  C_15
REMARK   11  A    between atoms: C_15  and  C_16
REMARK   12  A    between atoms: C_16  and  C_17
REMARK                            x       y       z     vdW  Elec       q    Type
REMARK                         _______ _______ _______ _____ _____    ______ ____
ROOT
ATOM      1  C   UNL     1       5.774   4.424  17.631  0.00  0.00    +0.000 C 
ENDROOT
BRANCH   1   2
ATOM      2  C   UNL     1       6.502   5.713  17.642  0.00  0.00    +0.000 A 
ATOM      3  C   UNL     1       7.224   6.288  18.662  0.00  0.00    +0.000 A 
ATOM      4  N   UNL     1       7.756   7.409  18.105  0.00  0.00    +0.000 N 
ATOM      5  N   UNL     1       7.328   7.569  16.839  0.00  0.00    +0.000 NA
ATOM      6  N   UNL     1       6.563   6.528  16.540  0.00  0.00    +0.000 NA
BRANCH   4   7
ATOM      7  C   UNL     1       8.699   8.342  18.686  0.00  0.00    +0.000 C 
BRANCH   7   8
ATOM      8  C   UNL     1       8.540   9.759  18.135  0.00  0.00    +0.000 C 
BRANCH   8   9
ATOM      9  C   UNL     1       9.550  10.719  18.703  0.00  0.00    +0.000 A 
ATOM     10  C   UNL     1       9.640  10.908  20.090  0.00  0.00    +0.000 A 
ATOM     11  C   UNL     1      10.576  11.794  20.621  0.00  0.00    +0.000 A 
ATOM     12  C   UNL     1      11.427  12.500  19.774  0.00  0.00    +0.000 A 
ATOM     13  C   UNL     1      11.343  12.320  18.394  0.00  0.00    +0.000 A 
ATOM     14  C   UNL     1      10.408  11.433  17.859  0.00  0.00    +0.000 A 
ENDBRANCH   8   9
ENDBRANCH   7   8
ENDBRANCH   4   7
ENDBRANCH   1   2
BRANCH   1  17
ATOM     15  C   UNL     1       3.386   4.361  18.261  0.00  0.00    +0.000 C 
ATOM     16  O   UNL     1       2.991   4.246  17.104  0.00  0.00    +0.000 OA
ATOM     17  N   UNL     1       4.714   4.453  18.609  0.00  0.00    +0.000 N 
ATOM     18  H   UNL     1       4.973   4.408  19.589  0.00  0.00    +0.000 HD
BRANCH  15  19
ATOM     19  C   UNL     1       2.396   4.452  19.441  0.00  0.00    +0.000 C 
BRANCH  19  21
ATOM     20  C   UNL     1       0.516   2.810  19.094  0.00  0.00    +0.000 C 
ATOM     21  C   UNL     1       1.834   3.061  19.859  0.00  0.00    +0.000 C 
ATOM     22  C   UNL     1       1.511   3.010  21.367  0.00  0.00    +0.000 C 
BRANCH  21  23
ATOM     23  C   UNL     1       2.831   1.930  19.529  0.00  0.00    +0.000 C 
BRANCH  23  24
ATOM     24  O   UNL     1       2.498   1.297  18.297  0.00  0.00    +0.000 OA
ATOM     25  H   UNL     1       2.553   0.336  18.440  0.00  0.00    +0.000 HD
ENDBRANCH  23  24
ENDBRANCH  21  23
ENDBRANCH  19  21
BRANCH  19  26
ATOM     26  O   UNL     1       3.042   5.076  20.556  0.00  0.00    +0.000 OA
ATOM     27  H   UNL     1       2.609   5.945  20.669  0.00  0.00    +0.000 HD
ENDBRANCH  19  26
ENDBRANCH  15  19
ENDBRANCH   1  17
TORSDOF 10
ENDMDL
MODEL 5
REMARK VINA RESULT:      -7.3      1.332      1.882
REMARK  Name = 
REMARK  12 active torsions:
REMARK  status: ('A' for Active; 'I' for Inactive)
REMARK    1  A    between atoms: C_1  and  C_2
REMARK    2  A    between atoms: C_2  and  C_3
REMARK    3  A    between atoms: C_2  and  C_4
REMARK    4  A    between atoms: C_2  and  C_6
REMARK    5  A    between atoms: C_4  and  O_5
REMARK    6  A    between atoms: C_6  and  O_7
REMARK    7  A    between atoms: C_6  and  C_8
REMARK    8  A    between atoms: N_10  and  C_11
REMARK    9  A    between atoms: C_11  and  C_12
REMARK   10  A    between atoms: N_14  and  C_15
REMARK   11  A    between atoms: C_15  and  C_16
REMARK   12  A    between atoms: C_16  and  C_17
REMARK                            x       y       z     vdW  Elec       q    Type
REMARK                         _______ _______ _______ _____ _____    ______ ____
ROOT
ATOM      1  C   UNL     1       5.939   4.432  17.528  0.00  0.00    +0.000 C 
ENDROOT
BRANCH   1   2
ATOM      2  C   UNL     1       6.590   5.760  17.597  0.00  0.00    +0.000 A 
ATOM      3  C   UNL     1       7.378   6.284  18.596  0.00  0.00    +0.000 A 
ATOM      4  N   UNL     1       7.786   7.485  18.103  0.00  0.00    +0.000 N 
ATOM      5  N   UNL     1       7.224   7.732  16.906  0.00  0.00    +0.000 NA
ATOM      6  N   UNL     1       6.493   6.675  16.580  0.00  0.00    +0.000 NA
BRANCH   4   7
ATOM      7  C   UNL     1       8.728   8.421  18.682  0.00  0.00    +0.000 C 
BRANCH   7   8
ATOM      8  C   UNL     1       8.663   9.800  18.028  0.00  0.00    +0.000 C 
BRANCH   8   9
ATOM      9  C   UNL     1       9.569  10.802  18.693  0.00  0.00    +0.000 A 
ATOM     10  C   UNL     1       9.540  10.961  20.086  0.00  0.00    +0.000 A 
ATOM     11  C   UNL     1      10.380  11.884  20.707  0.00  0.00    +0.000 A 
ATOM     12  C   UNL     1      11.252  12.657  19.944  0.00  0.00    +0.000 A 
ATOM     13  C   UNL     1      11.286  12.506  18.558  0.00  0.00    +0.000 A 
ATOM     14  C   UNL     1      10.447  11.582  17.933  0.00  0.00    +0.000 A 
ENDBRANCH   8   9
ENDBRANCH   7   8
ENDBRANCH   4   7
ENDBRANCH   1   2
BRANCH   1  17
ATOM     15  C   UNL     1       3.697   3.470  17.916  0.00  0.00    +0.000 C 
ATOM     16  O   UNL     1       4.023   2.339  17.564  0.00  0.00    +0.000 OA
ATOM     17  N   UNL     1       4.559   4.542  17.931  0.00  0.00    +0.000 N 
ATOM     18  H   UNL     1       4.260   5.411  18.361  0.00  0.00    +0.000 HD
BRANCH  15  19
ATOM     19  C   UNL     1       2.250   3.792  18.342  0.00  0.00    +0.000 C 
BRANCH  19  21
ATOM     20  C   UNL     1       0.640   3.221  20.196  0.00  0.00    +0.000 C 
ATOM     21  C   UNL     1       2.058   3.751  19.888  0.00  0.00    +0.000 C 
ATOM     22  C   UNL     1       2.173   5.157  20.510  0.00  0.00    +0.000 C 
BRANCH  21  23
ATOM     23  C   UNL     1       3.097   2.828  20.558  0.00  0.00    +0.000 C 
BRANCH  23  24
ATOM     24  O   UNL     1       2.728   2.532  21.902  0.00  0.00    +0.000 OA
ATOM     25  H   UNL     1       3.257   3.106  22.483  0.00  0.00    +0.000 HD
ENDBRANCH  23  24
ENDBRANCH  21  23
ENDBRANCH  19  21
BRANCH  19  26
ATOM     26  O   UNL     1       1.881   5.079  17.836  0.00  0.00    +0.000 OA
ATOM     27  H   UNL     1       2.005   5.707  18.574  0.00  0.00    +0.000 HD
ENDBRANCH  19  26
ENDBRANCH  15  19
ENDBRANCH   1  17
TORSDOF 10
ENDMDL
MODEL 6
REMARK VINA RESULT:      -7.2      0.901      1.611
REMARK  Name = 
REMARK  12 active torsions:
REMARK  status: ('A' for Active; 'I' for Inactive)
REMARK    1  A    between atoms: C_1  and  C_2
REMARK    2  A    between atoms: C_2  and  C_3
REMARK    3  A    between atoms: C_2  and  C_4
REMARK    4  A    between atoms: C_2  and  C_6
REMARK    5  A    between atoms: C_4  and  O_5
REMARK    6  A    between atoms: C_6  and  O_7
REMARK    7  A    between atoms: C_6  and  C_8
REMARK    8  A    between atoms: N_10  and  C_11
REMARK    9  A    between atoms: C_11  and  C_12
REMARK   10  A    between atoms: N_14  and  C_15
REMARK   11  A    between atoms: C_15  and  C_16
REMARK   12  A    between atoms: C_16  and  C_17
REMARK                            x       y       z     vdW  Elec       q    Type
REMARK                         _______ _______ _______ _____ _____    ______ ____
ROOT
ATOM      1  C   UNL     1       7.339   4.623  18.089  0.00  0.00    +0.000 C 
ENDROOT
BRANCH   1   2
ATOM      2  C   UNL     1       7.317   6.077  17.811  0.00  0.00    +0.000 A 
ATOM      3  C   UNL     1       8.084   7.074  18.370  0.00  0.00    +0.000 A 
ATOM      4  N   UNL     1       7.724   8.194  17.687  0.00  0.00    +0.000 N 
ATOM      5  N   UNL     1       6.737   7.930  16.811  0.00  0.00    +0.000 NA
ATOM      6  N   UNL     1       6.484   6.629  16.873  0.00  0.00    +0.000 NA
BRANCH   4   7
ATOM      7  C   UNL     1       8.292   9.524  17.776  0.00  0.00    +0.000 C 
BRANCH   7   8
ATOM      8  C   UNL     1       9.022   9.763  19.097  0.00  0.00    +0.000 C 
BRANCH   8   9
ATOM      9  C   UNL     1       9.752  11.079  19.127  0.00  0.00    +0.000 A 
ATOM     10  C   UNL     1      10.345  11.528  20.316  0.00  0.00    +0.000 A 
ATOM     11  C   UNL     1      11.026  12.744  20.348  0.00  0.00    +0.000 A 
ATOM     12  C   UNL     1      11.116  13.523  19.197  0.00  0.00    +0.000 A 
ATOM     13  C   UNL     1      10.527  13.086  18.011  0.00  0.00    +0.000 A 
ATOM     14  C   UNL     1       9.846  11.868  17.976  0.00  0.00    +0.000 A 
ENDBRANCH   8   9
ENDBRANCH   7   8
ENDBRANCH   4   7
ENDBRANCH   1   2
BRANCH   1  17
ATOM     15  C   UNL     1       4.997   3.864  18.289  0.00  0.00    +0.000 C 
ATOM     16  O   UNL     1       4.823   3.789  17.076  0.00  0.00    +0.000 OA
ATOM     17  N   UNL     1       6.181   4.257  18.868  0.00  0.00    +0.000 N 
ATOM     18  H   UNL     1       6.296   4.165  19.872  0.00  0.00    +0.000 HD
BRANCH  15  19
ATOM     19  C   UNL     1       3.859   3.551  19.283  0.00  0.00    +0.000 C 
BRANCH  19  21
ATOM     20  C   UNL     1       1.947   4.562  20.579  0.00  0.00    +0.000 C 
ATOM     21  C   UNL     1       2.719   4.613  19.241  0.00  0.00    +0.000 C 
ATOM     22  C   UNL     1       1.710   4.316  18.113  0.00  0.00    +0.000 C 
BRANCH  21  23
ATOM     23  C   UNL     1       3.283   6.035  19.038  0.00  0.00    +0.000 C 
BRANCH  23  24
ATOM     24  O   UNL     1       2.505   6.765  18.094  0.00  0.00    +0.000 OA
ATOM     25  H   UNL     1       1.745   7.141  18.571  0.00  0.00    +0.000 HD
ENDBRANCH  23  24
ENDBRANCH  21  23
ENDBRANCH  19  21
BRANCH  19  26
ATOM     26  O   UNL     1       3.329   2.251  19.004  0.00  0.00    +0.000 OA
ATOM     27  H   UNL     1       4.034   1.767  18.530  0.00  0.00    +0.000 HD
ENDBRANCH  19  26
ENDBRANCH  15  19
ENDBRANCH   1  17
TORSDOF 10
ENDMDL
MODEL 7
REMARK VINA RESULT:      -7.1      1.596      2.261
REMARK  Name = 
REMARK  12 active torsions:
REMARK  status: ('A' for Active; 'I' for Inactive)
REMARK    1  A    between atoms: C_1  and  C_2
REMARK    2  A    between atoms: C_2  and  C_3
REMARK    3  A    between atoms: C_2  and  C_4
REMARK    4  A    between atoms: C_2  and  C_6
REMARK    5  A    between atoms: C_4  and  O_5
REMARK    6  A    between atoms: C_6  and  O_7
REMARK    7  A    between atoms: C_6  and  C_8
REMARK    8  A    between atoms: N_10  and  C_11
REMARK    9  A    between atoms: C_11  and  C_12
REMARK   10  A    between atoms: N_14  and  C_15
REMARK   11  A    between atoms: C_15  and  C_16
REMARK   12  A    between atoms: C_16  and  C_17
REMARK                            x       y       z     vdW  Elec       q    Type
REMARK                         _______ _______ _______ _____ _____    ______ ____
ROOT
ATOM      1  C   UNL     1       5.168   4.756  16.471  0.00  0.00    +0.000 C 
ENDROOT
BRANCH   1   2
ATOM      2  C   UNL     1       6.137   5.388  17.394  0.00  0.00    +0.000 A 
ATOM      3  C   UNL     1       7.062   6.373  17.134  0.00  0.00    +0.000 A 
ATOM      4  N   UNL     1       7.612   6.644  18.348  0.00  0.00    +0.000 N 
ATOM      5  N   UNL     1       7.121   5.825  19.295  0.00  0.00    +0.000 NA
ATOM      6  N   UNL     1       6.206   5.053  18.723  0.00  0.00    +0.000 NA
BRANCH   4   7
ATOM      7  C   UNL     1       8.564   7.680  18.692  0.00  0.00    +0.000 C 
BRANCH   7   8
ATOM      8  C   UNL     1       8.221   9.028  18.059  0.00  0.00    +0.000 C 
BRANCH   8   9
ATOM      9  C   UNL     1       9.043  10.158  18.617  0.00  0.00    +0.000 A 
ATOM     10  C   UNL     1       9.717  11.032  17.752  0.00  0.00    +0.000 A 
ATOM     11  C   UNL     1      10.476  12.083  18.264  0.00  0.00    +0.000 A 
ATOM     12  C   UNL     1      10.572  12.268  19.642  0.00  0.00    +0.000 A 
ATOM     13  C   UNL     1       9.906  11.402  20.509  0.00  0.00    +0.000 A 
ATOM     14  C   UNL     1       9.145  10.350  19.999  0.00  0.00    +0.000 A 
ENDBRANCH   8   9
ENDBRANCH   7   8
ENDBRANCH   4   7
ENDBRANCH   1   2
BRANCH   1  17
ATOM     15  C   UNL     1       3.423   3.372  17.539  0.00  0.00    +0.000 C 
ATOM     16  O   UNL     1       4.034   2.318  17.381  0.00  0.00    +0.000 OA
ATOM     17  N   UNL     1       3.895   4.597  17.132  0.00  0.00    +0.000 N 
ATOM     18  H   UNL     1       3.403   5.437  17.416  0.00  0.00    +0.000 HD
BRANCH  15  19
ATOM     19  C   UNL     1       2.024   3.397  18.190  0.00  0.00    +0.000 C 
BRANCH  19  21
ATOM     20  C   UNL     1       3.155   3.174  20.431  0.00  0.00    +0.000 C 
ATOM     21  C   UNL     1       2.055   3.930  19.653  0.00  0.00    +0.000 C 
ATOM     22  C   UNL     1       0.717   3.675  20.377  0.00  0.00    +0.000 C 
BRANCH  21  23
ATOM     23  C   UNL     1       2.358   5.442  19.694  0.00  0.00    +0.000 C 
BRANCH  23  24
ATOM     24  O   UNL     1       3.725   5.683  20.014  0.00  0.00    +0.000 OA
ATOM     25  H   UNL     1       3.845   6.646  20.076  0.00  0.00    +0.000 HD
ENDBRANCH  23  24
ENDBRANCH  21  23
ENDBRANCH  19  21
BRANCH  19  26
ATOM     26  O   UNL     1       1.144   4.197  17.394  0.00  0.00    +0.000 OA
ATOM     27  H   UNL     1       1.716   4.807  16.888  0.00  0.00    +0.000 HD
ENDBRANCH  19  26
ENDBRANCH  15  19
ENDBRANCH   1  17
TORSDOF 10
ENDMDL
MODEL 8
REMARK VINA RESULT:      -7.1      1.566      2.057
REMARK  Name = 
REMARK  12 active torsions:
REMARK  status: ('A' for Active; 'I' for Inactive)
REMARK    1  A    between atoms: C_1  and  C_2
REMARK    2  A    between atoms: C_2  and  C_3
REMARK    3  A    between atoms: C_2  and  C_4
REMARK    4  A    between atoms: C_2  and  C_6
REMARK    5  A    between atoms: C_4  and  O_5
REMARK    6  A    between atoms: C_6  and  O_7
REMARK    7  A    between atoms: C_6  and  C_8
REMARK    8  A    between atoms: N_10  and  C_11
REMARK    9  A    between atoms: C_11  and  C_12
REMARK   10  A    between atoms: N_14  and  C_15
REMARK   11  A    between atoms: C_15  and  C_16
REMARK   12  A    between atoms: C_16  and  C_17
REMARK                            x       y       z     vdW  Elec       q    Type
REMARK                         _______ _______ _______ _____ _____    ______ ____
ROOT
ATOM      1  C   UNL     1       4.399   6.255  16.620  0.00  0.00    +0.000 C 
ENDROOT
BRANCH   1   2
ATOM      2  C   UNL     1       5.761   6.786  16.852  0.00  0.00    +0.000 A 
ATOM      3  C   UNL     1       6.164   7.790  17.703  0.00  0.00    +0.000 A 
ATOM      4  N   UNL     1       7.519   7.799  17.591  0.00  0.00    +0.000 N 
ATOM      5  N   UNL     1       7.934   6.913  16.669  0.00  0.00    +0.000 NA
ATOM      6  N   UNL     1       6.863   6.277  16.212  0.00  0.00    +0.000 NA
BRANCH   4   7
ATOM      7  C   UNL     1       8.478   8.578  18.347  0.00  0.00    +0.000 C 
BRANCH   7   8
ATOM      8  C   UNL     1       8.497  10.049  17.934  0.00  0.00    +0.000 C 
BRANCH   8   9
ATOM      9  C   UNL     1       9.568  10.837  18.639  0.00  0.00    +0.000 A 
ATOM     10  C   UNL     1      10.641  11.373  17.912  0.00  0.00    +0.000 A 
ATOM     11  C   UNL     1      11.634  12.107  18.560  0.00  0.00    +0.000 A 
ATOM     12  C   UNL     1      11.565  12.309  19.936  0.00  0.00    +0.000 A 
ATOM     13  C   UNL     1      10.503  11.778  20.667  0.00  0.00    +0.000 A 
ATOM     14  C   UNL     1       9.507  11.044  20.021  0.00  0.00    +0.000 A 
ENDBRANCH   8   9
ENDBRANCH   7   8
ENDBRANCH   4   7
ENDBRANCH   1   2
BRANCH   1  17
ATOM     15  C   UNL     1       3.481   5.412  18.752  0.00  0.00    +0.000 C 
ATOM     16  O   UNL     1       3.089   6.515  19.124  0.00  0.00    +0.000 OA
ATOM     17  N   UNL     1       4.123   5.193  17.556  0.00  0.00    +0.000 N 
ATOM     18  H   UNL     1       4.295   4.240  17.254  0.00  0.00    +0.000 HD
BRANCH  15  19
ATOM     19  C   UNL     1       3.311   4.161  19.639  0.00  0.00    +0.000 C 
BRANCH  19  21
ATOM     20  C   UNL     1       1.342   3.963  18.079  0.00  0.00    +0.000 C 
ATOM     21  C   UNL     1       1.957   3.431  19.393  0.00  0.00    +0.000 C 
ATOM     22  C   UNL     1       0.947   3.715  20.524  0.00  0.00    +0.000 C 
BRANCH  21  23
ATOM     23  C   UNL     1       2.153   1.906  19.277  0.00  0.00    +0.000 C 
BRANCH  23  24
ATOM     24  O   UNL     1       2.606   1.545  17.975  0.00  0.00    +0.000 OA
ATOM     25  H   UNL     1       1.824   1.301  17.451  0.00  0.00    +0.000 HD
ENDBRANCH  23  24
ENDBRANCH  21  23
ENDBRANCH  19  21
BRANCH  19  26
ATOM     26  O   UNL     1       4.402   3.263  19.407  0.00  0.00    +0.000 OA
ATOM     27  H   UNL     1       5.001   3.361  20.172  0.00  0.00    +0.000 HD
ENDBRANCH  19  26
ENDBRANCH  15  19
ENDBRANCH   1  17
TORSDOF 10
ENDMDL
MODEL 9
REMARK VINA RESULT:      -7.0      1.469      2.177
REMARK  Name = 
REMARK  12 active torsions:
REMARK  status: ('A' for Active; 'I' for Inactive)
REMARK    1  A    between atoms: C_1  and  C_2
REMARK    2  A    between atoms: C_2  and  C_3
REMARK    3  A    between atoms: C_2  and  C_4
REMARK    4  A    between atoms: C_2  and  C_6
REMARK    5  A    between atoms: C_4  and  O_5
REMARK    6  A    between atoms: C_6  and  O_7
REMARK    7  A    between atoms: C_6  and  C_8
REMARK    8  A    between atoms: N_10  and  C_11
REMARK    9  A    between atoms: C_11  and  C_12
REMARK   10  A    between atoms: N_14  and  C_15
REMARK   11  A    between atoms: C_15  and  C_16
REMARK   12  A    between atoms: C_16  and  C_17
REMARK                            x       y       z     vdW  Elec       q    Type
REMARK                         _______ _______ _______ _____ _____    ______ ____
ROOT
ATOM      1  C   UNL     1       5.819   3.853  16.803  0.00  0.00    +0.000 C 
ENDROOT
BRANCH   1   2
ATOM      2  C   UNL     1       6.260   5.199  17.233  0.00  0.00    +0.000 A 
ATOM      3  C   UNL     1       7.400   5.557  17.915  0.00  0.00    +0.000 A 
ATOM      4  N   UNL     1       7.351   6.915  17.959  0.00  0.00    +0.000 N 
ATOM      5  N   UNL     1       6.212   7.376  17.410  0.00  0.00    +0.000 NA
ATOM      6  N   UNL     1       5.536   6.330  16.952  0.00  0.00    +0.000 NA
BRANCH   4   7
ATOM      7  C   UNL     1       8.351   7.836  18.459  0.00  0.00    +0.000 C 
BRANCH   7   8
ATOM      8  C   UNL     1       8.186   9.247  17.894  0.00  0.00    +0.000 C 
BRANCH   8   9
ATOM      9  C   UNL     1       9.110  10.243  18.541  0.00  0.00    +0.000 A 
ATOM     10  C   UNL     1       9.190  10.324  19.939  0.00  0.00    +0.000 A 
ATOM     11  C   UNL     1      10.047  11.242  20.544  0.00  0.00    +0.000 A 
ATOM     12  C   UNL     1      10.828  12.089  19.759  0.00  0.00    +0.000 A 
ATOM     13  C   UNL     1      10.753  12.016  18.369  0.00  0.00    +0.000 A 
ATOM     14  C   UNL     1       9.897  11.097  17.761  0.00  0.00    +0.000 A 
ENDBRANCH   8   9
ENDBRANCH   7   8
ENDBRANCH   4   7
ENDBRANCH   1   2
BRANCH   1  17
ATOM     15  C   UNL     1       4.255   3.110  18.564  0.00  0.00    +0.000 C 
ATOM     16  O   UNL     1       5.143   2.861  19.375  0.00  0.00    +0.000 OA
ATOM     17  N   UNL     1       4.489   3.593  17.299  0.00  0.00    +0.000 N 
ATOM     18  H   UNL     1       3.705   3.905  16.734  0.00  0.00    +0.000 HD
BRANCH  15  19
ATOM     19  C   UNL     1       2.770   2.856  18.900  0.00  0.00    +0.000 C 
BRANCH  19  21
ATOM     20  C   UNL     1       2.582   3.101  21.402  0.00  0.00    +0.000 C 
ATOM     21  C   UNL     1       2.251   3.771  20.049  0.00  0.00    +0.000 C 
ATOM     22  C   UNL     1       0.721   3.950  19.983  0.00  0.00    +0.000 C 
BRANCH  21  23
ATOM     23  C   UNL     1       2.914   5.164  20.001  0.00  0.00    +0.000 C 
BRANCH  23  24
ATOM     24  O   UNL     1       2.707   5.787  18.737  0.00  0.00    +0.000 OA
ATOM     25  H   UNL     1       3.520   5.667  18.217  0.00  0.00    +0.000 HD
ENDBRANCH  23  24
ENDBRANCH  21  23
ENDBRANCH  19  21
BRANCH  19  26
ATOM     26  O   UNL     1       1.978   3.048  17.724  0.00  0.00    +0.000 OA
ATOM     27  H   UNL     1       2.464   2.614  16.995  0.00  0.00    +0.000 HD
ENDBRANCH  19  26
ENDBRANCH  15  19
ENDBRANCH   1  17
TORSDOF 10
ENDMDL
