MODEL 1
REMARK VINA RESULT:      -8.7      0.000      0.000
REMARK  Name = 
REMARK  3 active torsions:
REMARK  status: ('A' for Active; 'I' for Inactive)
REMARK    1  A    between atoms: S_2  and  N_4
REMARK    2  A    between atoms: S_2  and  C_13
REMARK    3  A    between atoms: N_4  and  C_5
REMARK                            x       y       z     vdW  Elec       q    Type
REMARK                         _______ _______ _______ _____ _____    ______ ____
ROOT
ATOM      1  C   UNL     1       4.865   3.641  17.832  0.00  0.00    +0.000 A 
ATOM      2  C   UNL     1       6.009   4.251  18.348  0.00  0.00    +0.000 A 
ATOM      3  C   UNL     1       6.970   4.793  17.487  0.00  0.00    +0.000 A 
ATOM      4  C   UNL     1       6.729   4.713  16.108  0.00  0.00    +0.000 A 
ATOM      5  N   UNL     1       7.492   5.146  15.046  0.00  0.00    +0.000 N 
ATOM      6  C   UNL     1       6.872   4.846  13.861  0.00  0.00    +0.000 A 
ATOM      7  C   UNL     1       5.680   4.206  14.149  0.00  0.00    +0.000 A 
ATOM      8  C   UNL     1       5.581   4.130  15.574  0.00  0.00    +0.000 A 
ATOM      9  C   UNL     1       4.618   3.598  16.454  0.00  0.00    +0.000 A 
ATOM     10  C   UNL     1       4.700   3.652  13.159  0.00  0.00    +0.000 C 
ATOM     11  C   UNL     1       5.268   3.239  11.792  0.00  0.00    +0.000 C 
ATOM     12  C   UNL     1       6.727   2.774  11.794  0.00  0.00    +0.000 C 
ATOM     13  C   UNL     1       7.746   3.920  11.696  0.00  0.00    +0.000 C 
ATOM     14  C   UNL     1       7.453   5.171  12.531  0.00  0.00    +0.000 C 
ATOM     15  H   UNL     1       8.387   5.605  15.136  0.00  0.00    +0.000 HD
ENDROOT
BRANCH   1  17
ATOM     16  O   UNL     1       4.015   3.335  20.278  0.00  0.00    +0.000 OA
ATOM     17  S   UNL     1       3.668   2.914  18.936  0.00  0.00    +0.000 S 
ATOM     18  O   UNL     1       3.531   1.513  18.598  0.00  0.00    +0.000 OA
BRANCH  17  19
ATOM     19  N   UNL     1       2.229   3.734  18.532  0.00  0.00    +0.000 N 
ATOM     20  H   UNL     1       1.432   3.146  18.785  0.00  0.00    +0.000 HD
BRANCH  19  21
ATOM     21  C   UNL     1       2.112   5.088  18.991  0.00  0.00    +0.000 A 
ATOM     22  C   UNL     1       2.559   6.132  18.186  0.00  0.00    +0.000 A 
ATOM     23  C   UNL     1       2.486   7.436  18.667  0.00  0.00    +0.000 A 
ATOM     24  F   UNL     1       2.889   8.449  17.890  0.00  0.00    +0.000 F 
ATOM     25  C   UNL     1       2.001   7.711  19.946  0.00  0.00    +0.000 A 
ATOM     26  C   UNL     1       1.565   6.664  20.757  0.00  0.00    +0.000 A 
ATOM     27  C   UNL     1       1.610   5.362  20.269  0.00  0.00    +0.000 A 
ATOM     28  F   UNL     1       1.174   4.359  21.044  0.00  0.00    +0.000 F 
ENDBRANCH  19  21
ENDBRANCH  17  19
ENDBRANCH   1  17
TORSDOF 3
ENDMDL
MODEL 2
REMARK VINA RESULT:      -8.1      1.501      2.186
REMARK  Name = 
REMARK  3 active torsions:
REMARK  status: ('A' for Active; 'I' for Inactive)
REMARK    1  A    between atoms: S_2  and  N_4
REMARK    2  A    between atoms: S_2  and  C_13
REMARK    3  A    between atoms: N_4  and  C_5
REMARK                            x       y       z     vdW  Elec       q    Type
REMARK                         _______ _______ _______ _____ _____    ______ ____
ROOT
ATOM      1  C   UNL     1       4.727   4.600  17.482  0.00  0.00    +0.000 A 
ATOM      2  C   UNL     1       6.026   4.890  17.903  0.00  0.00    +0.000 A 
ATOM      3  C   UNL     1       7.075   4.934  16.978  0.00  0.00    +0.000 A 
ATOM      4  C   UNL     1       6.767   4.696  15.631  0.00  0.00    +0.000 A 
ATOM      5  N   UNL     1       7.586   4.668  14.524  0.00  0.00    +0.000 N 
ATOM      6  C   UNL     1       6.856   4.381  13.400  0.00  0.00    +0.000 A 
ATOM      7  C   UNL     1       5.535   4.219  13.774  0.00  0.00    +0.000 A 
ATOM      8  C   UNL     1       5.473   4.430  15.187  0.00  0.00    +0.000 A 
ATOM      9  C   UNL     1       4.425   4.398  16.129  0.00  0.00    +0.000 A 
ATOM     10  C   UNL     1       4.390   3.846  12.880  0.00  0.00    +0.000 C 
ATOM     11  C   UNL     1       4.742   3.039  11.620  0.00  0.00    +0.000 C 
ATOM     12  C   UNL     1       5.975   2.138  11.733  0.00  0.00    +0.000 C 
ATOM     13  C   UNL     1       7.303   2.859  11.452  0.00  0.00    +0.000 C 
ATOM     14  C   UNL     1       7.458   4.264  12.044  0.00  0.00    +0.000 C 
ATOM     15  H   UNL     1       8.584   4.824  14.548  0.00  0.00    +0.000 HD
ENDROOT
BRANCH   1  17
ATOM     16  O   UNL     1       3.675   3.356  19.518  0.00  0.00    +0.000 OA
ATOM     17  S   UNL     1       3.405   4.502  18.675  0.00  0.00    +0.000 S 
ATOM     18  O   UNL     1       2.148   4.640  17.970  0.00  0.00    +0.000 OA
BRANCH  17  19
ATOM     19  N   UNL     1       3.662   5.881  19.643  0.00  0.00    +0.000 N 
ATOM     20  H   UNL     1       4.661   6.097  19.653  0.00  0.00    +0.000 HD
BRANCH  19  21
ATOM     21  C   UNL     1       2.831   7.019  19.371  0.00  0.00    +0.000 A 
ATOM     22  C   UNL     1       1.842   7.386  20.278  0.00  0.00    +0.000 A 
ATOM     23  C   UNL     1       1.011   8.461  19.974  0.00  0.00    +0.000 A 
ATOM     24  F   UNL     1       0.073   8.838  20.853  0.00  0.00    +0.000 F 
ATOM     25  C   UNL     1       1.133   9.155  18.771  0.00  0.00    +0.000 A 
ATOM     26  C   UNL     1       2.116   8.779  17.856  0.00  0.00    +0.000 A 
ATOM     27  C   UNL     1       2.967   7.723  18.168  0.00  0.00    +0.000 A 
ATOM     28  F   UNL     1       3.923   7.374  17.296  0.00  0.00    +0.000 F 
ENDBRANCH  19  21
ENDBRANCH  17  19
ENDBRANCH   1  17
TORSDOF 3
ENDMDL
MODEL 3
REMARK VINA RESULT:      -8.1      3.406      8.201
REMARK  Name = 
REMARK  3 active torsions:
REMARK  status: ('A' for Active; 'I' for Inactive)
REMARK    1  A    between atoms: S_2  and  N_4
REMARK    2  A    between atoms: S_2  and  C_13
REMARK    3  A    between atoms: N_4  and  C_5
REMARK                            x       y       z     vdW  Elec       q    Type
REMARK                         _______ _______ _______ _____ _____    ______ ____
ROOT
ATOM      1  C   UNL     1       4.452   6.421  17.568  0.00  0.00    +0.000 A 
ATOM      2  C   UNL     1       4.550   5.400  18.514  0.00  0.00    +0.000 A 
ATOM      3  C   UNL     1       3.714   5.395  19.636  0.00  0.00    +0.000 A 
ATOM      4  C   UNL     1       2.778   6.432  19.756  0.00  0.00    +0.000 A 
ATOM      5  N   UNL     1       1.849   6.681  20.742  0.00  0.00    +0.000 N 
ATOM      6  C   UNL     1       1.146   7.822  20.457  0.00  0.00    +0.000 A 
ATOM      7  C   UNL     1       1.620   8.333  19.262  0.00  0.00    +0.000 A 
ATOM      8  C   UNL     1       2.647   7.446  18.808  0.00  0.00    +0.000 A 
ATOM      9  C   UNL     1       3.490   7.432  17.680  0.00  0.00    +0.000 A 
ATOM     10  C   UNL     1       1.179   9.598  18.590  0.00  0.00    +0.000 C 
ATOM     11  C   UNL     1       0.606  10.693  19.505  0.00  0.00    +0.000 C 
ATOM     12  C   UNL     1       1.151  10.714  20.935  0.00  0.00    +0.000 C 
ATOM     13  C   UNL     1       0.426   9.754  21.893  0.00  0.00    +0.000 C 
ATOM     14  C   UNL     1       0.080   8.367  21.340  0.00  0.00    +0.000 C 
ATOM     15  H   UNL     1       1.720   6.106  21.563  0.00  0.00    +0.000 HD
ENDROOT
BRANCH   1  17
ATOM     16  O   UNL     1       6.843   6.899  16.641  0.00  0.00    +0.000 OA
ATOM     17  S   UNL     1       5.554   6.442  16.165  0.00  0.00    +0.000 S 
ATOM     18  O   UNL     1       4.877   7.103  15.068  0.00  0.00    +0.000 OA
BRANCH  17  19
ATOM     19  N   UNL     1       5.736   4.788  15.797  0.00  0.00    +0.000 N 
ATOM     20  H   UNL     1       4.956   4.270  16.208  0.00  0.00    +0.000 HD
BRANCH  19  21
ATOM     21  C   UNL     1       5.982   4.460  14.422  0.00  0.00    +0.000 A 
ATOM     22  C   UNL     1       5.013   3.783  13.688  0.00  0.00    +0.000 A 
ATOM     23  C   UNL     1       5.288   3.428  12.370  0.00  0.00    +0.000 A 
ATOM     24  F   UNL     1       4.352   2.800  11.648  0.00  0.00    +0.000 F 
ATOM     25  C   UNL     1       6.522   3.711  11.785  0.00  0.00    +0.000 A 
ATOM     26  C   UNL     1       7.498   4.378  12.525  0.00  0.00    +0.000 A 
ATOM     27  C   UNL     1       7.217   4.760  13.833  0.00  0.00    +0.000 A 
ATOM     28  F   UNL     1       8.150   5.416  14.537  0.00  0.00    +0.000 F 
ENDBRANCH  19  21
ENDBRANCH  17  19
ENDBRANCH   1  17
TORSDOF 3
ENDMDL
MODEL 4
REMARK VINA RESULT:      -8.0      3.608      8.431
REMARK  Name = 
REMARK  3 active torsions:
REMARK  status: ('A' for Active; 'I' for Inactive)
REMARK    1  A    between atoms: S_2  and  N_4
REMARK    2  A    between atoms: S_2  and  C_13
REMARK    3  A    between atoms: N_4  and  C_5
REMARK                            x       y       z     vdW  Elec       q    Type
REMARK                         _______ _______ _______ _____ _____    ______ ____
ROOT
ATOM      1  C   UNL     1       2.334   6.887  18.917  0.00  0.00    +0.000 A 
ATOM      2  C   UNL     1       2.337   7.640  17.742  0.00  0.00    +0.000 A 
ATOM      3  C   UNL     1       1.917   8.974  17.758  0.00  0.00    +0.000 A 
ATOM      4  C   UNL     1       1.516   9.517  18.987  0.00  0.00    +0.000 A 
ATOM      5  N   UNL     1       1.054  10.778  19.293  0.00  0.00    +0.000 N 
ATOM      6  C   UNL     1       0.765  10.867  20.630  0.00  0.00    +0.000 A 
ATOM      7  C   UNL     1       1.042   9.644  21.213  0.00  0.00    +0.000 A 
ATOM      8  C   UNL     1       1.530   8.789  20.176  0.00  0.00    +0.000 A 
ATOM      9  C   UNL     1       1.965   7.449  20.145  0.00  0.00    +0.000 A 
ATOM     10  C   UNL     1       0.828   9.267  22.648  0.00  0.00    +0.000 C 
ATOM     11  C   UNL     1      -0.271  10.035  23.400  0.00  0.00    +0.000 C 
ATOM     12  C   UNL     1      -1.433  10.540  22.540  0.00  0.00    +0.000 C 
ATOM     13  C   UNL     1      -1.166  11.895  21.865  0.00  0.00    +0.000 C 
ATOM     14  C   UNL     1       0.231  12.100  21.268  0.00  0.00    +0.000 C 
ATOM     15  H   UNL     1       0.936  11.522  18.620  0.00  0.00    +0.000 HD
ENDROOT
BRANCH   1  17
ATOM     16  O   UNL     1       1.673   4.404  18.470  0.00  0.00    +0.000 OA
ATOM     17  S   UNL     1       2.829   5.174  18.877  0.00  0.00    +0.000 S 
ATOM     18  O   UNL     1       3.537   4.878  20.106  0.00  0.00    +0.000 OA
BRANCH  17  19
ATOM     19  N   UNL     1       3.925   5.123  17.572  0.00  0.00    +0.000 N 
ATOM     20  H   UNL     1       3.475   5.527  16.748  0.00  0.00    +0.000 HD
BRANCH  19  21
ATOM     21  C   UNL     1       5.241   5.638  17.819  0.00  0.00    +0.000 A 
ATOM     22  C   UNL     1       5.951   5.212  18.938  0.00  0.00    +0.000 A 
ATOM     23  C   UNL     1       7.206   5.760  19.190  0.00  0.00    +0.000 A 
ATOM     24  F   UNL     1       7.908   5.338  20.249  0.00  0.00    +0.000 F 
ATOM     25  C   UNL     1       7.748   6.743  18.363  0.00  0.00    +0.000 A 
ATOM     26  C   UNL     1       7.030   7.179  17.250  0.00  0.00    +0.000 A 
ATOM     27  C   UNL     1       5.788   6.614  16.978  0.00  0.00    +0.000 A 
ATOM     28  F   UNL     1       5.108   7.020  15.897  0.00  0.00    +0.000 F 
ENDBRANCH  19  21
ENDBRANCH  17  19
ENDBRANCH   1  17
TORSDOF 3
ENDMDL
MODEL 5
REMARK VINA RESULT:      -8.0      5.297      7.149
REMARK  Name = 
REMARK  3 active torsions:
REMARK  status: ('A' for Active; 'I' for Inactive)
REMARK    1  A    between atoms: S_2  and  N_4
REMARK    2  A    between atoms: S_2  and  C_13
REMARK    3  A    between atoms: N_4  and  C_5
REMARK                            x       y       z     vdW  Elec       q    Type
REMARK                         _______ _______ _______ _____ _____    ______ ____
ROOT
ATOM      1  C   UNL     1       1.446   8.215  20.325  0.00  0.00    +0.000 A 
ATOM      2  C   UNL     1       1.988   8.598  19.097  0.00  0.00    +0.000 A 
ATOM      3  C   UNL     1       2.533   7.639  18.236  0.00  0.00    +0.000 A 
ATOM      4  C   UNL     1       2.496   6.298  18.646  0.00  0.00    +0.000 A 
ATOM      5  N   UNL     1       2.958   5.163  18.017  0.00  0.00    +0.000 N 
ATOM      6  C   UNL     1       2.721   4.059  18.793  0.00  0.00    +0.000 A 
ATOM      7  C   UNL     1       2.091   4.474  19.952  0.00  0.00    +0.000 A 
ATOM      8  C   UNL     1       1.936   5.893  19.857  0.00  0.00    +0.000 A 
ATOM      9  C   UNL     1       1.382   6.869  20.708  0.00  0.00    +0.000 A 
ATOM     10  C   UNL     1       1.689   3.613  21.111  0.00  0.00    +0.000 C 
ATOM     11  C   UNL     1       2.502   2.325  21.320  0.00  0.00    +0.000 C 
ATOM     12  C   UNL     1       3.958   2.377  20.850  0.00  0.00    +0.000 C 
ATOM     13  C   UNL     1       4.143   2.066  19.356  0.00  0.00    +0.000 C 
ATOM     14  C   UNL     1       3.119   2.682  18.396  0.00  0.00    +0.000 C 
ATOM     15  H   UNL     1       3.418   5.156  17.118  0.00  0.00    +0.000 HD
ENDROOT
BRANCH   1  17
ATOM     16  O   UNL     1       1.829   9.744  22.402  0.00  0.00    +0.000 OA
ATOM     17  S   UNL     1       0.794   9.450  21.434  0.00  0.00    +0.000 S 
ATOM     18  O   UNL     1      -0.529   9.033  21.848  0.00  0.00    +0.000 OA
BRANCH  17  19
ATOM     19  N   UNL     1       0.662  10.827  20.437  0.00  0.00    +0.000 N 
ATOM     20  H   UNL     1       1.432  10.822  19.764  0.00  0.00    +0.000 HD
BRANCH  19  21
ATOM     21  C   UNL     1      -0.621  11.067  19.842  0.00  0.00    +0.000 A 
ATOM     22  C   UNL     1      -0.980  10.394  18.678  0.00  0.00    +0.000 A 
ATOM     23  C   UNL     1      -2.208  10.677  18.085  0.00  0.00    +0.000 A 
ATOM     24  F   UNL     1      -2.574  10.015  16.981  0.00  0.00    +0.000 F 
ATOM     25  C   UNL     1      -3.066  11.639  18.618  0.00  0.00    +0.000 A 
ATOM     26  C   UNL     1      -2.700  12.323  19.776  0.00  0.00    +0.000 A 
ATOM     27  C   UNL     1      -1.486  12.023  20.388  0.00  0.00    +0.000 A 
ATOM     28  F   UNL     1      -1.144  12.669  21.511  0.00  0.00    +0.000 F 
ENDBRANCH  19  21
ENDBRANCH  17  19
ENDBRANCH   1  17
TORSDOF 3
ENDMDL
MODEL 6
REMARK VINA RESULT:      -8.0      1.001      1.745
REMARK  Name = 
REMARK  3 active torsions:
REMARK  status: ('A' for Active; 'I' for Inactive)
REMARK    1  A    between atoms: S_2  and  N_4
REMARK    2  A    between atoms: S_2  and  C_13
REMARK    3  A    between atoms: N_4  and  C_5
REMARK                            x       y       z     vdW  Elec       q    Type
REMARK                         _______ _______ _______ _____ _____    ______ ____
ROOT
ATOM      1  C   UNL     1       5.293   4.189  17.835  0.00  0.00    +0.000 A 
ATOM      2  C   UNL     1       6.536   4.730  18.168  0.00  0.00    +0.000 A 
ATOM      3  C   UNL     1       7.448   5.072  17.163  0.00  0.00    +0.000 A 
ATOM      4  C   UNL     1       7.058   4.869  15.832  0.00  0.00    +0.000 A 
ATOM      5  N   UNL     1       7.743   5.103  14.659  0.00  0.00    +0.000 N 
ATOM      6  C   UNL     1       6.978   4.743  13.581  0.00  0.00    +0.000 A 
ATOM      7  C   UNL     1       5.768   4.265  14.052  0.00  0.00    +0.000 A 
ATOM      8  C   UNL     1       5.811   4.355  15.479  0.00  0.00    +0.000 A 
ATOM      9  C   UNL     1       4.901   4.023  16.501  0.00  0.00    +0.000 A 
ATOM     10  C   UNL     1       4.643   3.713  13.230  0.00  0.00    +0.000 C 
ATOM     11  C   UNL     1       5.024   3.097  11.875  0.00  0.00    +0.000 C 
ATOM     12  C   UNL     1       6.426   2.486  11.795  0.00  0.00    +0.000 C 
ATOM     13  C   UNL     1       7.532   3.502  11.468  0.00  0.00    +0.000 C 
ATOM     14  C   UNL     1       7.445   4.861  12.174  0.00  0.00    +0.000 C 
ATOM     15  H   UNL     1       8.681   5.474  14.611  0.00  0.00    +0.000 HD
ENDROOT
BRANCH   1  17
ATOM     16  O   UNL     1       4.542   4.434  20.321  0.00  0.00    +0.000 OA
ATOM     17  S   UNL     1       4.156   3.715  19.125  0.00  0.00    +0.000 S 
ATOM     18  O   UNL     1       4.039   2.272  19.117  0.00  0.00    +0.000 OA
BRANCH  17  19
ATOM     19  N   UNL     1       2.684   4.400  18.607  0.00  0.00    +0.000 N 
ATOM     20  H   UNL     1       1.921   3.760  18.838  0.00  0.00    +0.000 HD
BRANCH  19  21
ATOM     21  C   UNL     1       2.434   5.757  19.002  0.00  0.00    +0.000 A 
ATOM     22  C   UNL     1       1.804   6.019  20.214  0.00  0.00    +0.000 A 
ATOM     23  C   UNL     1       1.524   7.339  20.559  0.00  0.00    +0.000 A 
ATOM     24  F   UNL     1       0.942   7.603  21.736  0.00  0.00    +0.000 F 
ATOM     25  C   UNL     1       1.835   8.394  19.702  0.00  0.00    +0.000 A 
ATOM     26  C   UNL     1       2.454   8.130  18.481  0.00  0.00    +0.000 A 
ATOM     27  C   UNL     1       2.762   6.815  18.145  0.00  0.00    +0.000 A 
ATOM     28  F   UNL     1       3.373   6.565  16.979  0.00  0.00    +0.000 F 
ENDBRANCH  19  21
ENDBRANCH  17  19
ENDBRANCH   1  17
TORSDOF 3
ENDMDL
MODEL 7
REMARK VINA RESULT:      -7.9      1.067      1.161
REMARK  Name = 
REMARK  3 active torsions:
REMARK  status: ('A' for Active; 'I' for Inactive)
REMARK    1  A    between atoms: S_2  and  N_4
REMARK    2  A    between atoms: S_2  and  C_13
REMARK    3  A    between atoms: N_4  and  C_5
REMARK                            x       y       z     vdW  Elec       q    Type
REMARK                         _______ _______ _______ _____ _____    ______ ____
ROOT
ATOM      1  C   UNL     1       4.921   4.240  17.811  0.00  0.00    +0.000 A 
ATOM      2  C   UNL     1       6.170   4.690  18.241  0.00  0.00    +0.000 A 
ATOM      3  C   UNL     1       7.175   4.979  17.312  0.00  0.00    +0.000 A 
ATOM      4  C   UNL     1       6.872   4.817  15.952  0.00  0.00    +0.000 A 
ATOM      5  N   UNL     1       7.657   5.015  14.837  0.00  0.00    +0.000 N 
ATOM      6  C   UNL     1       6.951   4.720  13.700  0.00  0.00    +0.000 A 
ATOM      7  C   UNL     1       5.680   4.321  14.073  0.00  0.00    +0.000 A 
ATOM      8  C   UNL     1       5.623   4.394  15.501  0.00  0.00    +0.000 A 
ATOM      9  C   UNL     1       4.618   4.115  16.449  0.00  0.00    +0.000 A 
ATOM     10  C   UNL     1       4.584   3.856  13.163  0.00  0.00    +0.000 C 
ATOM     11  C   UNL     1       5.022   3.229  11.830  0.00  0.00    +0.000 C 
ATOM     12  C   UNL     1       6.381   2.524  11.845  0.00  0.00    +0.000 C 
ATOM     13  C   UNL     1       7.575   3.465  11.615  0.00  0.00    +0.000 C 
ATOM     14  C   UNL     1       7.528   4.819  12.333  0.00  0.00    +0.000 C 
ATOM     15  H   UNL     1       8.619   5.322  14.863  0.00  0.00    +0.000 HD
ENDROOT
BRANCH   1  17
ATOM     16  O   UNL     1       4.163   2.725  19.793  0.00  0.00    +0.000 OA
ATOM     17  S   UNL     1       3.662   3.832  19.006  0.00  0.00    +0.000 S 
ATOM     18  O   UNL     1       2.392   3.752  18.315  0.00  0.00    +0.000 OA
BRANCH  17  19
ATOM     19  N   UNL     1       3.657   5.191  20.035  0.00  0.00    +0.000 N 
ATOM     20  H   UNL     1       4.617   5.387  20.327  0.00  0.00    +0.000 HD
BRANCH  19  21
ATOM     21  C   UNL     1       2.951   6.348  19.565  0.00  0.00    +0.000 A 
ATOM     22  C   UNL     1       3.288   6.913  18.339  0.00  0.00    +0.000 A 
ATOM     23  C   UNL     1       2.628   8.066  17.922  0.00  0.00    +0.000 A 
ATOM     24  F   UNL     1       2.927   8.602  16.731  0.00  0.00    +0.000 F 
ATOM     25  C   UNL     1       1.661   8.678  18.719  0.00  0.00    +0.000 A 
ATOM     26  C   UNL     1       1.334   8.119  19.954  0.00  0.00    +0.000 A 
ATOM     27  C   UNL     1       1.970   6.951  20.362  0.00  0.00    +0.000 A 
ATOM     28  F   UNL     1       1.640   6.405  21.541  0.00  0.00    +0.000 F 
ENDBRANCH  19  21
ENDBRANCH  17  19
ENDBRANCH   1  17
TORSDOF 3
ENDMDL
MODEL 8
REMARK VINA RESULT:      -7.9      3.692      8.430
REMARK  Name = 
REMARK  3 active torsions:
REMARK  status: ('A' for Active; 'I' for Inactive)
REMARK    1  A    between atoms: S_2  and  N_4
REMARK    2  A    between atoms: S_2  and  C_13
REMARK    3  A    between atoms: N_4  and  C_5
REMARK                            x       y       z     vdW  Elec       q    Type
REMARK                         _______ _______ _______ _____ _____    ______ ____
ROOT
ATOM      1  C   UNL     1       2.257   7.099  18.807  0.00  0.00    +0.000 A 
ATOM      2  C   UNL     1       2.205   7.901  17.666  0.00  0.00    +0.000 A 
ATOM      3  C   UNL     1       1.755   9.224  17.753  0.00  0.00    +0.000 A 
ATOM      4  C   UNL     1       1.385   9.705  19.017  0.00  0.00    +0.000 A 
ATOM      5  N   UNL     1       0.905  10.941  19.392  0.00  0.00    +0.000 N 
ATOM      6  C   UNL     1       0.660  10.967  20.740  0.00  0.00    +0.000 A 
ATOM      7  C   UNL     1       0.983   9.727  21.261  0.00  0.00    +0.000 A 
ATOM      8  C   UNL     1       1.455   8.928  20.172  0.00  0.00    +0.000 A 
ATOM      9  C   UNL     1       1.917   7.601  20.070  0.00  0.00    +0.000 A 
ATOM     10  C   UNL     1       0.826   9.285  22.684  0.00  0.00    +0.000 C 
ATOM     11  C   UNL     1      -0.264   9.994  23.504  0.00  0.00    +0.000 C 
ATOM     12  C   UNL     1      -1.466  10.508  22.705  0.00  0.00    +0.000 C 
ATOM     13  C   UNL     1      -1.252  11.895  22.080  0.00  0.00    +0.000 C 
ATOM     14  C   UNL     1       0.120  12.159  21.448  0.00  0.00    +0.000 C 
ATOM     15  H   UNL     1       0.748  11.709  18.755  0.00  0.00    +0.000 HD
ENDROOT
BRANCH   1  17
ATOM     16  O   UNL     1       1.645   4.628  18.243  0.00  0.00    +0.000 OA
ATOM     17  S   UNL     1       2.789   5.402  18.678  0.00  0.00    +0.000 S 
ATOM     18  O   UNL     1       3.514   5.062  19.884  0.00  0.00    +0.000 OA
BRANCH  17  19
ATOM     19  N   UNL     1       3.872   5.439  17.363  0.00  0.00    +0.000 N 
ATOM     20  H   UNL     1       3.453   5.985  16.606  0.00  0.00    +0.000 HD
BRANCH  19  21
ATOM     21  C   UNL     1       5.226   5.810  17.657  0.00  0.00    +0.000 A 
ATOM     22  C   UNL     1       5.678   7.087  17.340  0.00  0.00    +0.000 A 
ATOM     23  C   UNL     1       7.009   7.414  17.586  0.00  0.00    +0.000 A 
ATOM     24  F   UNL     1       7.446   8.649  17.309  0.00  0.00    +0.000 F 
ATOM     25  C   UNL     1       7.899   6.480  18.115  0.00  0.00    +0.000 A 
ATOM     26  C   UNL     1       7.449   5.196  18.420  0.00  0.00    +0.000 A 
ATOM     27  C   UNL     1       6.113   4.874  18.203  0.00  0.00    +0.000 A 
ATOM     28  F   UNL     1       5.678   3.645  18.514  0.00  0.00    +0.000 F 
ENDBRANCH  19  21
ENDBRANCH  17  19
ENDBRANCH   1  17
TORSDOF 3
ENDMDL
MODEL 9
REMARK VINA RESULT:      -7.9      5.130      7.213
REMARK  Name = 
REMARK  3 active torsions:
REMARK  status: ('A' for Active; 'I' for Inactive)
REMARK    1  A    between atoms: S_2  and  N_4
REMARK    2  A    between atoms: S_2  and  C_13
REMARK    3  A    between atoms: N_4  and  C_5
REMARK                            x       y       z     vdW  Elec       q    Type
REMARK                         _______ _______ _______ _____ _____    ______ ____
ROOT
ATOM      1  C   UNL     1       1.467   8.390  19.932  0.00  0.00    +0.000 A 
ATOM      2  C   UNL     1       2.161   8.720  18.766  0.00  0.00    +0.000 A 
ATOM      3  C   UNL     1       2.780   7.721  18.007  0.00  0.00    +0.000 A 
ATOM      4  C   UNL     1       2.661   6.396  18.451  0.00  0.00    +0.000 A 
ATOM      5  N   UNL     1       3.167   5.231  17.917  0.00  0.00    +0.000 N 
ATOM      6  C   UNL     1       2.812   4.159  18.693  0.00  0.00    +0.000 A 
ATOM      7  C   UNL     1       2.059   4.626  19.755  0.00  0.00    +0.000 A 
ATOM      8  C   UNL     1       1.951   6.044  19.598  0.00  0.00    +0.000 A 
ATOM      9  C   UNL     1       1.325   7.060  20.347  0.00  0.00    +0.000 A 
ATOM     10  C   UNL     1       1.501   3.813  20.884  0.00  0.00    +0.000 C 
ATOM     11  C   UNL     1       2.251   2.516  21.228  0.00  0.00    +0.000 C 
ATOM     12  C   UNL     1       3.754   2.522  20.934  0.00  0.00    +0.000 C 
ATOM     13  C   UNL     1       4.107   2.156  19.483  0.00  0.00    +0.000 C 
ATOM     14  C   UNL     1       3.220   2.761  18.388  0.00  0.00    +0.000 C 
ATOM     15  H   UNL     1       3.730   5.185  17.080  0.00  0.00    +0.000 HD
ENDROOT
BRANCH   1  17
ATOM     16  O   UNL     1       1.713  10.113  21.874  0.00  0.00    +0.000 OA
ATOM     17  S   UNL     1       0.719   9.675  20.916  0.00  0.00    +0.000 S 
ATOM     18  O   UNL     1      -0.587   9.217  21.342  0.00  0.00    +0.000 OA
BRANCH  17  19
ATOM     19  N   UNL     1       0.531  10.951  19.801  0.00  0.00    +0.000 N 
ATOM     20  H   UNL     1       1.226  10.845  19.058  0.00  0.00    +0.000 HD
BRANCH  19  21
ATOM     21  C   UNL     1      -0.798  11.187  19.315  0.00  0.00    +0.000 A 
ATOM     22  C   UNL     1      -1.638  12.062  19.996  0.00  0.00    +0.000 A 
ATOM     23  C   UNL     1      -2.941  12.241  19.541  0.00  0.00    +0.000 A 
ATOM     24  F   UNL     1      -3.749  13.101  20.174  0.00  0.00    +0.000 F 
ATOM     25  C   UNL     1      -3.426  11.540  18.436  0.00  0.00    +0.000 A 
ATOM     26  C   UNL     1      -2.588  10.653  17.762  0.00  0.00    +0.000 A 
ATOM     27  C   UNL     1      -1.276  10.493  18.197  0.00  0.00    +0.000 A 
ATOM     28  F   UNL     1      -0.467   9.653  17.536  0.00  0.00    +0.000 F 
ENDBRANCH  19  21
ENDBRANCH  17  19
ENDBRANCH   1  17
TORSDOF 3
ENDMDL
