MODEL 1
REMARK VINA RESULT:      -8.8      0.000      0.000
REMARK  Name = 
REMARK  7 active torsions:
REMARK  status: ('A' for Active; 'I' for Inactive)
REMARK    1  A    between atoms: C_1  and  C_2
REMARK    2  A    between atoms: C_5  and  C_6
REMARK    3  A    between atoms: C_6  and  N_7
REMARK    4  A    between atoms: N_10  and  C_11
REMARK    5  A    between atoms: N_14  and  S_15
REMARK    6  A    between atoms: S_15  and  C_18
REMARK    7  A    between atoms: C_21  and  C_22
REMARK                            x       y       z     vdW  Elec       q    Type
REMARK                         _______ _______ _______ _____ _____    ______ ____
ROOT
ATOM      1  N   UNL     1       1.256   9.344  19.709  0.00  0.00    +0.000 N 
ATOM      2  C   UNL     1       1.529   8.945  18.342  0.00  0.00    +0.000 C 
ATOM      3  C   UNL     1       2.694   7.957  18.281  0.00  0.00    +0.000 C 
ATOM      4  N   UNL     1       2.471   6.795  19.134  0.00  0.00    +0.000 N 
ATOM      5  C   UNL     1       1.728   6.949  20.321  0.00  0.00    +0.000 C 
ATOM      6  O   UNL     1       1.442   6.010  21.061  0.00  0.00    +0.000 OA
ATOM      7  C   UNL     1       1.274   8.385  20.721  0.00  0.00    +0.000 C 
ATOM      8  O   UNL     1       0.978   8.623  21.886  0.00  0.00    +0.000 OA
ENDROOT
BRANCH   4   9
ATOM      9  C   UNL     1       3.167   5.505  18.901  0.00  0.00    +0.000 C 
ATOM     10  C   UNL     1       4.511   5.332  19.629  0.00  0.00    +0.000 C 
ATOM     11  C   UNL     1       5.760   5.646  18.809  0.00  0.00    +0.000 C 
ATOM     12  N   UNL     1       5.687   5.006  17.467  0.00  0.00    +0.000 NA
ATOM     13  C   UNL     1       4.504   5.517  16.714  0.00  0.00    +0.000 C 
ATOM     14  C   UNL     1       3.220   5.107  17.422  0.00  0.00    +0.000 C 
BRANCH  12  15
ATOM     15  S   UNL     1       7.141   5.142  16.536  0.00  0.00    +0.000 S 
ATOM     16  O   UNL     1       7.448   6.548  16.386  0.00  0.00    +0.000 OA
ATOM     17  O   UNL     1       8.096   4.228  17.131  0.00  0.00    +0.000 OA
BRANCH  15  18
ATOM     18  C   UNL     1       6.714   4.537  14.919  0.00  0.00    +0.000 A 
ATOM     19  C   UNL     1       7.517   4.872  13.826  0.00  0.00    +0.000 A 
ATOM     20  C   UNL     1       7.225   4.341  12.565  0.00  0.00    +0.000 A 
ATOM     21  C   UNL     1       6.138   3.475  12.390  0.00  0.00    +0.000 A 
ATOM     22  C   UNL     1       5.817   2.899  11.039  0.00  0.00    +0.000 C 
ATOM     23  C   UNL     1       5.355   3.128  13.500  0.00  0.00    +0.000 A 
ATOM     24  C   UNL     1       5.639   3.656  14.763  0.00  0.00    +0.000 A 
ENDBRANCH  15  18
ENDBRANCH  12  15
ENDBRANCH   4   9
BRANCH   1  25
ATOM     25  C   UNL     1       0.776  10.692  19.987  0.00  0.00    +0.000 C 
BRANCH  25  30
ATOM     26  C   UNL     1      -4.583  11.760  17.931  0.00  0.00    +0.000 C 
ATOM     27  C   UNL     1      -3.231  11.456  18.510  0.00  0.00    +0.000 A 
ATOM     28  C   UNL     1      -2.723  12.188  19.588  0.00  0.00    +0.000 A 
ATOM     29  C   UNL     1      -1.441  11.923  20.087  0.00  0.00    +0.000 A 
ATOM     30  C   UNL     1      -0.643  10.922  19.515  0.00  0.00    +0.000 A 
ATOM     31  C   UNL     1      -1.163  10.186  18.441  0.00  0.00    +0.000 A 
ATOM     32  C   UNL     1      -2.443  10.448  17.945  0.00  0.00    +0.000 A 
ENDBRANCH  25  30
ENDBRANCH   1  25
TORSDOF 5
ENDMDL
MODEL 2
REMARK VINA RESULT:      -8.4      0.518      1.217
REMARK  Name = 
REMARK  7 active torsions:
REMARK  status: ('A' for Active; 'I' for Inactive)
REMARK    1  A    between atoms: C_1  and  C_2
REMARK    2  A    between atoms: C_5  and  C_6
REMARK    3  A    between atoms: C_6  and  N_7
REMARK    4  A    between atoms: N_10  and  C_11
REMARK    5  A    between atoms: N_14  and  S_15
REMARK    6  A    between atoms: S_15  and  C_18
REMARK    7  A    between atoms: C_21  and  C_22
REMARK                            x       y       z     vdW  Elec       q    Type
REMARK                         _______ _______ _______ _____ _____    ______ ____
ROOT
ATOM      1  N   UNL     1       1.295   9.210  19.571  0.00  0.00    +0.000 N 
ATOM      2  C   UNL     1       1.643   8.792  18.226  0.00  0.00    +0.000 C 
ATOM      3  C   UNL     1       2.841   7.842  18.240  0.00  0.00    +0.000 C 
ATOM      4  N   UNL     1       2.615   6.691  19.108  0.00  0.00    +0.000 N 
ATOM      5  C   UNL     1       1.814   6.845  20.256  0.00  0.00    +0.000 C 
ATOM      6  O   UNL     1       1.524   5.913  21.003  0.00  0.00    +0.000 OA
ATOM      7  C   UNL     1       1.297   8.274  20.604  0.00  0.00    +0.000 C 
ATOM      8  O   UNL     1       0.941   8.526  21.749  0.00  0.00    +0.000 OA
ENDROOT
BRANCH   4   9
ATOM      9  C   UNL     1       3.362   5.420  18.935  0.00  0.00    +0.000 C 
ATOM     10  C   UNL     1       4.729   5.349  19.639  0.00  0.00    +0.000 C 
ATOM     11  C   UNL     1       5.944   5.665  18.769  0.00  0.00    +0.000 C 
ATOM     12  N   UNL     1       5.869   4.942  17.471  0.00  0.00    +0.000 NA
ATOM     13  C   UNL     1       4.647   5.355  16.719  0.00  0.00    +0.000 C 
ATOM     14  C   UNL     1       3.399   4.934  17.482  0.00  0.00    +0.000 C 
BRANCH  12  15
ATOM     15  S   UNL     1       7.294   5.082  16.498  0.00  0.00    +0.000 S 
ATOM     16  O   UNL     1       7.579   6.489  16.319  0.00  0.00    +0.000 OA
ATOM     17  O   UNL     1       8.277   4.189  17.077  0.00  0.00    +0.000 OA
BRANCH  15  18
ATOM     18  C   UNL     1       6.829   4.448  14.902  0.00  0.00    +0.000 A 
ATOM     19  C   UNL     1       5.773   3.538  14.806  0.00  0.00    +0.000 A 
ATOM     20  C   UNL     1       5.358   3.092  13.547  0.00  0.00    +0.000 A 
ATOM     21  C   UNL     1       5.989   3.551  12.383  0.00  0.00    +0.000 A 
ATOM     22  C   UNL     1       5.549   3.077  11.026  0.00  0.00    +0.000 C 
ATOM     23  C   UNL     1       7.031   4.483  12.493  0.00  0.00    +0.000 A 
ATOM     24  C   UNL     1       7.453   4.932  13.748  0.00  0.00    +0.000 A 
ENDBRANCH  15  18
ENDBRANCH  12  15
ENDBRANCH   4   9
BRANCH   1  25
ATOM     25  C   UNL     1       0.761  10.547  19.797  0.00  0.00    +0.000 C 
BRANCH  25  30
ATOM     26  C   UNL     1      -4.282  11.655  17.069  0.00  0.00    +0.000 C 
ATOM     27  C   UNL     1      -2.961  11.348  17.715  0.00  0.00    +0.000 A 
ATOM     28  C   UNL     1      -2.609  10.037  18.056  0.00  0.00    +0.000 A 
ATOM     29  C   UNL     1      -1.393   9.773  18.701  0.00  0.00    +0.000 A 
ATOM     30  C   UNL     1      -0.510  10.814  19.019  0.00  0.00    +0.000 A 
ATOM     31  C   UNL     1      -0.866  12.123  18.666  0.00  0.00    +0.000 A 
ATOM     32  C   UNL     1      -2.077  12.387  18.020  0.00  0.00    +0.000 A 
ENDBRANCH  25  30
ENDBRANCH   1  25
TORSDOF 5
ENDMDL
MODEL 3
REMARK VINA RESULT:      -8.1      6.701      9.628
REMARK  Name = 
REMARK  7 active torsions:
REMARK  status: ('A' for Active; 'I' for Inactive)
REMARK    1  A    between atoms: C_1  and  C_2
REMARK    2  A    between atoms: C_5  and  C_6
REMARK    3  A    between atoms: C_6  and  N_7
REMARK    4  A    between atoms: N_10  and  C_11
REMARK    5  A    between atoms: N_14  and  S_15
REMARK    6  A    between atoms: S_15  and  C_18
REMARK    7  A    between atoms: C_21  and  C_22
REMARK                            x       y       z     vdW  Elec       q    Type
REMARK                         _______ _______ _______ _____ _____    ______ ____
ROOT
ATOM      1  N   UNL     1       0.471  12.176  19.740  0.00  0.00    +0.000 N 
ATOM      2  C   UNL     1       1.648  12.624  20.459  0.00  0.00    +0.000 C 
ATOM      3  C   UNL     1       2.501  13.551  19.592  0.00  0.00    +0.000 C 
ATOM      4  N   UNL     1       1.734  14.681  19.081  0.00  0.00    +0.000 N 
ATOM      5  C   UNL     1       0.362  14.511  18.808  0.00  0.00    +0.000 C 
ATOM      6  O   UNL     1      -0.368  15.428  18.436  0.00  0.00    +0.000 OA
ATOM      7  C   UNL     1      -0.245  13.084  18.960  0.00  0.00    +0.000 C 
ATOM      8  O   UNL     1      -1.291  12.807  18.386  0.00  0.00    +0.000 OA
ENDROOT
BRANCH   4   9
ATOM      9  C   UNL     1       2.387  15.942  18.649  0.00  0.00    +0.000 C 
ATOM     10  C   UNL     1       3.634  15.776  17.763  0.00  0.00    +0.000 C 
ATOM     11  C   UNL     1       4.978  15.847  18.483  0.00  0.00    +0.000 C 
ATOM     12  N   UNL     1       5.021  17.007  19.414  0.00  0.00    +0.000 NA
ATOM     13  C   UNL     1       3.952  16.878  20.449  0.00  0.00    +0.000 C 
ATOM     14  C   UNL     1       2.581  16.944  19.792  0.00  0.00    +0.000 C 
BRANCH  12  15
ATOM     15  S   UNL     1       6.572  17.285  20.131  0.00  0.00    +0.000 S 
ATOM     16  O   UNL     1       7.020  18.602  19.734  0.00  0.00    +0.000 OA
ATOM     17  O   UNL     1       6.449  16.928  21.530  0.00  0.00    +0.000 OA
BRANCH  15  18
ATOM     18  C   UNL     1       7.661  16.117  19.346  0.00  0.00    +0.000 A 
ATOM     19  C   UNL     1       8.465  16.536  18.283  0.00  0.00    +0.000 A 
ATOM     20  C   UNL     1       9.374  15.641  17.709  0.00  0.00    +0.000 A 
ATOM     21  C   UNL     1       9.486  14.330  18.192  0.00  0.00    +0.000 A 
ATOM     22  C   UNL     1      10.460  13.361  17.582  0.00  0.00    +0.000 C 
ATOM     23  C   UNL     1       8.690  13.931  19.275  0.00  0.00    +0.000 A 
ATOM     24  C   UNL     1       7.778  14.820  19.853  0.00  0.00    +0.000 A 
ENDBRANCH  15  18
ENDBRANCH  12  15
ENDBRANCH   4   9
BRANCH   1  25
ATOM     25  C   UNL     1      -0.066  10.844  19.990  0.00  0.00    +0.000 C 
BRANCH  25  30
ATOM     26  C   UNL     1       3.236   6.437  18.050  0.00  0.00    +0.000 C 
ATOM     27  C   UNL     1       2.438   7.594  18.579  0.00  0.00    +0.000 A 
ATOM     28  C   UNL     1       2.005   7.627  19.909  0.00  0.00    +0.000 A 
ATOM     29  C   UNL     1       1.222   8.691  20.375  0.00  0.00    +0.000 A 
ATOM     30  C   UNL     1       0.855   9.740  19.519  0.00  0.00    +0.000 A 
ATOM     31  C   UNL     1       1.302   9.703  18.191  0.00  0.00    +0.000 A 
ATOM     32  C   UNL     1       2.085   8.644  17.726  0.00  0.00    +0.000 A 
ENDBRANCH  25  30
ENDBRANCH   1  25
TORSDOF 5
ENDMDL
MODEL 4
REMARK VINA RESULT:      -8.1      6.308      8.878
REMARK  Name = 
REMARK  7 active torsions:
REMARK  status: ('A' for Active; 'I' for Inactive)
REMARK    1  A    between atoms: C_1  and  C_2
REMARK    2  A    between atoms: C_5  and  C_6
REMARK    3  A    between atoms: C_6  and  N_7
REMARK    4  A    between atoms: N_10  and  C_11
REMARK    5  A    between atoms: N_14  and  S_15
REMARK    6  A    between atoms: S_15  and  C_18
REMARK    7  A    between atoms: C_21  and  C_22
REMARK                            x       y       z     vdW  Elec       q    Type
REMARK                         _______ _______ _______ _____ _____    ______ ____
ROOT
ATOM      1  N   UNL     1       1.398  12.565  19.480  0.00  0.00    +0.000 N 
ATOM      2  C   UNL     1       2.498  12.857  18.582  0.00  0.00    +0.000 C 
ATOM      3  C   UNL     1       2.891  14.333  18.658  0.00  0.00    +0.000 C 
ATOM      4  N   UNL     1       3.201  14.746  20.022  0.00  0.00    +0.000 N 
ATOM      5  C   UNL     1       2.525  14.133  21.095  0.00  0.00    +0.000 C 
ATOM      6  O   UNL     1       2.771  14.379  22.273  0.00  0.00    +0.000 OA
ATOM      7  C   UNL     1       1.392  13.115  20.762  0.00  0.00    +0.000 C 
ATOM      8  O   UNL     1       0.543  12.856  21.607  0.00  0.00    +0.000 OA
ENDROOT
BRANCH   4   9
ATOM      9  C   UNL     1       4.051  15.928  20.310  0.00  0.00    +0.000 C 
ATOM     10  C   UNL     1       4.553  16.704  19.079  0.00  0.00    +0.000 C 
ATOM     11  C   UNL     1       5.963  16.360  18.603  0.00  0.00    +0.000 C 
ATOM     12  N   UNL     1       6.913  16.317  19.747  0.00  0.00    +0.000 NA
ATOM     13  C   UNL     1       6.494  15.274  20.729  0.00  0.00    +0.000 C 
ATOM     14  C   UNL     1       5.150  15.644  21.340  0.00  0.00    +0.000 C 
BRANCH  12  15
ATOM     15  S   UNL     1       8.571  16.128  19.286  0.00  0.00    +0.000 S 
ATOM     16  O   UNL     1       8.725  16.646  17.944  0.00  0.00    +0.000 OA
ATOM     17  O   UNL     1       9.365  16.647  20.382  0.00  0.00    +0.000 OA
BRANCH  15  18
ATOM     18  C   UNL     1       8.827  14.370  19.188  0.00  0.00    +0.000 A 
ATOM     19  C   UNL     1       8.523  13.698  18.003  0.00  0.00    +0.000 A 
ATOM     20  C   UNL     1       8.789  12.328  17.896  0.00  0.00    +0.000 A 
ATOM     21  C   UNL     1       9.359  11.627  18.967  0.00  0.00    +0.000 A 
ATOM     22  C   UNL     1       9.649  10.156  18.863  0.00  0.00    +0.000 C 
ATOM     23  C   UNL     1       9.682  12.320  20.143  0.00  0.00    +0.000 A 
ATOM     24  C   UNL     1       9.417  13.689  20.257  0.00  0.00    +0.000 A 
ENDBRANCH  15  18
ENDBRANCH  12  15
ENDBRANCH   4   9
BRANCH   1  25
ATOM     25  C   UNL     1       0.415  11.553  19.114  0.00  0.00    +0.000 C 
BRANCH  25  30
ATOM     26  C   UNL     1       2.813   6.241  19.474  0.00  0.00    +0.000 C 
ATOM     27  C   UNL     1       2.146   7.581  19.351  0.00  0.00    +0.000 A 
ATOM     28  C   UNL     1       2.155   8.286  18.142  0.00  0.00    +0.000 A 
ATOM     29  C   UNL     1       1.569   9.556  18.055  0.00  0.00    +0.000 A 
ATOM     30  C   UNL     1       0.967  10.145  19.176  0.00  0.00    +0.000 A 
ATOM     31  C   UNL     1       0.955   9.429  20.381  0.00  0.00    +0.000 A 
ATOM     32  C   UNL     1       1.536   8.161  20.467  0.00  0.00    +0.000 A 
ENDBRANCH  25  30
ENDBRANCH   1  25
TORSDOF 5
ENDMDL
MODEL 5
REMARK VINA RESULT:      -8.1      1.576      2.332
REMARK  Name = 
REMARK  7 active torsions:
REMARK  status: ('A' for Active; 'I' for Inactive)
REMARK    1  A    between atoms: C_1  and  C_2
REMARK    2  A    between atoms: C_5  and  C_6
REMARK    3  A    between atoms: C_6  and  N_7
REMARK    4  A    between atoms: N_10  and  C_11
REMARK    5  A    between atoms: N_14  and  S_15
REMARK    6  A    between atoms: S_15  and  C_18
REMARK    7  A    between atoms: C_21  and  C_22
REMARK                            x       y       z     vdW  Elec       q    Type
REMARK                         _______ _______ _______ _____ _____    ______ ____
ROOT
ATOM      1  N   UNL     1       0.991  10.591  20.617  0.00  0.00    +0.000 N 
ATOM      2  C   UNL     1       0.766  10.356  19.203  0.00  0.00    +0.000 C 
ATOM      3  C   UNL     1       1.706   9.273  18.672  0.00  0.00    +0.000 C 
ATOM      4  N   UNL     1       1.600   8.035  19.435  0.00  0.00    +0.000 N 
ATOM      5  C   UNL     1       1.292   8.100  20.808  0.00  0.00    +0.000 C 
ATOM      6  O   UNL     1       1.123   7.103  21.508  0.00  0.00    +0.000 OA
ATOM      7  C   UNL     1       1.190   9.507  21.471  0.00  0.00    +0.000 C 
ATOM      8  O   UNL     1       1.307   9.614  22.686  0.00  0.00    +0.000 OA
ENDROOT
BRANCH   4   9
ATOM      9  C   UNL     1       2.003   6.725  18.866  0.00  0.00    +0.000 C 
ATOM     10  C   UNL     1       2.878   5.844  19.774  0.00  0.00    +0.000 C 
ATOM     11  C   UNL     1       4.383   5.915  19.524  0.00  0.00    +0.000 C 
ATOM     12  N   UNL     1       4.684   5.810  18.071  0.00  0.00    +0.000 NA
ATOM     13  C   UNL     1       4.041   6.934  17.326  0.00  0.00    +0.000 C 
ATOM     14  C   UNL     1       2.527   6.827  17.429  0.00  0.00    +0.000 C 
BRANCH  12  15
ATOM     15  S   UNL     1       6.371   5.684  17.703  0.00  0.00    +0.000 S 
ATOM     16  O   UNL     1       6.908   7.024  17.597  0.00  0.00    +0.000 OA
ATOM     17  O   UNL     1       6.926   4.729  18.640  0.00  0.00    +0.000 OA
BRANCH  15  18
ATOM     18  C   UNL     1       6.438   4.977  16.071  0.00  0.00    +0.000 A 
ATOM     19  C   UNL     1       5.443   4.083  15.670  0.00  0.00    +0.000 A 
ATOM     20  C   UNL     1       5.451   3.580  14.364  0.00  0.00    +0.000 A 
ATOM     21  C   UNL     1       6.447   3.967  13.457  0.00  0.00    +0.000 A 
ATOM     22  C   UNL     1       6.464   3.431  12.053  0.00  0.00    +0.000 C 
ATOM     23  C   UNL     1       7.425   4.883  13.866  0.00  0.00    +0.000 A 
ATOM     24  C   UNL     1       7.424   5.389  15.170  0.00  0.00    +0.000 A 
ENDBRANCH  15  18
ENDBRANCH  12  15
ENDBRANCH   4   9
BRANCH   1  25
ATOM     25  C   UNL     1       0.813  11.931  21.163  0.00  0.00    +0.000 C 
BRANCH  25  30
ATOM     26  C   UNL     1      -4.826  12.863  22.355  0.00  0.00    +0.000 C 
ATOM     27  C   UNL     1      -3.367  12.687  22.047  0.00  0.00    +0.000 A 
ATOM     28  C   UNL     1      -2.870  12.884  20.754  0.00  0.00    +0.000 A 
ATOM     29  C   UNL     1      -1.515  12.670  20.473  0.00  0.00    +0.000 A 
ATOM     30  C   UNL     1      -0.632  12.252  21.479  0.00  0.00    +0.000 A 
ATOM     31  C   UNL     1      -1.135  12.066  22.773  0.00  0.00    +0.000 A 
ATOM     32  C   UNL     1      -2.487  12.282  23.055  0.00  0.00    +0.000 A 
ENDBRANCH  25  30
ENDBRANCH   1  25
TORSDOF 5
ENDMDL
MODEL 6
REMARK VINA RESULT:      -8.0      4.814      9.684
REMARK  Name = 
REMARK  7 active torsions:
REMARK  status: ('A' for Active; 'I' for Inactive)
REMARK    1  A    between atoms: C_1  and  C_2
REMARK    2  A    between atoms: C_5  and  C_6
REMARK    3  A    between atoms: C_6  and  N_7
REMARK    4  A    between atoms: N_10  and  C_11
REMARK    5  A    between atoms: N_14  and  S_15
REMARK    6  A    between atoms: S_15  and  C_18
REMARK    7  A    between atoms: C_21  and  C_22
REMARK                            x       y       z     vdW  Elec       q    Type
REMARK                         _______ _______ _______ _____ _____    ______ ____
ROOT
ATOM      1  N   UNL     1       1.731   8.428  19.656  0.00  0.00    +0.000 N 
ATOM      2  C   UNL     1       1.084   8.643  20.936  0.00  0.00    +0.000 C 
ATOM      3  C   UNL     1       0.733  10.118  21.133  0.00  0.00    +0.000 C 
ATOM      4  N   UNL     1      -0.079  10.637  20.038  0.00  0.00    +0.000 N 
ATOM      5  C   UNL     1       0.101  10.113  18.743  0.00  0.00    +0.000 C 
ATOM      6  O   UNL     1      -0.585  10.450  17.780  0.00  0.00    +0.000 OA
ATOM      7  C   UNL     1       1.245   9.078  18.523  0.00  0.00    +0.000 C 
ATOM      8  O   UNL     1       1.683   8.891  17.394  0.00  0.00    +0.000 OA
ENDROOT
BRANCH   4   9
ATOM      9  C   UNL     1      -0.942  11.834  20.200  0.00  0.00    +0.000 C 
ATOM     10  C   UNL     1      -1.034  12.760  18.975  0.00  0.00    +0.000 C 
ATOM     11  C   UNL     1      -0.108  13.974  18.985  0.00  0.00    +0.000 C 
ATOM     12  N   UNL     1      -0.158  14.668  20.300  0.00  0.00    +0.000 NA
ATOM     13  C   UNL     1       0.282  13.746  21.389  0.00  0.00    +0.000 C 
ATOM     14  C   UNL     1      -0.693  12.584  21.513  0.00  0.00    +0.000 C 
BRANCH  12  15
ATOM     15  S   UNL     1       0.707  16.167  20.345  0.00  0.00    +0.000 S 
ATOM     16  O   UNL     1       0.037  17.099  19.464  0.00  0.00    +0.000 OA
ATOM     17  O   UNL     1       0.915  16.480  21.745  0.00  0.00    +0.000 OA
BRANCH  15  18
ATOM     18  C   UNL     1       2.286  15.812  19.607  0.00  0.00    +0.000 A 
ATOM     19  C   UNL     1       3.277  15.190  20.370  0.00  0.00    +0.000 A 
ATOM     20  C   UNL     1       4.495  14.844  19.774  0.00  0.00    +0.000 A 
ATOM     21  C   UNL     1       4.728  15.114  18.419  0.00  0.00    +0.000 A 
ATOM     22  C   UNL     1       6.032  14.747  17.770  0.00  0.00    +0.000 C 
ATOM     23  C   UNL     1       3.716  15.717  17.659  0.00  0.00    +0.000 A 
ATOM     24  C   UNL     1       2.496  16.067  18.248  0.00  0.00    +0.000 A 
ENDBRANCH  15  18
ENDBRANCH  12  15
ENDBRANCH   4   9
BRANCH   1  25
ATOM     25  C   UNL     1       2.751   7.395  19.527  0.00  0.00    +0.000 C 
BRANCH  25  30
ATOM     26  C   UNL     1       0.783   1.942  18.833  0.00  0.00    +0.000 C 
ATOM     27  C   UNL     1       1.234   3.366  18.987  0.00  0.00    +0.000 A 
ATOM     28  C   UNL     1       1.667   4.112  17.885  0.00  0.00    +0.000 A 
ATOM     29  C   UNL     1       2.128   5.424  18.053  0.00  0.00    +0.000 A 
ATOM     30  C   UNL     1       2.168   6.013  19.325  0.00  0.00    +0.000 A 
ATOM     31  C   UNL     1       1.724   5.262  20.422  0.00  0.00    +0.000 A 
ATOM     32  C   UNL     1       1.260   3.954  20.255  0.00  0.00    +0.000 A 
ENDBRANCH  25  30
ENDBRANCH   1  25
TORSDOF 5
ENDMDL
MODEL 7
REMARK VINA RESULT:      -8.0      6.372      9.857
REMARK  Name = 
REMARK  7 active torsions:
REMARK  status: ('A' for Active; 'I' for Inactive)
REMARK    1  A    between atoms: C_1  and  C_2
REMARK    2  A    between atoms: C_5  and  C_6
REMARK    3  A    between atoms: C_6  and  N_7
REMARK    4  A    between atoms: N_10  and  C_11
REMARK    5  A    between atoms: N_14  and  S_15
REMARK    6  A    between atoms: S_15  and  C_18
REMARK    7  A    between atoms: C_21  and  C_22
REMARK                            x       y       z     vdW  Elec       q    Type
REMARK                         _______ _______ _______ _____ _____    ______ ____
ROOT
ATOM      1  N   UNL     1       0.631  11.981  20.019  0.00  0.00    +0.000 N 
ATOM      2  C   UNL     1       1.820  12.556  20.618  0.00  0.00    +0.000 C 
ATOM      3  C   UNL     1       2.582  13.416  19.609  0.00  0.00    +0.000 C 
ATOM      4  N   UNL     1       1.736  14.449  19.022  0.00  0.00    +0.000 N 
ATOM      5  C   UNL     1       0.362  14.192  18.846  0.00  0.00    +0.000 C 
ATOM      6  O   UNL     1      -0.430  15.029  18.419  0.00  0.00    +0.000 OA
ATOM      7  C   UNL     1      -0.166  12.765  19.186  0.00  0.00    +0.000 C 
ATOM      8  O   UNL     1      -1.226  12.382  18.705  0.00  0.00    +0.000 OA
ENDROOT
BRANCH   4   9
ATOM      9  C   UNL     1       2.304  15.681  18.420  0.00  0.00    +0.000 C 
ATOM     10  C   UNL     1       3.563  15.482  17.559  0.00  0.00    +0.000 C 
ATOM     11  C   UNL     1       4.896  15.741  18.257  0.00  0.00    +0.000 C 
ATOM     12  N   UNL     1       4.855  17.017  19.022  0.00  0.00    +0.000 NA
ATOM     13  C   UNL     1       3.792  16.958  20.070  0.00  0.00    +0.000 C 
ATOM     14  C   UNL     1       2.423  16.840  19.416  0.00  0.00    +0.000 C 
BRANCH  12  15
ATOM     15  S   UNL     1       6.380  17.495  19.688  0.00  0.00    +0.000 S 
ATOM     16  O   UNL     1       7.259  17.841  18.592  0.00  0.00    +0.000 OA
ATOM     17  O   UNL     1       6.089  18.448  20.741  0.00  0.00    +0.000 OA
BRANCH  15  18
ATOM     18  C   UNL     1       7.044  16.021  20.430  0.00  0.00    +0.000 A 
ATOM     19  C   UNL     1       6.488  15.540  21.617  0.00  0.00    +0.000 A 
ATOM     20  C   UNL     1       6.959  14.342  22.166  0.00  0.00    +0.000 A 
ATOM     21  C   UNL     1       7.981  13.621  21.535  0.00  0.00    +0.000 A 
ATOM     22  C   UNL     1       8.494  12.334  22.116  0.00  0.00    +0.000 C 
ATOM     23  C   UNL     1       8.514  14.104  20.330  0.00  0.00    +0.000 A 
ATOM     24  C   UNL     1       8.049  15.301  19.777  0.00  0.00    +0.000 A 
ENDBRANCH  15  18
ENDBRANCH  12  15
ENDBRANCH   4   9
BRANCH   1  25
ATOM     25  C   UNL     1       0.174  10.663  20.441  0.00  0.00    +0.000 C 
BRANCH  25  30
ATOM     26  C   UNL     1       3.337   6.433  17.953  0.00  0.00    +0.000 C 
ATOM     27  C   UNL     1       2.472   7.498  18.563  0.00  0.00    +0.000 A 
ATOM     28  C   UNL     1       2.046   8.602  17.816  0.00  0.00    +0.000 A 
ATOM     29  C   UNL     1       1.278   9.610  18.413  0.00  0.00    +0.000 A 
ATOM     30  C   UNL     1       0.924   9.535  19.767  0.00  0.00    +0.000 A 
ATOM     31  C   UNL     1       1.346   8.421  20.506  0.00  0.00    +0.000 A 
ATOM     32  C   UNL     1       2.110   7.413  19.911  0.00  0.00    +0.000 A 
ENDBRANCH  25  30
ENDBRANCH   1  25
TORSDOF 5
ENDMDL
MODEL 8
REMARK VINA RESULT:      -8.0      5.612      9.123
REMARK  Name = 
REMARK  7 active torsions:
REMARK  status: ('A' for Active; 'I' for Inactive)
REMARK    1  A    between atoms: C_1  and  C_2
REMARK    2  A    between atoms: C_5  and  C_6
REMARK    3  A    between atoms: C_6  and  N_7
REMARK    4  A    between atoms: N_10  and  C_11
REMARK    5  A    between atoms: N_14  and  S_15
REMARK    6  A    between atoms: S_15  and  C_18
REMARK    7  A    between atoms: C_21  and  C_22
REMARK                            x       y       z     vdW  Elec       q    Type
REMARK                         _______ _______ _______ _____ _____    ______ ____
ROOT
ATOM      1  N   UNL     1       1.469   9.962  18.562  0.00  0.00    +0.000 N 
ATOM      2  C   UNL     1       2.576  10.796  18.134  0.00  0.00    +0.000 C 
ATOM      3  C   UNL     1       2.220  12.279  18.247  0.00  0.00    +0.000 C 
ATOM      4  N   UNL     1       1.781  12.635  19.592  0.00  0.00    +0.000 N 
ATOM      5  C   UNL     1       1.097  11.676  20.366  0.00  0.00    +0.000 C 
ATOM      6  O   UNL     1       0.750  11.875  21.528  0.00  0.00    +0.000 OA
ATOM      7  C   UNL     1       0.744  10.312  19.700  0.00  0.00    +0.000 C 
ATOM      8  O   UNL     1      -0.152   9.622  20.172  0.00  0.00    +0.000 OA
ENDROOT
BRANCH   4   9
ATOM      9  C   UNL     1       1.849  14.029  20.096  0.00  0.00    +0.000 C 
ATOM     10  C   UNL     1       1.970  15.122  19.021  0.00  0.00    +0.000 C 
ATOM     11  C   UNL     1       3.383  15.626  18.738  0.00  0.00    +0.000 C 
ATOM     12  N   UNL     1       4.108  15.912  20.006  0.00  0.00    +0.000 NA
ATOM     13  C   UNL     1       4.219  14.670  20.829  0.00  0.00    +0.000 C 
ATOM     14  C   UNL     1       2.836  14.204  21.256  0.00  0.00    +0.000 C 
BRANCH  12  15
ATOM     15  S   UNL     1       5.648  16.672  19.788  0.00  0.00    +0.000 S 
ATOM     16  O   UNL     1       5.542  17.588  18.672  0.00  0.00    +0.000 OA
ATOM     17  O   UNL     1       6.068  17.133  21.096  0.00  0.00    +0.000 OA
BRANCH  15  18
ATOM     18  C   UNL     1       6.741  15.365  19.274  0.00  0.00    +0.000 A 
ATOM     19  C   UNL     1       6.639  14.856  17.977  0.00  0.00    +0.000 A 
ATOM     20  C   UNL     1       7.542  13.878  17.545  0.00  0.00    +0.000 A 
ATOM     21  C   UNL     1       8.548  13.409  18.400  0.00  0.00    +0.000 A 
ATOM     22  C   UNL     1       9.523  12.359  17.946  0.00  0.00    +0.000 C 
ATOM     23  C   UNL     1       8.654  13.947  19.691  0.00  0.00    +0.000 A 
ATOM     24  C   UNL     1       7.753  14.923  20.130  0.00  0.00    +0.000 A 
ENDBRANCH  15  18
ENDBRANCH  12  15
ENDBRANCH   4   9
BRANCH   1  25
ATOM     25  C   UNL     1       1.249   8.671  17.922  0.00  0.00    +0.000 C 
BRANCH  25  30
ATOM     26  C   UNL     1       5.238   4.551  19.016  0.00  0.00    +0.000 C 
ATOM     27  C   UNL     1       4.240   5.647  18.779  0.00  0.00    +0.000 A 
ATOM     28  C   UNL     1       3.194   5.882  19.678  0.00  0.00    +0.000 A 
ATOM     29  C   UNL     1       2.244   6.878  19.418  0.00  0.00    +0.000 A 
ATOM     30  C   UNL     1       2.321   7.657  18.255  0.00  0.00    +0.000 A 
ATOM     31  C   UNL     1       3.378   7.422  17.364  0.00  0.00    +0.000 A 
ATOM     32  C   UNL     1       4.328   6.430  17.624  0.00  0.00    +0.000 A 
ENDBRANCH  25  30
ENDBRANCH   1  25
TORSDOF 5
ENDMDL
MODEL 9
REMARK VINA RESULT:      -7.8      5.909      9.022
REMARK  Name = 
REMARK  7 active torsions:
REMARK  status: ('A' for Active; 'I' for Inactive)
REMARK    1  A    between atoms: C_1  and  C_2
REMARK    2  A    between atoms: C_5  and  C_6
REMARK    3  A    between atoms: C_6  and  N_7
REMARK    4  A    between atoms: N_10  and  C_11
REMARK    5  A    between atoms: N_14  and  S_15
REMARK    6  A    between atoms: S_15  and  C_18
REMARK    7  A    between atoms: C_21  and  C_22
REMARK                            x       y       z     vdW  Elec       q    Type
REMARK                         _______ _______ _______ _____ _____    ______ ____
ROOT
ATOM      1  N   UNL     1       1.378  10.841  18.636  0.00  0.00    +0.000 N 
ATOM      2  C   UNL     1       2.603  11.464  18.172  0.00  0.00    +0.000 C 
ATOM      3  C   UNL     1       2.526  12.986  18.297  0.00  0.00    +0.000 C 
ATOM      4  N   UNL     1       2.203  13.407  19.656  0.00  0.00    +0.000 N 
ATOM      5  C   UNL     1       1.383  12.583  20.452  0.00  0.00    +0.000 C 
ATOM      6  O   UNL     1       1.115  12.834  21.625  0.00  0.00    +0.000 OA
ATOM      7  C   UNL     1       0.766  11.311  19.797  0.00  0.00    +0.000 C 
ATOM      8  O   UNL     1      -0.224  10.791  20.299  0.00  0.00    +0.000 OA
ENDROOT
BRANCH   4   9
ATOM      9  C   UNL     1       2.539  14.762  20.158  0.00  0.00    +0.000 C 
ATOM     10  C   UNL     1       2.797  15.828  19.079  0.00  0.00    +0.000 C 
ATOM     11  C   UNL     1       4.262  16.080  18.726  0.00  0.00    +0.000 C 
ATOM     12  N   UNL     1       5.087  16.221  19.957  0.00  0.00    +0.000 NA
ATOM     13  C   UNL     1       5.019  14.971  20.771  0.00  0.00    +0.000 C 
ATOM     14  C   UNL     1       3.598  14.749  21.267  0.00  0.00    +0.000 C 
BRANCH  12  15
ATOM     15  S   UNL     1       6.724  16.702  19.662  0.00  0.00    +0.000 S 
ATOM     16  O   UNL     1       6.730  17.597  18.525  0.00  0.00    +0.000 OA
ATOM     17  O   UNL     1       7.267  17.114  20.940  0.00  0.00    +0.000 OA
BRANCH  15  18
ATOM     18  C   UNL     1       7.557  15.216  19.148  0.00  0.00    +0.000 A 
ATOM     19  C   UNL     1       8.398  14.555  20.046  0.00  0.00    +0.000 A 
ATOM     20  C   UNL     1       9.000  13.349  19.671  0.00  0.00    +0.000 A 
ATOM     21  C   UNL     1       8.764  12.798  18.404  0.00  0.00    +0.000 A 
ATOM     22  C   UNL     1       9.405  11.503  17.992  0.00  0.00    +0.000 C 
ATOM     23  C   UNL     1       7.898  13.460  17.522  0.00  0.00    +0.000 A 
ATOM     24  C   UNL     1       7.294  14.667  17.889  0.00  0.00    +0.000 A 
ENDBRANCH  15  18
ENDBRANCH  12  15
ENDBRANCH   4   9
BRANCH   1  25
ATOM     25  C   UNL     1       0.906   9.616  18.004  0.00  0.00    +0.000 C 
BRANCH  25  30
ATOM     26  C   UNL     1       4.466   5.190  19.356  0.00  0.00    +0.000 C 
ATOM     27  C   UNL     1       3.518   6.289  18.969  0.00  0.00    +0.000 A 
ATOM     28  C   UNL     1       3.639   6.951  17.742  0.00  0.00    +0.000 A 
ATOM     29  C   UNL     1       2.777   8.005  17.415  0.00  0.00    +0.000 A 
ATOM     30  C   UNL     1       1.780   8.419  18.310  0.00  0.00    +0.000 A 
ATOM     31  C   UNL     1       1.660   7.745  19.533  0.00  0.00    +0.000 A 
ATOM     32  C   UNL     1       2.518   6.691  19.859  0.00  0.00    +0.000 A 
ENDBRANCH  25  30
ENDBRANCH   1  25
TORSDOF 5
ENDMDL
