MODEL 1
REMARK VINA RESULT:      -7.4      0.000      0.000
REMARK  Name = 
REMARK  5 active torsions:
REMARK  status: ('A' for Active; 'I' for Inactive)
REMARK    1  A    between atoms: C_1  and  C_2
REMARK    2  A    between atoms: C_2  and  C_3
REMARK    3  A    between atoms: C_6  and  C_7
REMARK    4  A    between atoms: C_13  and  C_14
REMARK    5  A    between atoms: C_19  and  C_20
REMARK                            x       y       z     vdW  Elec       q    Type
REMARK                         _______ _______ _______ _____ _____    ______ ____
ROOT
ATOM      1  C   UNL     1       6.631   5.078  13.801  0.00  0.00    +0.000 C 
ATOM      2  C   UNL     1       6.380   4.942  15.305  0.00  0.00    +0.000 C 
ATOM      3  C   UNL     1       7.685   5.238  16.065  0.00  0.00    +0.000 C 
ATOM      4  C   UNL     1       5.261   5.938  15.768  0.00  0.00    +0.000 C 
ATOM      5  C   UNL     1       4.517   5.149  16.768  0.00  0.00    +0.000 A 
ATOM      6  C   UNL     1       3.614   5.262  17.793  0.00  0.00    +0.000 A 
ATOM      7  C   UNL     1       3.440   3.887  18.250  0.00  0.00    +0.000 A 
ATOM      8  N   UNL     1       4.206   3.037  17.527  0.00  0.00    +0.000 NA
ATOM      9  N   UNL     1       4.839   3.843  16.685  0.00  0.00    +0.000 N 
ATOM     10  C   UNL     1       5.839   3.524  15.679  0.00  0.00    +0.000 C 
ENDROOT
BRANCH   6  11
ATOM     11  C   UNL     1       3.039   6.527  18.229  0.00  0.00    +0.000 A 
ATOM     12  C   UNL     1       2.867   7.582  17.329  0.00  0.00    +0.000 A 
ATOM     13  C   UNL     1       2.260   8.745  17.773  0.00  0.00    +0.000 A 
ATOM     14  N   UNL     1       1.792   8.916  19.025  0.00  0.00    +0.000 NA
ATOM     15  C   UNL     1       1.973   7.891  19.883  0.00  0.00    +0.000 A 
ATOM     16  C   UNL     1       2.610   6.708  19.545  0.00  0.00    +0.000 A 
ENDBRANCH   6  11
BRANCH   7  17
ATOM     17  C   UNL     1       2.571   3.398  19.332  0.00  0.00    +0.000 A 
ATOM     18  C   UNL     1       1.216   3.787  19.347  0.00  0.00    +0.000 A 
ATOM     19  C   UNL     1       0.388   3.518  20.438  0.00  0.00    +0.000 A 
ATOM     20  C   UNL     1       0.873   2.775  21.506  0.00  0.00    +0.000 A 
ATOM     21  C   UNL     1       2.185   2.303  21.475  0.00  0.00    +0.000 A 
ATOM     22  C   UNL     1       3.045   2.615  20.404  0.00  0.00    +0.000 A 
BRANCH  22  23
ATOM     23  C   UNL     1       4.402   2.151  20.497  0.00  0.00    +0.000 C 
ATOM     24  N   UNL     1       5.463   1.688  20.615  0.00  0.00    +0.000 NA
ENDBRANCH  22  23
ENDBRANCH   7  17
TORSDOF 3
ENDMDL
MODEL 2
REMARK VINA RESULT:      -7.3      1.631      5.344
REMARK  Name = 
REMARK  5 active torsions:
REMARK  status: ('A' for Active; 'I' for Inactive)
REMARK    1  A    between atoms: C_1  and  C_2
REMARK    2  A    between atoms: C_2  and  C_3
REMARK    3  A    between atoms: C_6  and  C_7
REMARK    4  A    between atoms: C_13  and  C_14
REMARK    5  A    between atoms: C_19  and  C_20
REMARK                            x       y       z     vdW  Elec       q    Type
REMARK                         _______ _______ _______ _____ _____    ______ ____
ROOT
ATOM      1  C   UNL     1       1.108   2.332  22.231  0.00  0.00    +0.000 C 
ATOM      2  C   UNL     1       1.445   2.839  20.827  0.00  0.00    +0.000 C 
ATOM      3  C   UNL     1       0.399   2.307  19.831  0.00  0.00    +0.000 C 
ATOM      4  C   UNL     1       1.454   4.407  20.795  0.00  0.00    +0.000 C 
ATOM      5  C   UNL     1       2.583   4.707  19.894  0.00  0.00    +0.000 A 
ATOM      6  C   UNL     1       3.140   5.709  19.141  0.00  0.00    +0.000 A 
ATOM      7  C   UNL     1       4.309   5.074  18.540  0.00  0.00    +0.000 A 
ATOM      8  N   UNL     1       4.410   3.782  18.926  0.00  0.00    +0.000 NA
ATOM      9  N   UNL     1       3.349   3.615  19.704  0.00  0.00    +0.000 N 
ATOM     10  C   UNL     1       2.884   2.417  20.385  0.00  0.00    +0.000 C 
ENDROOT
BRANCH   6  11
ATOM     11  C   UNL     1       2.587   7.053  19.046  0.00  0.00    +0.000 A 
ATOM     12  C   UNL     1       2.632   7.760  17.842  0.00  0.00    +0.000 A 
ATOM     13  C   UNL     1       2.041   9.010  17.781  0.00  0.00    +0.000 A 
ATOM     14  N   UNL     1       1.391   9.584  18.813  0.00  0.00    +0.000 NA
ATOM     15  C   UNL     1       1.364   8.891  19.969  0.00  0.00    +0.000 A 
ATOM     16  C   UNL     1       1.966   7.656  20.141  0.00  0.00    +0.000 A 
ENDBRANCH   6  11
BRANCH   7  17
ATOM     17  C   UNL     1       5.299   5.680  17.634  0.00  0.00    +0.000 A 
ATOM     18  C   UNL     1       4.917   5.985  16.312  0.00  0.00    +0.000 A 
ATOM     19  C   UNL     1       5.850   6.380  15.352  0.00  0.00    +0.000 A 
ATOM     20  C   UNL     1       7.177   6.565  15.714  0.00  0.00    +0.000 A 
ATOM     21  C   UNL     1       7.564   6.354  17.037  0.00  0.00    +0.000 A 
ATOM     22  C   UNL     1       6.641   5.902  18.001  0.00  0.00    +0.000 A 
BRANCH  22  23
ATOM     23  C   UNL     1       7.148   5.638  19.320  0.00  0.00    +0.000 C 
ATOM     24  N   UNL     1       7.653   5.441  20.350  0.00  0.00    +0.000 NA
ENDBRANCH  22  23
ENDBRANCH   7  17
TORSDOF 3
ENDMDL
MODEL 3
REMARK VINA RESULT:      -7.3      1.383      5.391
REMARK  Name = 
REMARK  5 active torsions:
REMARK  status: ('A' for Active; 'I' for Inactive)
REMARK    1  A    between atoms: C_1  and  C_2
REMARK    2  A    between atoms: C_2  and  C_3
REMARK    3  A    between atoms: C_6  and  C_7
REMARK    4  A    between atoms: C_13  and  C_14
REMARK    5  A    between atoms: C_19  and  C_20
REMARK                            x       y       z     vdW  Elec       q    Type
REMARK                         _______ _______ _______ _____ _____    ______ ____
ROOT
ATOM      1  C   UNL     1       1.448   2.554  21.930  0.00  0.00    +0.000 C 
ATOM      2  C   UNL     1       1.646   2.805  20.433  0.00  0.00    +0.000 C 
ATOM      3  C   UNL     1       0.391   2.342  19.672  0.00  0.00    +0.000 C 
ATOM      4  C   UNL     1       1.897   4.329  20.159  0.00  0.00    +0.000 C 
ATOM      5  C   UNL     1       2.911   4.303  19.088  0.00  0.00    +0.000 A 
ATOM      6  C   UNL     1       3.499   5.082  18.125  0.00  0.00    +0.000 A 
ATOM      7  C   UNL     1       4.449   4.177  17.486  0.00  0.00    +0.000 A 
ATOM      8  N   UNL     1       4.403   2.948  18.051  0.00  0.00    +0.000 NA
ATOM      9  N   UNL     1       3.457   3.076  18.973  0.00  0.00    +0.000 N 
ATOM     10  C   UNL     1       2.917   2.080  19.884  0.00  0.00    +0.000 C 
ENDROOT
BRANCH   6  11
ATOM     11  C   UNL     1       3.158   6.479  17.895  0.00  0.00    +0.000 A 
ATOM     12  C   UNL     1       1.865   6.948  18.138  0.00  0.00    +0.000 A 
ATOM     13  C   UNL     1       1.601   8.296  17.963  0.00  0.00    +0.000 A 
ATOM     14  N   UNL     1       2.530   9.201  17.597  0.00  0.00    +0.000 NA
ATOM     15  C   UNL     1       3.771   8.730  17.360  0.00  0.00    +0.000 A 
ATOM     16  C   UNL     1       4.120   7.394  17.462  0.00  0.00    +0.000 A 
ENDBRANCH   6  11
BRANCH   7  17
ATOM     17  C   UNL     1       5.375   4.473  16.381  0.00  0.00    +0.000 A 
ATOM     18  C   UNL     1       4.921   4.330  15.054  0.00  0.00    +0.000 A 
ATOM     19  C   UNL     1       5.793   4.408  13.967  0.00  0.00    +0.000 A 
ATOM     20  C   UNL     1       7.130   4.720  14.177  0.00  0.00    +0.000 A 
ATOM     21  C   UNL     1       7.586   4.953  15.474  0.00  0.00    +0.000 A 
ATOM     22  C   UNL     1       6.726   4.822  16.582  0.00  0.00    +0.000 A 
BRANCH  22  23
ATOM     23  C   UNL     1       7.303   5.006  17.885  0.00  0.00    +0.000 C 
ATOM     24  N   UNL     1       7.684   5.206  18.966  0.00  0.00    +0.000 NA
ENDBRANCH  22  23
ENDBRANCH   7  17
TORSDOF 3
ENDMDL
MODEL 4
REMARK VINA RESULT:      -7.3      1.624      6.200
REMARK  Name = 
REMARK  5 active torsions:
REMARK  status: ('A' for Active; 'I' for Inactive)
REMARK    1  A    between atoms: C_1  and  C_2
REMARK    2  A    between atoms: C_2  and  C_3
REMARK    3  A    between atoms: C_6  and  C_7
REMARK    4  A    between atoms: C_13  and  C_14
REMARK    5  A    between atoms: C_19  and  C_20
REMARK                            x       y       z     vdW  Elec       q    Type
REMARK                         _______ _______ _______ _____ _____    ______ ____
ROOT
ATOM      1  C   UNL     1      -0.571   9.470  20.864  0.00  0.00    +0.000 C 
ATOM      2  C   UNL     1       0.844   8.891  20.790  0.00  0.00    +0.000 C 
ATOM      3  C   UNL     1       1.690   9.474  21.935  0.00  0.00    +0.000 C 
ATOM      4  C   UNL     1       0.805   7.328  20.905  0.00  0.00    +0.000 C 
ATOM      5  C   UNL     1       1.854   6.906  19.957  0.00  0.00    +0.000 A 
ATOM      6  C   UNL     1       2.637   5.838  19.602  0.00  0.00    +0.000 A 
ATOM      7  C   UNL     1       3.439   6.354  18.497  0.00  0.00    +0.000 A 
ATOM      8  N   UNL     1       3.132   7.646  18.238  0.00  0.00    +0.000 NA
ATOM      9  N   UNL     1       2.209   7.925  19.149  0.00  0.00    +0.000 N 
ATOM     10  C   UNL     1       1.520   9.179  19.410  0.00  0.00    +0.000 C 
ENDROOT
BRANCH   6  11
ATOM     11  C   UNL     1       2.584   4.541  20.262  0.00  0.00    +0.000 A 
ATOM     12  C   UNL     1       3.737   3.764  20.403  0.00  0.00    +0.000 A 
ATOM     13  C   UNL     1       3.653   2.566  21.092  0.00  0.00    +0.000 A 
ATOM     14  N   UNL     1       2.524   2.109  21.667  0.00  0.00    +0.000 NA
ATOM     15  C   UNL     1       1.419   2.867  21.514  0.00  0.00    +0.000 A 
ATOM     16  C   UNL     1       1.393   4.056  20.805  0.00  0.00    +0.000 A 
ENDBRANCH   6  11
BRANCH   7  17
ATOM     17  C   UNL     1       4.457   5.639  17.709  0.00  0.00    +0.000 A 
ATOM     18  C   UNL     1       5.751   6.189  17.610  0.00  0.00    +0.000 A 
ATOM     19  C   UNL     1       6.703   5.669  16.732  0.00  0.00    +0.000 A 
ATOM     20  C   UNL     1       6.411   4.530  15.993  0.00  0.00    +0.000 A 
ATOM     21  C   UNL     1       5.168   3.916  16.139  0.00  0.00    +0.000 A 
ATOM     22  C   UNL     1       4.180   4.465  16.982  0.00  0.00    +0.000 A 
BRANCH  22  23
ATOM     23  C   UNL     1       2.903   3.807  17.009  0.00  0.00    +0.000 C 
ATOM     24  N   UNL     1       1.920   3.184  17.022  0.00  0.00    +0.000 NA
ENDBRANCH  22  23
ENDBRANCH   7  17
TORSDOF 3
ENDMDL
MODEL 5
REMARK VINA RESULT:      -7.2      1.799      5.987
REMARK  Name = 
REMARK  5 active torsions:
REMARK  status: ('A' for Active; 'I' for Inactive)
REMARK    1  A    between atoms: C_1  and  C_2
REMARK    2  A    between atoms: C_2  and  C_3
REMARK    3  A    between atoms: C_6  and  C_7
REMARK    4  A    between atoms: C_13  and  C_14
REMARK    5  A    between atoms: C_19  and  C_20
REMARK                            x       y       z     vdW  Elec       q    Type
REMARK                         _______ _______ _______ _____ _____    ______ ____
ROOT
ATOM      1  C   UNL     1      -0.072   9.559  19.703  0.00  0.00    +0.000 C 
ATOM      2  C   UNL     1       1.288   8.861  19.753  0.00  0.00    +0.000 C 
ATOM      3  C   UNL     1       1.941   9.122  21.122  0.00  0.00    +0.000 C 
ATOM      4  C   UNL     1       1.123   7.317  19.534  0.00  0.00    +0.000 C 
ATOM      5  C   UNL     1       2.300   6.977  18.713  0.00  0.00    +0.000 A 
ATOM      6  C   UNL     1       3.061   5.921  18.284  0.00  0.00    +0.000 A 
ATOM      7  C   UNL     1       4.090   6.552  17.463  0.00  0.00    +0.000 A 
ATOM      8  N   UNL     1       3.926   7.895  17.429  0.00  0.00    +0.000 NA
ATOM      9  N   UNL     1       2.869   8.089  18.206  0.00  0.00    +0.000 N 
ATOM     10  C   UNL     1       2.229   9.335  18.599  0.00  0.00    +0.000 C 
ENDROOT
BRANCH   6  11
ATOM     11  C   UNL     1       2.798   4.534  18.643  0.00  0.00    +0.000 A 
ATOM     12  C   UNL     1       1.940   3.747  17.871  0.00  0.00    +0.000 A 
ATOM     13  C   UNL     1       1.766   2.417  18.214  0.00  0.00    +0.000 A 
ATOM     14  N   UNL     1       2.403   1.818  19.239  0.00  0.00    +0.000 NA
ATOM     15  C   UNL     1       3.221   2.594  19.978  0.00  0.00    +0.000 A 
ATOM     16  C   UNL     1       3.423   3.943  19.742  0.00  0.00    +0.000 A 
ENDBRANCH   6  11
BRANCH   7  17
ATOM     17  C   UNL     1       5.188   5.899  16.730  0.00  0.00    +0.000 A 
ATOM     18  C   UNL     1       5.091   5.770  15.330  0.00  0.00    +0.000 A 
ATOM     19  C   UNL     1       5.997   4.999  14.600  0.00  0.00    +0.000 A 
ATOM     20  C   UNL     1       7.076   4.408  15.244  0.00  0.00    +0.000 A 
ATOM     21  C   UNL     1       7.243   4.594  16.616  0.00  0.00    +0.000 A 
ATOM     22  C   UNL     1       6.304   5.324  17.371  0.00  0.00    +0.000 A 
BRANCH  22  23
ATOM     23  C   UNL     1       6.517   5.397  18.790  0.00  0.00    +0.000 C 
ATOM     24  N   UNL     1       6.786   5.418  19.922  0.00  0.00    +0.000 NA
ENDBRANCH  22  23
ENDBRANCH   7  17
TORSDOF 3
ENDMDL
MODEL 6
REMARK VINA RESULT:      -7.0      1.645      5.511
REMARK  Name = 
REMARK  5 active torsions:
REMARK  status: ('A' for Active; 'I' for Inactive)
REMARK    1  A    between atoms: C_1  and  C_2
REMARK    2  A    between atoms: C_2  and  C_3
REMARK    3  A    between atoms: C_6  and  C_7
REMARK    4  A    between atoms: C_13  and  C_14
REMARK    5  A    between atoms: C_19  and  C_20
REMARK                            x       y       z     vdW  Elec       q    Type
REMARK                         _______ _______ _______ _____ _____    ______ ____
ROOT
ATOM      1  C   UNL     1       1.146   2.196  22.113  0.00  0.00    +0.000 C 
ATOM      2  C   UNL     1       1.733   2.674  20.783  0.00  0.00    +0.000 C 
ATOM      3  C   UNL     1       0.954   2.028  19.624  0.00  0.00    +0.000 C 
ATOM      4  C   UNL     1       1.645   4.236  20.672  0.00  0.00    +0.000 C 
ATOM      5  C   UNL     1       2.914   4.586  20.006  0.00  0.00    +0.000 A 
ATOM      6  C   UNL     1       3.547   5.598  19.332  0.00  0.00    +0.000 A 
ATOM      7  C   UNL     1       4.855   5.032  19.015  0.00  0.00    +0.000 A 
ATOM      8  N   UNL     1       4.960   3.765  19.481  0.00  0.00    +0.000 NA
ATOM      9  N   UNL     1       3.773   3.548  20.034  0.00  0.00    +0.000 N 
ATOM     10  C   UNL     1       3.257   2.346  20.667  0.00  0.00    +0.000 C 
ENDROOT
BRANCH   6  11
ATOM     11  C   UNL     1       2.940   6.892  19.056  0.00  0.00    +0.000 A 
ATOM     12  C   UNL     1       3.113   7.513  17.816  0.00  0.00    +0.000 A 
ATOM     13  C   UNL     1       2.467   8.714  17.576  0.00  0.00    +0.000 A 
ATOM     14  N   UNL     1       1.647   9.315  18.462  0.00  0.00    +0.000 NA
ATOM     15  C   UNL     1       1.498   8.706  19.656  0.00  0.00    +0.000 A 
ATOM     16  C   UNL     1       2.138   7.529  20.005  0.00  0.00    +0.000 A 
ENDBRANCH   6  11
BRANCH   7  17
ATOM     17  C   UNL     1       5.969   5.676  18.301  0.00  0.00    +0.000 A 
ATOM     18  C   UNL     1       6.908   6.427  19.036  0.00  0.00    +0.000 A 
ATOM     19  C   UNL     1       7.872   7.216  18.406  0.00  0.00    +0.000 A 
ATOM     20  C   UNL     1       7.977   7.203  17.022  0.00  0.00    +0.000 A 
ATOM     21  C   UNL     1       7.117   6.399  16.275  0.00  0.00    +0.000 A 
ATOM     22  C   UNL     1       6.104   5.642  16.898  0.00  0.00    +0.000 A 
BRANCH  22  23
ATOM     23  C   UNL     1       5.216   4.905  16.042  0.00  0.00    +0.000 C 
ATOM     24  N   UNL     1       4.498   4.232  15.420  0.00  0.00    +0.000 NA
ENDBRANCH  22  23
ENDBRANCH   7  17
TORSDOF 3
ENDMDL
MODEL 7
REMARK VINA RESULT:      -7.0      3.469      7.331
REMARK  Name = 
REMARK  5 active torsions:
REMARK  status: ('A' for Active; 'I' for Inactive)
REMARK    1  A    between atoms: C_1  and  C_2
REMARK    2  A    between atoms: C_2  and  C_3
REMARK    3  A    between atoms: C_6  and  C_7
REMARK    4  A    between atoms: C_13  and  C_14
REMARK    5  A    between atoms: C_19  and  C_20
REMARK                            x       y       z     vdW  Elec       q    Type
REMARK                         _______ _______ _______ _____ _____    ______ ____
ROOT
ATOM      1  C   UNL     1       4.049   4.970  18.465  0.00  0.00    +0.000 C 
ATOM      2  C   UNL     1       2.813   5.866  18.358  0.00  0.00    +0.000 C 
ATOM      3  C   UNL     1       1.598   5.009  17.965  0.00  0.00    +0.000 C 
ATOM      4  C   UNL     1       2.534   6.584  19.724  0.00  0.00    +0.000 C 
ATOM      5  C   UNL     1       2.089   7.925  19.301  0.00  0.00    +0.000 A 
ATOM      6  C   UNL     1       1.450   9.053  19.748  0.00  0.00    +0.000 A 
ATOM      7  C   UNL     1       1.444   9.929  18.581  0.00  0.00    +0.000 A 
ATOM      8  N   UNL     1       2.045   9.332  17.525  0.00  0.00    +0.000 NA
ATOM      9  N   UNL     1       2.381   8.141  18.003  0.00  0.00    +0.000 N 
ATOM     10  C   UNL     1       3.021   7.024  17.328  0.00  0.00    +0.000 C 
ENDROOT
BRANCH   6  11
ATOM     11  C   UNL     1       0.937   9.210  21.103  0.00  0.00    +0.000 A 
ATOM     12  C   UNL     1       1.777   9.049  22.207  0.00  0.00    +0.000 A 
ATOM     13  C   UNL     1       1.262   9.267  23.474  0.00  0.00    +0.000 A 
ATOM     14  N   UNL     1      -0.005   9.659  23.711  0.00  0.00    +0.000 NA
ATOM     15  C   UNL     1      -0.804   9.803  22.633  0.00  0.00    +0.000 A 
ATOM     16  C   UNL     1      -0.393   9.562  21.333  0.00  0.00    +0.000 A 
ENDBRANCH   6  11
BRANCH   7  17
ATOM     17  C   UNL     1       0.893  11.290  18.475  0.00  0.00    +0.000 A 
ATOM     18  C   UNL     1       1.742  12.389  18.715  0.00  0.00    +0.000 A 
ATOM     19  C   UNL     1       1.246  13.690  18.819  0.00  0.00    +0.000 A 
ATOM     20  C   UNL     1      -0.103  13.934  18.598  0.00  0.00    +0.000 A 
ATOM     21  C   UNL     1      -0.949  12.874  18.272  0.00  0.00    +0.000 A 
ATOM     22  C   UNL     1      -0.468  11.550  18.220  0.00  0.00    +0.000 A 
BRANCH  22  23
ATOM     23  C   UNL     1      -1.428  10.514  17.953  0.00  0.00    +0.000 C 
ATOM     24  N   UNL     1      -2.179   9.683  17.636  0.00  0.00    +0.000 NA
ENDBRANCH  22  23
ENDBRANCH   7  17
TORSDOF 3
ENDMDL
MODEL 8
REMARK VINA RESULT:      -6.9      1.608      2.546
REMARK  Name = 
REMARK  5 active torsions:
REMARK  status: ('A' for Active; 'I' for Inactive)
REMARK    1  A    between atoms: C_1  and  C_2
REMARK    2  A    between atoms: C_2  and  C_3
REMARK    3  A    between atoms: C_6  and  C_7
REMARK    4  A    between atoms: C_13  and  C_14
REMARK    5  A    between atoms: C_19  and  C_20
REMARK                            x       y       z     vdW  Elec       q    Type
REMARK                         _______ _______ _______ _____ _____    ______ ____
ROOT
ATOM      1  C   UNL     1       7.868   6.639  15.795  0.00  0.00    +0.000 C 
ATOM      2  C   UNL     1       7.191   6.477  17.158  0.00  0.00    +0.000 C 
ATOM      3  C   UNL     1       8.075   7.119  18.242  0.00  0.00    +0.000 C 
ATOM      4  C   UNL     1       5.779   7.160  17.156  0.00  0.00    +0.000 C 
ATOM      5  C   UNL     1       4.967   6.228  17.961  0.00  0.00    +0.000 A 
ATOM      6  C   UNL     1       3.784   6.126  18.647  0.00  0.00    +0.000 A 
ATOM      7  C   UNL     1       3.809   4.764  19.171  0.00  0.00    +0.000 A 
ATOM      8  N   UNL     1       4.944   4.125  18.805  0.00  0.00    +0.000 NA
ATOM      9  N   UNL     1       5.601   5.048  18.115  0.00  0.00    +0.000 N 
ATOM     10  C   UNL     1       6.915   4.976  17.496  0.00  0.00    +0.000 C 
ENDROOT
BRANCH   6  11
ATOM     11  C   UNL     1       2.816   7.208  18.756  0.00  0.00    +0.000 A 
ATOM     12  C   UNL     1       2.159   7.460  19.964  0.00  0.00    +0.000 A 
ATOM     13  C   UNL     1       1.292   8.537  20.038  0.00  0.00    +0.000 A 
ATOM     14  N   UNL     1       1.061   9.386  19.018  0.00  0.00    +0.000 NA
ATOM     15  C   UNL     1       1.697   9.124  17.858  0.00  0.00    +0.000 A 
ATOM     16  C   UNL     1       2.546   8.045  17.673  0.00  0.00    +0.000 A 
ENDBRANCH   6  11
BRANCH   7  17
ATOM     17  C   UNL     1       2.783   4.090  19.985  0.00  0.00    +0.000 A 
ATOM     18  C   UNL     1       3.062   3.810  21.337  0.00  0.00    +0.000 A 
ATOM     19  C   UNL     1       2.218   3.010  22.110  0.00  0.00    +0.000 A 
ATOM     20  C   UNL     1       1.027   2.543  21.571  0.00  0.00    +0.000 A 
ATOM     21  C   UNL     1       0.685   2.881  20.262  0.00  0.00    +0.000 A 
ATOM     22  C   UNL     1       1.557   3.641  19.456  0.00  0.00    +0.000 A 
BRANCH  22  23
ATOM     23  C   UNL     1       1.156   3.873  18.096  0.00  0.00    +0.000 C 
ATOM     24  N   UNL     1       0.816   4.160  17.021  0.00  0.00    +0.000 NA
ENDBRANCH  22  23
ENDBRANCH   7  17
TORSDOF 3
ENDMDL
MODEL 9
REMARK VINA RESULT:      -6.9      1.893      4.932
REMARK  Name = 
REMARK  5 active torsions:
REMARK  status: ('A' for Active; 'I' for Inactive)
REMARK    1  A    between atoms: C_1  and  C_2
REMARK    2  A    between atoms: C_2  and  C_3
REMARK    3  A    between atoms: C_6  and  C_7
REMARK    4  A    between atoms: C_13  and  C_14
REMARK    5  A    between atoms: C_19  and  C_20
REMARK                            x       y       z     vdW  Elec       q    Type
REMARK                         _______ _______ _______ _____ _____    ______ ____
ROOT
ATOM      1  C   UNL     1       7.131   4.636  16.012  0.00  0.00    +0.000 C 
ATOM      2  C   UNL     1       5.708   5.181  16.152  0.00  0.00    +0.000 C 
ATOM      3  C   UNL     1       4.999   5.099  14.788  0.00  0.00    +0.000 C 
ATOM      4  C   UNL     1       4.904   4.355  17.215  0.00  0.00    +0.000 C 
ATOM      5  C   UNL     1       4.104   5.392  17.894  0.00  0.00    +0.000 A 
ATOM      6  C   UNL     1       3.020   5.568  18.715  0.00  0.00    +0.000 A 
ATOM      7  C   UNL     1       2.946   7.017  18.877  0.00  0.00    +0.000 A 
ATOM      8  N   UNL     1       3.931   7.633  18.183  0.00  0.00    +0.000 NA
ATOM      9  N   UNL     1       4.567   6.624  17.602  0.00  0.00    +0.000 N 
ATOM     10  C   UNL     1       5.696   6.650  16.686  0.00  0.00    +0.000 C 
ENDROOT
BRANCH   6  11
ATOM     11  C   UNL     1       2.211   4.474  19.234  0.00  0.00    +0.000 A 
ATOM     12  C   UNL     1       1.391   3.727  18.384  0.00  0.00    +0.000 A 
ATOM     13  C   UNL     1       0.685   2.658  18.909  0.00  0.00    +0.000 A 
ATOM     14  N   UNL     1       0.763   2.267  20.197  0.00  0.00    +0.000 NA
ATOM     15  C   UNL     1       1.554   3.004  21.004  0.00  0.00    +0.000 A 
ATOM     16  C   UNL     1       2.261   4.117  20.582  0.00  0.00    +0.000 A 
ENDBRANCH   6  11
BRANCH   7  17
ATOM     17  C   UNL     1       1.975   7.788  19.670  0.00  0.00    +0.000 A 
ATOM     18  C   UNL     1       1.439   7.213  20.839  0.00  0.00    +0.000 A 
ATOM     19  C   UNL     1       0.380   7.805  21.529  0.00  0.00    +0.000 A 
ATOM     20  C   UNL     1      -0.112   9.035  21.115  0.00  0.00    +0.000 A 
ATOM     21  C   UNL     1       0.461   9.668  20.012  0.00  0.00    +0.000 A 
ATOM     22  C   UNL     1       1.493   9.053  19.276  0.00  0.00    +0.000 A 
BRANCH  22  23
ATOM     23  C   UNL     1       1.967   9.744  18.109  0.00  0.00    +0.000 C 
ATOM     24  N   UNL     1       2.319  10.393  17.208  0.00  0.00    +0.000 NA
ENDBRANCH  22  23
ENDBRANCH   7  17
TORSDOF 3
ENDMDL
