MODEL 1
REMARK VINA RESULT:      -7.5      0.000      0.000
REMARK  Name = 
REMARK  8 active torsions:
REMARK  status: ('A' for Active; 'I' for Inactive)
REMARK    1  A    between atoms: C_1  and  C_2
REMARK    2  A    between atoms: C_2  and  C_3
REMARK    3  A    between atoms: C_3  and  C_4
REMARK    4  A    between atoms: C_4  and  O_5
REMARK    5  A    between atoms: O_5  and  C_6
REMARK    6  A    between atoms: C_9  and  N_10
REMARK    7  A    between atoms: N_10  and  C_11
REMARK    8  A    between atoms: C_13  and  C_14
REMARK                            x       y       z     vdW  Elec       q    Type
REMARK                         _______ _______ _______ _____ _____    ______ ____
ROOT
ATOM      1  C   UNL     1       0.706   9.870  18.128  0.00  0.00    +0.000 A 
ATOM      2  C   UNL     1       1.580  10.905  18.419  0.00  0.00    +0.000 A 
ATOM      3  C   UNL     1       1.071  11.702  19.420  0.00  0.00    +0.000 A 
ATOM      4  C   UNL     1       0.915  11.162  20.837  0.00  0.00    +0.000 C 
ATOM      5  N   UNL     1      -0.039  12.348  19.136  0.00  0.00    +0.000 NA
ATOM      6  C   UNL     1      -1.041  11.565  18.785  0.00  0.00    +0.000 A 
ATOM      7  C   UNL     1      -2.256  12.135  19.242  0.00  0.00    +0.000 A 
ATOM      8  C   UNL     1      -3.527  11.741  18.879  0.00  0.00    +0.000 A 
ATOM      9  C   UNL     1      -3.324  11.016  17.744  0.00  0.00    +0.000 A 
ATOM     10  C   UNL     1      -4.215  11.152  16.715  0.00  0.00    +0.000 A 
ATOM     11  N   UNL     1      -3.512  10.697  15.649  0.00  0.00    +0.000 N 
ATOM     12  N   UNL     1      -2.344  10.043  15.962  0.00  0.00    +0.000 NA
ATOM     13  C   UNL     1      -2.083  10.350  17.256  0.00  0.00    +0.000 A 
ATOM     14  C   UNL     1      -0.803  10.324  18.079  0.00  0.00    +0.000 A 
ATOM     15  H   UNL     1      -3.756  10.867  14.671  0.00  0.00    +0.000 HD
ENDROOT
BRANCH   1  16
ATOM     16  N   UNL     1       1.210   8.624  18.948  0.00  0.00    +0.000 N 
ATOM     17  H   UNL     1       0.426   8.159  19.403  0.00  0.00    +0.000 HD
BRANCH  16  21
ATOM     18  C   UNL     1       4.601   5.809  18.188  0.00  0.00    +0.000 A 
ATOM     19  C   UNL     1       3.820   5.687  19.326  0.00  0.00    +0.000 A 
ATOM     20  C   UNL     1       2.713   6.600  19.590  0.00  0.00    +0.000 A 
ATOM     21  C   UNL     1       2.356   7.686  18.754  0.00  0.00    +0.000 A 
ATOM     22  C   UNL     1       3.140   7.734  17.575  0.00  0.00    +0.000 A 
ATOM     23  C   UNL     1       4.240   6.831  17.314  0.00  0.00    +0.000 A 
BRANCH  18  24
ATOM     24  O   UNL     1       5.686   5.047  17.806  0.00  0.00    +0.000 OA
BRANCH  24  25
ATOM     25  C   UNL     1       6.910   5.582  17.272  0.00  0.00    +0.000 C 
BRANCH  25  26
ATOM     26  C   UNL     1       7.511   6.675  18.172  0.00  0.00    +0.000 C 
BRANCH  26  28
ATOM     27  C   UNL     1       8.428   9.041  18.315  0.00  0.00    +0.000 C 
ATOM     28  C   UNL     1       7.662   8.033  17.466  0.00  0.00    +0.000 C 
ENDBRANCH  26  28
ENDBRANCH  25  26
ENDBRANCH  24  25
ENDBRANCH  18  24
ENDBRANCH  16  21
ENDBRANCH   1  16
TORSDOF 6
ENDMDL
MODEL 2
REMARK VINA RESULT:      -7.5      1.754      2.966
REMARK  Name = 
REMARK  8 active torsions:
REMARK  status: ('A' for Active; 'I' for Inactive)
REMARK    1  A    between atoms: C_1  and  C_2
REMARK    2  A    between atoms: C_2  and  C_3
REMARK    3  A    between atoms: C_3  and  C_4
REMARK    4  A    between atoms: C_4  and  O_5
REMARK    5  A    between atoms: O_5  and  C_6
REMARK    6  A    between atoms: C_9  and  N_10
REMARK    7  A    between atoms: N_10  and  C_11
REMARK    8  A    between atoms: C_13  and  C_14
REMARK                            x       y       z     vdW  Elec       q    Type
REMARK                         _______ _______ _______ _____ _____    ______ ____
ROOT
ATOM      1  C   UNL     1       0.402  10.580  18.666  0.00  0.00    +0.000 A 
ATOM      2  C   UNL     1       1.088  11.659  19.201  0.00  0.00    +0.000 A 
ATOM      3  C   UNL     1       0.348  12.258  20.196  0.00  0.00    +0.000 A 
ATOM      4  C   UNL     1       0.071  11.524  21.503  0.00  0.00    +0.000 C 
ATOM      5  N   UNL     1      -0.786  12.808  19.823  0.00  0.00    +0.000 NA
ATOM      6  C   UNL     1      -1.622  11.971  19.238  0.00  0.00    +0.000 A 
ATOM      7  C   UNL     1      -2.951  12.338  19.567  0.00  0.00    +0.000 A 
ATOM      8  C   UNL     1      -4.099  11.856  18.973  0.00  0.00    +0.000 A 
ATOM      9  C   UNL     1      -3.651  11.312  17.808  0.00  0.00    +0.000 A 
ATOM     10  C   UNL     1      -4.403  11.481  16.677  0.00  0.00    +0.000 A 
ATOM     11  N   UNL     1      -3.509  11.249  15.686  0.00  0.00    +0.000 N 
ATOM     12  N   UNL     1      -2.320  10.693  16.097  0.00  0.00    +0.000 NA
ATOM     13  C   UNL     1      -2.280  10.857  17.441  0.00  0.00    +0.000 A 
ATOM     14  C   UNL     1      -1.131  10.867  18.441  0.00  0.00    +0.000 A 
ATOM     15  H   UNL     1      -3.637  11.517  14.708  0.00  0.00    +0.000 HD
ENDROOT
BRANCH   1  16
ATOM     16  N   UNL     1       0.946   9.301  19.407  0.00  0.00    +0.000 N 
ATOM     17  H   UNL     1       0.249   8.949  20.061  0.00  0.00    +0.000 HD
BRANCH  16  21
ATOM     18  C   UNL     1       3.843   6.061  18.355  0.00  0.00    +0.000 A 
ATOM     19  C   UNL     1       3.683   7.164  17.531  0.00  0.00    +0.000 A 
ATOM     20  C   UNL     1       2.739   8.227  17.859  0.00  0.00    +0.000 A 
ATOM     21  C   UNL     1       1.896   8.225  18.997  0.00  0.00    +0.000 A 
ATOM     22  C   UNL     1       2.138   7.113  19.840  0.00  0.00    +0.000 A 
ATOM     23  C   UNL     1       3.071   6.056  19.515  0.00  0.00    +0.000 A 
BRANCH  18  24
ATOM     24  O   UNL     1       4.670   4.972  18.179  0.00  0.00    +0.000 OA
BRANCH  24  25
ATOM     25  C   UNL     1       4.379   3.860  17.312  0.00  0.00    +0.000 C 
BRANCH  25  26
ATOM     26  C   UNL     1       3.765   2.673  18.072  0.00  0.00    +0.000 C 
BRANCH  26  28
ATOM     27  C   UNL     1       1.338   2.658  18.828  0.00  0.00    +0.000 C 
ATOM     28  C   UNL     1       2.306   2.386  17.682  0.00  0.00    +0.000 C 
ENDBRANCH  26  28
ENDBRANCH  25  26
ENDBRANCH  24  25
ENDBRANCH  18  24
ENDBRANCH  16  21
ENDBRANCH   1  16
TORSDOF 6
ENDMDL
MODEL 3
REMARK VINA RESULT:      -7.4      2.430      3.533
REMARK  Name = 
REMARK  8 active torsions:
REMARK  status: ('A' for Active; 'I' for Inactive)
REMARK    1  A    between atoms: C_1  and  C_2
REMARK    2  A    between atoms: C_2  and  C_3
REMARK    3  A    between atoms: C_3  and  C_4
REMARK    4  A    between atoms: C_4  and  O_5
REMARK    5  A    between atoms: O_5  and  C_6
REMARK    6  A    between atoms: C_9  and  N_10
REMARK    7  A    between atoms: N_10  and  C_11
REMARK    8  A    between atoms: C_13  and  C_14
REMARK                            x       y       z     vdW  Elec       q    Type
REMARK                         _______ _______ _______ _____ _____    ______ ____
ROOT
ATOM      1  C   UNL     1      -0.235  11.516  19.377  0.00  0.00    +0.000 A 
ATOM      2  C   UNL     1       0.265  12.659  19.981  0.00  0.00    +0.000 A 
ATOM      3  C   UNL     1      -0.589  13.100  20.967  0.00  0.00    +0.000 A 
ATOM      4  C   UNL     1      -0.801  12.277  22.232  0.00  0.00    +0.000 C 
ATOM      5  N   UNL     1      -1.778  13.495  20.568  0.00  0.00    +0.000 NA
ATOM      6  C   UNL     1      -2.460  12.571  19.918  0.00  0.00    +0.000 A 
ATOM      7  C   UNL     1      -3.839  12.726  20.205  0.00  0.00    +0.000 A 
ATOM      8  C   UNL     1      -4.883  12.109  19.547  0.00  0.00    +0.000 A 
ATOM      9  C   UNL     1      -4.319  11.687  18.382  0.00  0.00    +0.000 A 
ATOM     10  C   UNL     1      -5.047  11.794  17.228  0.00  0.00    +0.000 A 
ATOM     11  N   UNL     1      -4.094  11.738  16.266  0.00  0.00    +0.000 N 
ATOM     12  N   UNL     1      -2.852  11.344  16.705  0.00  0.00    +0.000 NA
ATOM     13  C   UNL     1      -2.884  11.453  18.054  0.00  0.00    +0.000 A 
ATOM     14  C   UNL     1      -1.785  11.586  19.100  0.00  0.00    +0.000 A 
ATOM     15  H   UNL     1      -4.225  12.027  15.294  0.00  0.00    +0.000 HD
ENDROOT
BRANCH   1  16
ATOM     16  N   UNL     1       0.465  10.300  20.091  0.00  0.00    +0.000 N 
ATOM     17  H   UNL     1      -0.019  10.073  20.958  0.00  0.00    +0.000 HD
BRANCH  16  21
ATOM     18  C   UNL     1       2.811   6.759  18.691  0.00  0.00    +0.000 A 
ATOM     19  C   UNL     1       2.572   7.831  17.845  0.00  0.00    +0.000 A 
ATOM     20  C   UNL     1       1.806   8.991  18.286  0.00  0.00    +0.000 A 
ATOM     21  C   UNL     1       1.220   9.122  19.569  0.00  0.00    +0.000 A 
ATOM     22  C   UNL     1       1.541   8.034  20.418  0.00  0.00    +0.000 A 
ATOM     23  C   UNL     1       2.299   6.881  19.980  0.00  0.00    +0.000 A 
BRANCH  18  24
ATOM     24  O   UNL     1       3.493   5.591  18.423  0.00  0.00    +0.000 OA
BRANCH  24  25
ATOM     25  C   UNL     1       3.046   4.579  17.502  0.00  0.00    +0.000 C 
BRANCH  25  26
ATOM     26  C   UNL     1       1.738   3.911  17.958  0.00  0.00    +0.000 C 
BRANCH  26  28
ATOM     27  C   UNL     1       0.722   3.478  20.248  0.00  0.00    +0.000 C 
ATOM     28  C   UNL     1       1.868   3.161  19.294  0.00  0.00    +0.000 C 
ENDBRANCH  26  28
ENDBRANCH  25  26
ENDBRANCH  24  25
ENDBRANCH  18  24
ENDBRANCH  16  21
ENDBRANCH   1  16
TORSDOF 6
ENDMDL
MODEL 4
REMARK VINA RESULT:      -7.4      1.989      2.974
REMARK  Name = 
REMARK  8 active torsions:
REMARK  status: ('A' for Active; 'I' for Inactive)
REMARK    1  A    between atoms: C_1  and  C_2
REMARK    2  A    between atoms: C_2  and  C_3
REMARK    3  A    between atoms: C_3  and  C_4
REMARK    4  A    between atoms: C_4  and  O_5
REMARK    5  A    between atoms: O_5  and  C_6
REMARK    6  A    between atoms: C_9  and  N_10
REMARK    7  A    between atoms: N_10  and  C_11
REMARK    8  A    between atoms: C_13  and  C_14
REMARK                            x       y       z     vdW  Elec       q    Type
REMARK                         _______ _______ _______ _____ _____    ______ ____
ROOT
ATOM      1  C   UNL     1       0.585  10.321  18.679  0.00  0.00    +0.000 A 
ATOM      2  C   UNL     1       1.320  11.463  18.958  0.00  0.00    +0.000 A 
ATOM      3  C   UNL     1       0.631  12.282  19.824  0.00  0.00    +0.000 A 
ATOM      4  C   UNL     1       0.375  11.847  21.263  0.00  0.00    +0.000 C 
ATOM      5  N   UNL     1      -0.498  12.783  19.373  0.00  0.00    +0.000 NA
ATOM      6  C   UNL     1      -1.377  11.872  18.999  0.00  0.00    +0.000 A 
ATOM      7  C   UNL     1      -2.683  12.347  19.278  0.00  0.00    +0.000 A 
ATOM      8  C   UNL     1      -3.864  11.793  18.829  0.00  0.00    +0.000 A 
ATOM      9  C   UNL     1      -3.471  11.002  17.792  0.00  0.00    +0.000 A 
ATOM     10  C   UNL     1      -4.254  10.958  16.671  0.00  0.00    +0.000 A 
ATOM     11  N   UNL     1      -3.400  10.493  15.727  0.00  0.00    +0.000 N 
ATOM     12  N   UNL     1      -2.215   9.994  16.215  0.00  0.00    +0.000 NA
ATOM     13  C   UNL     1      -2.126  10.432  17.493  0.00  0.00    +0.000 A 
ATOM     14  C   UNL     1      -0.946  10.609  18.438  0.00  0.00    +0.000 A 
ATOM     15  H   UNL     1      -3.552  10.556  14.718  0.00  0.00    +0.000 HD
ENDROOT
BRANCH   1  16
ATOM     16  N   UNL     1       1.115   9.207  19.656  0.00  0.00    +0.000 N 
ATOM     17  H   UNL     1       0.503   9.128  20.467  0.00  0.00    +0.000 HD
BRANCH  16  21
ATOM     18  C   UNL     1       3.337   5.423  18.794  0.00  0.00    +0.000 A 
ATOM     19  C   UNL     1       2.655   5.588  19.989  0.00  0.00    +0.000 A 
ATOM     20  C   UNL     1       1.928   6.818  20.286  0.00  0.00    +0.000 A 
ATOM     21  C   UNL     1       1.875   7.942  19.428  0.00  0.00    +0.000 A 
ATOM     22  C   UNL     1       2.533   7.706  18.195  0.00  0.00    +0.000 A 
ATOM     23  C   UNL     1       3.256   6.488  17.900  0.00  0.00    +0.000 A 
BRANCH  18  24
ATOM     24  O   UNL     1       4.081   4.340  18.373  0.00  0.00    +0.000 OA
BRANCH  24  25
ATOM     25  C   UNL     1       4.454   3.232  19.212  0.00  0.00    +0.000 C 
BRANCH  25  26
ATOM     26  C   UNL     1       3.567   1.998  18.977  0.00  0.00    +0.000 C 
BRANCH  26  28
ATOM     27  C   UNL     1       1.072   2.372  18.667  0.00  0.00    +0.000 C 
ATOM     28  C   UNL     1       2.426   2.247  17.977  0.00  0.00    +0.000 C 
ENDBRANCH  26  28
ENDBRANCH  25  26
ENDBRANCH  24  25
ENDBRANCH  18  24
ENDBRANCH  16  21
ENDBRANCH   1  16
TORSDOF 6
ENDMDL
MODEL 5
REMARK VINA RESULT:      -7.4      1.349      2.025
REMARK  Name = 
REMARK  8 active torsions:
REMARK  status: ('A' for Active; 'I' for Inactive)
REMARK    1  A    between atoms: C_1  and  C_2
REMARK    2  A    between atoms: C_2  and  C_3
REMARK    3  A    between atoms: C_3  and  C_4
REMARK    4  A    between atoms: C_4  and  O_5
REMARK    5  A    between atoms: O_5  and  C_6
REMARK    6  A    between atoms: C_9  and  N_10
REMARK    7  A    between atoms: N_10  and  C_11
REMARK    8  A    between atoms: C_13  and  C_14
REMARK                            x       y       z     vdW  Elec       q    Type
REMARK                         _______ _______ _______ _____ _____    ______ ____
ROOT
ATOM      1  C   UNL     1       0.353  10.537  18.649  0.00  0.00    +0.000 A 
ATOM      2  C   UNL     1       1.047  11.593  19.219  0.00  0.00    +0.000 A 
ATOM      3  C   UNL     1       0.310  12.168  20.230  0.00  0.00    +0.000 A 
ATOM      4  C   UNL     1       0.022  11.397  21.513  0.00  0.00    +0.000 C 
ATOM      5  N   UNL     1      -0.819  12.740  19.870  0.00  0.00    +0.000 NA
ATOM      6  C   UNL     1      -1.660  11.928  19.258  0.00  0.00    +0.000 A 
ATOM      7  C   UNL     1      -2.987  12.297  19.594  0.00  0.00    +0.000 A 
ATOM      8  C   UNL     1      -4.138  11.843  18.984  0.00  0.00    +0.000 A 
ATOM      9  C   UNL     1      -3.691  11.331  17.804  0.00  0.00    +0.000 A 
ATOM     10  C   UNL     1      -4.438  11.540  16.677  0.00  0.00    +0.000 A 
ATOM     11  N   UNL     1      -3.543  11.331  15.681  0.00  0.00    +0.000 N 
ATOM     12  N   UNL     1      -2.361  10.753  16.078  0.00  0.00    +0.000 NA
ATOM     13  C   UNL     1      -2.323  10.875  17.427  0.00  0.00    +0.000 A 
ATOM     14  C   UNL     1      -1.177  10.844  18.429  0.00  0.00    +0.000 A 
ATOM     15  H   UNL     1      -3.666  11.629  14.711  0.00  0.00    +0.000 HD
ENDROOT
BRANCH   1  16
ATOM     16  N   UNL     1       0.884   9.232  19.353  0.00  0.00    +0.000 N 
ATOM     17  H   UNL     1       0.155   8.825  19.938  0.00  0.00    +0.000 HD
BRANCH  16  21
ATOM     18  C   UNL     1       3.946   6.143  18.316  0.00  0.00    +0.000 A 
ATOM     19  C   UNL     1       3.728   7.231  17.486  0.00  0.00    +0.000 A 
ATOM     20  C   UNL     1       2.730   8.245  17.808  0.00  0.00    +0.000 A 
ATOM     21  C   UNL     1       1.889   8.205  18.947  0.00  0.00    +0.000 A 
ATOM     22  C   UNL     1       2.189   7.112  19.797  0.00  0.00    +0.000 A 
ATOM     23  C   UNL     1       3.177   6.104  19.476  0.00  0.00    +0.000 A 
BRANCH  18  24
ATOM     24  O   UNL     1       4.830   5.098  18.145  0.00  0.00    +0.000 OA
BRANCH  24  25
ATOM     25  C   UNL     1       6.260   5.242  18.079  0.00  0.00    +0.000 C 
BRANCH  25  26
ATOM     26  C   UNL     1       6.876   4.429  16.928  0.00  0.00    +0.000 C 
BRANCH  26  28
ATOM     27  C   UNL     1       6.214   4.600  14.479  0.00  0.00    +0.000 C 
ATOM     28  C   UNL     1       5.857   4.030  15.848  0.00  0.00    +0.000 C 
ENDBRANCH  26  28
ENDBRANCH  25  26
ENDBRANCH  24  25
ENDBRANCH  18  24
ENDBRANCH  16  21
ENDBRANCH   1  16
TORSDOF 6
ENDMDL
MODEL 6
REMARK VINA RESULT:      -7.4      3.324      8.779
REMARK  Name = 
REMARK  8 active torsions:
REMARK  status: ('A' for Active; 'I' for Inactive)
REMARK    1  A    between atoms: C_1  and  C_2
REMARK    2  A    between atoms: C_2  and  C_3
REMARK    3  A    between atoms: C_3  and  C_4
REMARK    4  A    between atoms: C_4  and  O_5
REMARK    5  A    between atoms: O_5  and  C_6
REMARK    6  A    between atoms: C_9  and  N_10
REMARK    7  A    between atoms: N_10  and  C_11
REMARK    8  A    between atoms: C_13  and  C_14
REMARK                            x       y       z     vdW  Elec       q    Type
REMARK                         _______ _______ _______ _____ _____    ______ ____
ROOT
ATOM      1  C   UNL     1       2.853   6.707  17.829  0.00  0.00    +0.000 A 
ATOM      2  C   UNL     1       1.936   5.737  18.201  0.00  0.00    +0.000 A 
ATOM      3  C   UNL     1       2.511   4.832  19.064  0.00  0.00    +0.000 A 
ATOM      4  C   UNL     1       2.935   5.259  20.465  0.00  0.00    +0.000 C 
ATOM      5  N   UNL     1       3.495   4.110  18.574  0.00  0.00    +0.000 NA
ATOM      6  C   UNL     1       4.504   4.822  18.110  0.00  0.00    +0.000 A 
ATOM      7  C   UNL     1       5.712   4.117  18.337  0.00  0.00    +0.000 A 
ATOM      8  C   UNL     1       6.946   4.420  17.798  0.00  0.00    +0.000 A 
ATOM      9  C   UNL     1       6.644   5.235  16.750  0.00  0.00    +0.000 A 
ATOM     10  C   UNL     1       7.348   5.090  15.586  0.00  0.00    +0.000 A 
ATOM     11  N   UNL     1       6.539   5.678  14.671  0.00  0.00    +0.000 N 
ATOM     12  N   UNL     1       5.503   6.410  15.200  0.00  0.00    +0.000 NA
ATOM     13  C   UNL     1       5.414   6.041  16.500  0.00  0.00    +0.000 A 
ATOM     14  C   UNL     1       4.284   6.125  17.517  0.00  0.00    +0.000 A 
ATOM     15  H   UNL     1       6.612   5.553  13.659  0.00  0.00    +0.000 HD
ENDROOT
BRANCH   1  16
ATOM     16  N   UNL     1       2.605   7.935  18.783  0.00  0.00    +0.000 N 
ATOM     17  H   UNL     1       3.471   8.456  18.921  0.00  0.00    +0.000 HD
BRANCH  16  21
ATOM     18  C   UNL     1      -0.901  10.640  19.406  0.00  0.00    +0.000 A 
ATOM     19  C   UNL     1      -0.358   9.928  20.464  0.00  0.00    +0.000 A 
ATOM     20  C   UNL     1       0.783   9.039  20.276  0.00  0.00    +0.000 A 
ATOM     21  C   UNL     1       1.411   8.797  19.030  0.00  0.00    +0.000 A 
ATOM     22  C   UNL     1       0.864   9.590  17.991  0.00  0.00    +0.000 A 
ATOM     23  C   UNL     1      -0.270  10.470  18.176  0.00  0.00    +0.000 A 
BRANCH  18  24
ATOM     24  O   UNL     1      -1.981  11.498  19.413  0.00  0.00    +0.000 OA
BRANCH  24  25
ATOM     25  C   UNL     1      -2.804  11.783  18.267  0.00  0.00    +0.000 C 
BRANCH  25  26
ATOM     26  C   UNL     1      -3.756  10.623  17.930  0.00  0.00    +0.000 C 
BRANCH  26  28
ATOM     27  C   UNL     1      -2.928  10.893  15.542  0.00  0.00    +0.000 C 
ATOM     28  C   UNL     1      -3.416   9.917  16.607  0.00  0.00    +0.000 C 
ENDBRANCH  26  28
ENDBRANCH  25  26
ENDBRANCH  24  25
ENDBRANCH  18  24
ENDBRANCH  16  21
ENDBRANCH   1  16
TORSDOF 6
ENDMDL
MODEL 7
REMARK VINA RESULT:      -7.3      1.358      1.819
REMARK  Name = 
REMARK  8 active torsions:
REMARK  status: ('A' for Active; 'I' for Inactive)
REMARK    1  A    between atoms: C_1  and  C_2
REMARK    2  A    between atoms: C_2  and  C_3
REMARK    3  A    between atoms: C_3  and  C_4
REMARK    4  A    between atoms: C_4  and  O_5
REMARK    5  A    between atoms: O_5  and  C_6
REMARK    6  A    between atoms: C_9  and  N_10
REMARK    7  A    between atoms: N_10  and  C_11
REMARK    8  A    between atoms: C_13  and  C_14
REMARK                            x       y       z     vdW  Elec       q    Type
REMARK                         _______ _______ _______ _____ _____    ______ ____
ROOT
ATOM      1  C   UNL     1       0.636  10.039  18.313  0.00  0.00    +0.000 A 
ATOM      2  C   UNL     1       1.459  11.109  18.627  0.00  0.00    +0.000 A 
ATOM      3  C   UNL     1       0.873  11.906  19.585  0.00  0.00    +0.000 A 
ATOM      4  C   UNL     1       0.665  11.386  21.003  0.00  0.00    +0.000 C 
ATOM      5  N   UNL     1      -0.243  12.507  19.235  0.00  0.00    +0.000 NA
ATOM      6  C   UNL     1      -1.199  11.682  18.850  0.00  0.00    +0.000 A 
ATOM      7  C   UNL     1      -2.454  12.217  19.235  0.00  0.00    +0.000 A 
ATOM      8  C   UNL     1      -3.691  11.772  18.818  0.00  0.00    +0.000 A 
ATOM      9  C   UNL     1      -3.407  11.034  17.709  0.00  0.00    +0.000 A 
ATOM     10  C   UNL     1      -4.249  11.119  16.635  0.00  0.00    +0.000 A 
ATOM     11  N   UNL     1      -3.479  10.670  15.614  0.00  0.00    +0.000 N 
ATOM     12  N   UNL     1      -2.306  10.064  15.997  0.00  0.00    +0.000 NA
ATOM     13  C   UNL     1      -2.121  10.404  17.295  0.00  0.00    +0.000 A 
ATOM     14  C   UNL     1      -0.883  10.438  18.181  0.00  0.00    +0.000 A 
ATOM     15  H   UNL     1      -3.680  10.814  14.622  0.00  0.00    +0.000 HD
ENDROOT
BRANCH   1  16
ATOM     16  N   UNL     1       1.142   8.826  19.181  0.00  0.00    +0.000 N 
ATOM     17  H   UNL     1       0.378   8.446  19.737  0.00  0.00    +0.000 HD
BRANCH  16  21
ATOM     18  C   UNL     1       4.310   5.781  18.349  0.00  0.00    +0.000 A 
ATOM     19  C   UNL     1       3.487   5.663  19.457  0.00  0.00    +0.000 A 
ATOM     20  C   UNL     1       2.451   6.650  19.744  0.00  0.00    +0.000 A 
ATOM     21  C   UNL     1       2.212   7.807  18.964  0.00  0.00    +0.000 A 
ATOM     22  C   UNL     1       3.032   7.854  17.810  0.00  0.00    +0.000 A 
ATOM     23  C   UNL     1       4.061   6.877  17.525  0.00  0.00    +0.000 A 
BRANCH  18  24
ATOM     24  O   UNL     1       5.338   4.952  17.952  0.00  0.00    +0.000 OA
BRANCH  24  25
ATOM     25  C   UNL     1       5.957   4.986  16.652  0.00  0.00    +0.000 C 
BRANCH  25  26
ATOM     26  C   UNL     1       5.288   4.018  15.662  0.00  0.00    +0.000 C 
BRANCH  26  28
ATOM     27  C   UNL     1       7.124   4.977  14.188  0.00  0.00    +0.000 C 
ATOM     28  C   UNL     1       5.970   3.985  14.285  0.00  0.00    +0.000 C 
ENDBRANCH  26  28
ENDBRANCH  25  26
ENDBRANCH  24  25
ENDBRANCH  18  24
ENDBRANCH  16  21
ENDBRANCH   1  16
TORSDOF 6
ENDMDL
MODEL 8
REMARK VINA RESULT:      -7.2      2.600      3.564
REMARK  Name = 
REMARK  8 active torsions:
REMARK  status: ('A' for Active; 'I' for Inactive)
REMARK    1  A    between atoms: C_1  and  C_2
REMARK    2  A    between atoms: C_2  and  C_3
REMARK    3  A    between atoms: C_3  and  C_4
REMARK    4  A    between atoms: C_4  and  O_5
REMARK    5  A    between atoms: O_5  and  C_6
REMARK    6  A    between atoms: C_9  and  N_10
REMARK    7  A    between atoms: N_10  and  C_11
REMARK    8  A    between atoms: C_13  and  C_14
REMARK                            x       y       z     vdW  Elec       q    Type
REMARK                         _______ _______ _______ _____ _____    ______ ____
ROOT
ATOM      1  C   UNL     1      -0.341  11.655  19.649  0.00  0.00    +0.000 A 
ATOM      2  C   UNL     1       0.143  12.809  20.245  0.00  0.00    +0.000 A 
ATOM      3  C   UNL     1      -0.731  13.259  21.210  0.00  0.00    +0.000 A 
ATOM      4  C   UNL     1      -0.962  12.453  22.483  0.00  0.00    +0.000 C 
ATOM      5  N   UNL     1      -1.915  13.642  20.784  0.00  0.00    +0.000 NA
ATOM      6  C   UNL     1      -2.581  12.706  20.135  0.00  0.00    +0.000 A 
ATOM      7  C   UNL     1      -3.966  12.858  20.396  0.00  0.00    +0.000 A 
ATOM      8  C   UNL     1      -4.994  12.226  19.728  0.00  0.00    +0.000 A 
ATOM      9  C   UNL     1      -4.408  11.791  18.579  0.00  0.00    +0.000 A 
ATOM     10  C   UNL     1      -5.116  11.878  17.411  0.00  0.00    +0.000 A 
ATOM     11  N   UNL     1      -4.146  11.813  16.467  0.00  0.00    +0.000 N 
ATOM     12  N   UNL     1      -2.909  11.432  16.933  0.00  0.00    +0.000 NA
ATOM     13  C   UNL     1      -2.966  11.560  18.281  0.00  0.00    +0.000 A 
ATOM     14  C   UNL     1      -1.886  11.713  19.343  0.00  0.00    +0.000 A 
ATOM     15  H   UNL     1      -4.261  12.088  15.489  0.00  0.00    +0.000 HD
ENDROOT
BRANCH   1  16
ATOM     16  N   UNL     1       0.352  10.452  20.392  0.00  0.00    +0.000 N 
ATOM     17  H   UNL     1      -0.140  10.242  21.259  0.00  0.00    +0.000 HD
BRANCH  16  21
ATOM     18  C   UNL     1       2.528   6.903  18.759  0.00  0.00    +0.000 A 
ATOM     19  C   UNL     1       2.170   6.961  20.097  0.00  0.00    +0.000 A 
ATOM     20  C   UNL     1       1.463   8.113  20.645  0.00  0.00    +0.000 A 
ATOM     21  C   UNL     1       1.111   9.265  19.899  0.00  0.00    +0.000 A 
ATOM     22  C   UNL     1       1.441   9.135  18.527  0.00  0.00    +0.000 A 
ATOM     23  C   UNL     1       2.144   7.993  17.983  0.00  0.00    +0.000 A 
BRANCH  18  24
ATOM     24  O   UNL     1       3.209   5.903  18.097  0.00  0.00    +0.000 OA
BRANCH  24  25
ATOM     25  C   UNL     1       2.664   4.605  17.798  0.00  0.00    +0.000 C 
BRANCH  25  26
ATOM     26  C   UNL     1       2.666   3.675  19.022  0.00  0.00    +0.000 C 
BRANCH  26  28
ATOM     27  C   UNL     1       1.354   3.032  21.102  0.00  0.00    +0.000 C 
ATOM     28  C   UNL     1       1.275   3.485  19.648  0.00  0.00    +0.000 C 
ENDBRANCH  26  28
ENDBRANCH  25  26
ENDBRANCH  24  25
ENDBRANCH  18  24
ENDBRANCH  16  21
ENDBRANCH   1  16
TORSDOF 6
ENDMDL
MODEL 9
REMARK VINA RESULT:      -7.2      1.234      1.878
REMARK  Name = 
REMARK  8 active torsions:
REMARK  status: ('A' for Active; 'I' for Inactive)
REMARK    1  A    between atoms: C_1  and  C_2
REMARK    2  A    between atoms: C_2  and  C_3
REMARK    3  A    between atoms: C_3  and  C_4
REMARK    4  A    between atoms: C_4  and  O_5
REMARK    5  A    between atoms: O_5  and  C_6
REMARK    6  A    between atoms: C_9  and  N_10
REMARK    7  A    between atoms: N_10  and  C_11
REMARK    8  A    between atoms: C_13  and  C_14
REMARK                            x       y       z     vdW  Elec       q    Type
REMARK                         _______ _______ _______ _____ _____    ______ ____
ROOT
ATOM      1  C   UNL     1       0.139  11.125  19.040  0.00  0.00    +0.000 A 
ATOM      2  C   UNL     1       0.650  12.240  19.685  0.00  0.00    +0.000 A 
ATOM      3  C   UNL     1      -0.229  12.689  20.645  0.00  0.00    +0.000 A 
ATOM      4  C   UNL     1      -0.517  11.850  21.885  0.00  0.00    +0.000 C 
ATOM      5  N   UNL     1      -1.389  13.129  20.208  0.00  0.00    +0.000 NA
ATOM      6  C   UNL     1      -2.072  12.239  19.513  0.00  0.00    +0.000 A 
ATOM      7  C   UNL     1      -3.456  12.432  19.749  0.00  0.00    +0.000 A 
ATOM      8  C   UNL     1      -4.491  11.860  19.039  0.00  0.00    +0.000 A 
ATOM      9  C   UNL     1      -3.894  11.441  17.888  0.00  0.00    +0.000 A 
ATOM     10  C   UNL     1      -4.572  11.592  16.709  0.00  0.00    +0.000 A 
ATOM     11  N   UNL     1      -3.584  11.524  15.784  0.00  0.00    +0.000 N 
ATOM     12  N   UNL     1      -2.373  11.084  16.264  0.00  0.00    +0.000 NA
ATOM     13  C   UNL     1      -2.455  11.169  17.613  0.00  0.00    +0.000 A 
ATOM     14  C   UNL     1      -1.395  11.248  18.703  0.00  0.00    +0.000 A 
ATOM     15  H   UNL     1      -3.668  11.835  14.814  0.00  0.00    +0.000 HD
ENDROOT
BRANCH   1  16
ATOM     16  N   UNL     1       0.773   9.874  19.757  0.00  0.00    +0.000 N 
ATOM     17  H   UNL     1       0.203   9.598  20.555  0.00  0.00    +0.000 HD
BRANCH  16  21
ATOM     18  C   UNL     1       3.290   6.427  18.421  0.00  0.00    +0.000 A 
ATOM     19  C   UNL     1       3.105   7.529  17.601  0.00  0.00    +0.000 A 
ATOM     20  C   UNL     1       2.283   8.660  18.022  0.00  0.00    +0.000 A 
ATOM     21  C   UNL     1       1.590   8.729  19.254  0.00  0.00    +0.000 A 
ATOM     22  C   UNL     1       1.857   7.612  20.083  0.00  0.00    +0.000 A 
ATOM     23  C   UNL     1       2.670   6.489  19.666  0.00  0.00    +0.000 A 
BRANCH  18  24
ATOM     24  O   UNL     1       4.013   5.281  18.166  0.00  0.00    +0.000 OA
BRANCH  24  25
ATOM     25  C   UNL     1       5.385   5.080  18.553  0.00  0.00    +0.000 C 
BRANCH  25  26
ATOM     26  C   UNL     1       6.252   4.577  17.386  0.00  0.00    +0.000 C 
BRANCH  26  28
ATOM     27  C   UNL     1       7.020   6.997  17.501  0.00  0.00    +0.000 C 
ATOM     28  C   UNL     1       7.234   5.633  16.854  0.00  0.00    +0.000 C 
ENDBRANCH  26  28
ENDBRANCH  25  26
ENDBRANCH  24  25
ENDBRANCH  18  24
ENDBRANCH  16  21
ENDBRANCH   1  16
TORSDOF 6
ENDMDL
