MODEL 1
REMARK VINA RESULT:      -9.6      0.000      0.000
REMARK  Name = 
REMARK  10 active torsions:
REMARK  status: ('A' for Active; 'I' for Inactive)
REMARK    1  A    between atoms: C_1  and  C_2
REMARK    2  A    between atoms: C_2  and  O_3
REMARK    3  A    between atoms: O_3  and  C_4
REMARK    4  A    between atoms: C_9  and  C_10
REMARK    5  A    between atoms: N_12  and  C_13
REMARK    6  A    between atoms: C_16  and  S_17
REMARK    7  A    between atoms: S_17  and  N_20
REMARK    8  A    between atoms: N_20  and  C_21
REMARK    9  A    between atoms: N_20  and  C_28
REMARK   10  A    between atoms: C_21  and  C_22
REMARK                            x       y       z     vdW  Elec       q    Type
REMARK                         _______ _______ _______ _____ _____    ______ ____
ROOT
ATOM      1  C   UNL     1       8.020   7.540  18.442  0.00  0.00    +0.000 A 
ATOM      2  C   UNL     1       7.924   6.322  19.128  0.00  0.00    +0.000 A 
ATOM      3  C   UNL     1       6.959   5.357  18.790  0.00  0.00    +0.000 A 
ATOM      4  C   UNL     1       6.070   5.594  17.750  0.00  0.00    +0.000 A 
ATOM      5  C   UNL     1       6.195   6.781  17.010  0.00  0.00    +0.000 A 
ATOM      6  C   UNL     1       7.161   7.746  17.358  0.00  0.00    +0.000 A 
ENDROOT
BRANCH   1   9
ATOM      7  C   UNL     1       8.820   9.925  18.442  0.00  0.00    +0.000 C 
ATOM      8  O   UNL     1       7.890  10.400  17.792  0.00  0.00    +0.000 OA
ATOM      9  N   UNL     1       8.913   8.591  18.810  0.00  0.00    +0.000 N 
ATOM     10  H   UNL     1       9.717   8.338  19.377  0.00  0.00    +0.000 HD
BRANCH   7  16
ATOM     11  C   UNL     1      10.076  11.391  20.168  0.00  0.00    +0.000 A 
ATOM     12  C   UNL     1      11.121  12.303  20.419  0.00  0.00    +0.000 A 
ATOM     13  C   UNL     1      11.951  12.751  19.390  0.00  0.00    +0.000 A 
ATOM     14  C   UNL     1      11.782  12.254  18.107  0.00  0.00    +0.000 A 
ATOM     15  C   UNL     1      10.780  11.314  17.856  0.00  0.00    +0.000 A 
ATOM     16  C   UNL     1       9.906  10.874  18.873  0.00  0.00    +0.000 A 
BRANCH  11  17
ATOM     17  O   UNL     1       9.210  10.991  21.154  0.00  0.00    +0.000 OA
BRANCH  17  19
ATOM     18  C   UNL     1       8.190  11.583  23.224  0.00  0.00    +0.000 C 
ATOM     19  C   UNL     1       8.522  12.053  21.824  0.00  0.00    +0.000 C 
ENDBRANCH  17  19
ENDBRANCH  11  17
ENDBRANCH   7  16
ENDBRANCH   1   9
BRANCH   4  20
ATOM     20  S   UNL     1       4.655   4.544  17.417  0.00  0.00    +0.000 S 
ATOM     21  O   UNL     1       4.492   4.606  15.977  0.00  0.00    +0.000 OA
ATOM     22  O   UNL     1       4.901   3.280  18.083  0.00  0.00    +0.000 OA
BRANCH  20  23
ATOM     23  N   UNL     1       3.270   5.285  18.164  0.00  0.00    +0.000 N 
BRANCH  23  24
ATOM     24  C   UNL     1       2.409   4.308  18.815  0.00  0.00    +0.000 A 
ATOM     25  C   UNL     1       1.534   3.482  18.099  0.00  0.00    +0.000 A 
ATOM     26  C   UNL     1       0.684   2.596  18.768  0.00  0.00    +0.000 A 
ATOM     27  C   UNL     1       0.671   2.563  20.160  0.00  0.00    +0.000 A 
ATOM     28  C   UNL     1       1.503   3.417  20.882  0.00  0.00    +0.000 A 
ATOM     29  C   UNL     1       2.370   4.288  20.211  0.00  0.00    +0.000 A 
ENDBRANCH  23  24
BRANCH  23  30
ATOM     30  C   UNL     1       3.586   6.495  18.997  0.00  0.00    +0.000 C 
BRANCH  30  31
ATOM     31  C   UNL     1       2.559   7.615  18.958  0.00  0.00    +0.000 A 
ATOM     32  C   UNL     1       2.277   8.360  17.804  0.00  0.00    +0.000 A 
ATOM     33  C   UNL     1       1.346   9.401  17.837  0.00  0.00    +0.000 A 
ATOM     34  C   UNL     1       0.678   9.711  19.020  0.00  0.00    +0.000 A 
ATOM     35  C   UNL     1       0.946   8.983  20.176  0.00  0.00    +0.000 A 
ATOM     36  C   UNL     1       1.883   7.947  20.146  0.00  0.00    +0.000 A 
ENDBRANCH  30  31
ENDBRANCH  23  30
ENDBRANCH  20  23
ENDBRANCH   4  20
TORSDOF 9
ENDMDL
MODEL 2
REMARK VINA RESULT:      -8.8      3.744      7.945
REMARK  Name = 
REMARK  10 active torsions:
REMARK  status: ('A' for Active; 'I' for Inactive)
REMARK    1  A    between atoms: C_1  and  C_2
REMARK    2  A    between atoms: C_2  and  O_3
REMARK    3  A    between atoms: O_3  and  C_4
REMARK    4  A    between atoms: C_9  and  C_10
REMARK    5  A    between atoms: N_12  and  C_13
REMARK    6  A    between atoms: C_16  and  S_17
REMARK    7  A    between atoms: S_17  and  N_20
REMARK    8  A    between atoms: N_20  and  C_21
REMARK    9  A    between atoms: N_20  and  C_28
REMARK   10  A    between atoms: C_21  and  C_22
REMARK                            x       y       z     vdW  Elec       q    Type
REMARK                         _______ _______ _______ _____ _____    ______ ____
ROOT
ATOM      1  C   UNL     1       2.031   8.390  19.093  0.00  0.00    +0.000 A 
ATOM      2  C   UNL     1       2.607   8.266  17.822  0.00  0.00    +0.000 A 
ATOM      3  C   UNL     1       3.167   7.055  17.378  0.00  0.00    +0.000 A 
ATOM      4  C   UNL     1       3.154   5.938  18.203  0.00  0.00    +0.000 A 
ATOM      5  C   UNL     1       2.523   6.027  19.454  0.00  0.00    +0.000 A 
ATOM      6  C   UNL     1       1.968   7.246  19.894  0.00  0.00    +0.000 A 
ENDROOT
BRANCH   1   9
ATOM      7  C   UNL     1       0.478  10.369  19.144  0.00  0.00    +0.000 C 
ATOM      8  O   UNL     1      -0.246  10.021  18.212  0.00  0.00    +0.000 OA
ATOM      9  N   UNL     1       1.541   9.620  19.626  0.00  0.00    +0.000 N 
ATOM     10  H   UNL     1       2.036  10.007  20.424  0.00  0.00    +0.000 HD
BRANCH   7  16
ATOM     11  C   UNL     1       0.214  11.944  21.182  0.00  0.00    +0.000 A 
ATOM     12  C   UNL     1      -0.150  13.218  21.662  0.00  0.00    +0.000 A 
ATOM     13  C   UNL     1      -0.626  14.206  20.799  0.00  0.00    +0.000 A 
ATOM     14  C   UNL     1      -0.696  13.952  19.438  0.00  0.00    +0.000 A 
ATOM     15  C   UNL     1      -0.293  12.709  18.946  0.00  0.00    +0.000 A 
ATOM     16  C   UNL     1       0.158  11.683  19.803  0.00  0.00    +0.000 A 
BRANCH  11  17
ATOM     17  O   UNL     1       0.622  10.940  22.024  0.00  0.00    +0.000 OA
BRANCH  17  19
ATOM     18  C   UNL     1      -0.538   8.896  22.416  0.00  0.00    +0.000 C 
ATOM     19  C   UNL     1      -0.418  10.351  22.814  0.00  0.00    +0.000 C 
ENDBRANCH  17  19
ENDBRANCH  11  17
ENDBRANCH   7  16
ENDBRANCH   1   9
BRANCH   4  20
ATOM     20  S   UNL     1       4.063   4.438  17.828  0.00  0.00    +0.000 S 
ATOM     21  O   UNL     1       4.668   4.058  19.090  0.00  0.00    +0.000 OA
ATOM     22  O   UNL     1       3.145   3.547  17.146  0.00  0.00    +0.000 OA
BRANCH  20  23
ATOM     23  N   UNL     1       5.330   4.861  16.713  0.00  0.00    +0.000 N 
BRANCH  23  24
ATOM     24  C   UNL     1       6.357   5.682  17.335  0.00  0.00    +0.000 A 
ATOM     25  C   UNL     1       7.125   5.235  18.418  0.00  0.00    +0.000 A 
ATOM     26  C   UNL     1       8.063   6.076  19.021  0.00  0.00    +0.000 A 
ATOM     27  C   UNL     1       8.211   7.387  18.574  0.00  0.00    +0.000 A 
ATOM     28  C   UNL     1       7.416   7.857  17.530  0.00  0.00    +0.000 A 
ATOM     29  C   UNL     1       6.491   7.007  16.912  0.00  0.00    +0.000 A 
ENDBRANCH  23  24
BRANCH  23  30
ATOM     30  C   UNL     1       5.853   3.709  15.902  0.00  0.00    +0.000 C 
BRANCH  30  31
ATOM     31  C   UNL     1       6.395   4.058  14.525  0.00  0.00    +0.000 A 
ATOM     32  C   UNL     1       7.426   4.986  14.317  0.00  0.00    +0.000 A 
ATOM     33  C   UNL     1       7.860   5.291  13.025  0.00  0.00    +0.000 A 
ATOM     34  C   UNL     1       7.278   4.672  11.922  0.00  0.00    +0.000 A 
ATOM     35  C   UNL     1       6.253   3.749  12.108  0.00  0.00    +0.000 A 
ATOM     36  C   UNL     1       5.811   3.448  13.399  0.00  0.00    +0.000 A 
ENDBRANCH  30  31
ENDBRANCH  23  30
ENDBRANCH  20  23
ENDBRANCH   4  20
TORSDOF 9
ENDMDL
MODEL 3
REMARK VINA RESULT:      -8.7      1.400      1.878
REMARK  Name = 
REMARK  10 active torsions:
REMARK  status: ('A' for Active; 'I' for Inactive)
REMARK    1  A    between atoms: C_1  and  C_2
REMARK    2  A    between atoms: C_2  and  O_3
REMARK    3  A    between atoms: O_3  and  C_4
REMARK    4  A    between atoms: C_9  and  C_10
REMARK    5  A    between atoms: N_12  and  C_13
REMARK    6  A    between atoms: C_16  and  S_17
REMARK    7  A    between atoms: S_17  and  N_20
REMARK    8  A    between atoms: N_20  and  C_21
REMARK    9  A    between atoms: N_20  and  C_28
REMARK   10  A    between atoms: C_21  and  C_22
REMARK                            x       y       z     vdW  Elec       q    Type
REMARK                         _______ _______ _______ _____ _____    ______ ____
ROOT
ATOM      1  C   UNL     1       7.911   8.152  17.804  0.00  0.00    +0.000 A 
ATOM      2  C   UNL     1       8.240   7.093  18.660  0.00  0.00    +0.000 A 
ATOM      3  C   UNL     1       7.439   5.940  18.751  0.00  0.00    +0.000 A 
ATOM      4  C   UNL     1       6.291   5.827  17.979  0.00  0.00    +0.000 A 
ATOM      5  C   UNL     1       5.983   6.850  17.069  0.00  0.00    +0.000 A 
ATOM      6  C   UNL     1       6.787   8.005  16.987  0.00  0.00    +0.000 A 
ENDROOT
BRANCH   1   9
ATOM      7  C   UNL     1       9.042  10.153  18.829  0.00  0.00    +0.000 C 
ATOM      8  O   UNL     1       8.892   9.829  20.006  0.00  0.00    +0.000 OA
ATOM      9  N   UNL     1       8.634   9.382  17.750  0.00  0.00    +0.000 N 
ATOM     10  H   UNL     1       8.850   9.752  16.829  0.00  0.00    +0.000 HD
BRANCH   7  16
ATOM     11  C   UNL     1       9.237  12.507  17.766  0.00  0.00    +0.000 A 
ATOM     12  C   UNL     1      10.014  13.667  17.578  0.00  0.00    +0.000 A 
ATOM     13  C   UNL     1      11.296  13.772  18.118  0.00  0.00    +0.000 A 
ATOM     14  C   UNL     1      11.799  12.741  18.897  0.00  0.00    +0.000 A 
ATOM     15  C   UNL     1      11.018  11.607  19.130  0.00  0.00    +0.000 A 
ATOM     16  C   UNL     1       9.733  11.463  18.564  0.00  0.00    +0.000 A 
BRANCH  11  17
ATOM     17  O   UNL     1       8.000  12.360  17.188  0.00  0.00    +0.000 OA
BRANCH  17  19
ATOM     18  C   UNL     1       7.031  14.518  17.477  0.00  0.00    +0.000 C 
ATOM     19  C   UNL     1       6.936  13.054  17.850  0.00  0.00    +0.000 C 
ENDBRANCH  17  19
ENDBRANCH  11  17
ENDBRANCH   7  16
ENDBRANCH   1   9
BRANCH   4  20
ATOM     20  S   UNL     1       5.083   4.522  18.214  0.00  0.00    +0.000 S 
ATOM     21  O   UNL     1       4.983   3.885  16.914  0.00  0.00    +0.000 OA
ATOM     22  O   UNL     1       5.497   3.768  19.380  0.00  0.00    +0.000 OA
BRANCH  20  23
ATOM     23  N   UNL     1       3.560   5.281  18.576  0.00  0.00    +0.000 N 
BRANCH  23  24
ATOM     24  C   UNL     1       2.559   4.322  19.017  0.00  0.00    +0.000 A 
ATOM     25  C   UNL     1       1.822   3.538  18.121  0.00  0.00    +0.000 A 
ATOM     26  C   UNL     1       0.831   2.668  18.584  0.00  0.00    +0.000 A 
ATOM     27  C   UNL     1       0.539   2.608  19.945  0.00  0.00    +0.000 A 
ATOM     28  C   UNL     1       1.234   3.421  20.839  0.00  0.00    +0.000 A 
ATOM     29  C   UNL     1       2.241   4.277  20.377  0.00  0.00    +0.000 A 
ENDBRANCH  23  24
BRANCH  23  30
ATOM     30  C   UNL     1       3.668   6.513  19.431  0.00  0.00    +0.000 C 
BRANCH  30  31
ATOM     31  C   UNL     1       2.645   7.603  19.158  0.00  0.00    +0.000 A 
ATOM     32  C   UNL     1       2.496   8.222  17.909  0.00  0.00    +0.000 A 
ATOM     33  C   UNL     1       1.559   9.243  17.726  0.00  0.00    +0.000 A 
ATOM     34  C   UNL     1       0.755   9.658  18.785  0.00  0.00    +0.000 A 
ATOM     35  C   UNL     1       0.890   9.056  20.033  0.00  0.00    +0.000 A 
ATOM     36  C   UNL     1       1.831   8.040  20.219  0.00  0.00    +0.000 A 
ENDBRANCH  30  31
ENDBRANCH  23  30
ENDBRANCH  20  23
ENDBRANCH   4  20
TORSDOF 9
ENDMDL
MODEL 4
REMARK VINA RESULT:      -8.7      3.784      8.019
REMARK  Name = 
REMARK  10 active torsions:
REMARK  status: ('A' for Active; 'I' for Inactive)
REMARK    1  A    between atoms: C_1  and  C_2
REMARK    2  A    between atoms: C_2  and  O_3
REMARK    3  A    between atoms: O_3  and  C_4
REMARK    4  A    between atoms: C_9  and  C_10
REMARK    5  A    between atoms: N_12  and  C_13
REMARK    6  A    between atoms: C_16  and  S_17
REMARK    7  A    between atoms: S_17  and  N_20
REMARK    8  A    between atoms: N_20  and  C_21
REMARK    9  A    between atoms: N_20  and  C_28
REMARK   10  A    between atoms: C_21  and  C_22
REMARK                            x       y       z     vdW  Elec       q    Type
REMARK                         _______ _______ _______ _____ _____    ______ ____
ROOT
ATOM      1  C   UNL     1       1.850   8.029  19.475  0.00  0.00    +0.000 A 
ATOM      2  C   UNL     1       2.288   7.939  18.148  0.00  0.00    +0.000 A 
ATOM      3  C   UNL     1       2.861   6.760  17.637  0.00  0.00    +0.000 A 
ATOM      4  C   UNL     1       3.002   5.644  18.450  0.00  0.00    +0.000 A 
ATOM      5  C   UNL     1       2.508   5.697  19.764  0.00  0.00    +0.000 A 
ATOM      6  C   UNL     1       1.940   6.883  20.271  0.00  0.00    +0.000 A 
ENDROOT
BRANCH   1   9
ATOM      7  C   UNL     1       0.237   9.356  20.878  0.00  0.00    +0.000 C 
ATOM      8  O   UNL     1      -0.451   8.410  21.259  0.00  0.00    +0.000 OA
ATOM      9  N   UNL     1       1.356   9.230  20.068  0.00  0.00    +0.000 N 
ATOM     10  H   UNL     1       1.854  10.090  19.856  0.00  0.00    +0.000 HD
BRANCH   7  16
ATOM     11  C   UNL     1       0.139  11.938  20.709  0.00  0.00    +0.000 A 
ATOM     12  C   UNL     1      -0.276  13.154  21.289  0.00  0.00    +0.000 A 
ATOM     13  C   UNL     1      -0.929  13.180  22.521  0.00  0.00    +0.000 A 
ATOM     14  C   UNL     1      -1.224  11.989  23.167  0.00  0.00    +0.000 A 
ATOM     15  C   UNL     1      -0.860  10.776  22.579  0.00  0.00    +0.000 A 
ATOM     16  C   UNL     1      -0.167  10.726  21.350  0.00  0.00    +0.000 A 
BRANCH  11  17
ATOM     17  O   UNL     1       0.840  11.898  19.530  0.00  0.00    +0.000 OA
BRANCH  17  19
ATOM     18  C   UNL     1       2.609  12.617  18.104  0.00  0.00    +0.000 C 
ATOM     19  C   UNL     1       1.937  12.816  19.446  0.00  0.00    +0.000 C 
ENDBRANCH  17  19
ENDBRANCH  11  17
ENDBRANCH   7  16
ENDBRANCH   1   9
BRANCH   4  20
ATOM     20  S   UNL     1       3.944   4.197  17.967  0.00  0.00    +0.000 S 
ATOM     21  O   UNL     1       4.616   3.782  19.184  0.00  0.00    +0.000 OA
ATOM     22  O   UNL     1       3.028   3.305  17.284  0.00  0.00    +0.000 OA
BRANCH  20  23
ATOM     23  N   UNL     1       5.146   4.717  16.822  0.00  0.00    +0.000 N 
BRANCH  23  24
ATOM     24  C   UNL     1       6.111   5.630  17.415  0.00  0.00    +0.000 A 
ATOM     25  C   UNL     1       6.244   6.960  16.997  0.00  0.00    +0.000 A 
ATOM     26  C   UNL     1       7.221   7.788  17.555  0.00  0.00    +0.000 A 
ATOM     27  C   UNL     1       8.104   7.279  18.504  0.00  0.00    +0.000 A 
ATOM     28  C   UNL     1       8.012   5.943  18.890  0.00  0.00    +0.000 A 
ATOM     29  C   UNL     1       7.018   5.120  18.346  0.00  0.00    +0.000 A 
ENDBRANCH  23  24
BRANCH  23  30
ATOM     30  C   UNL     1       5.751   3.606  16.010  0.00  0.00    +0.000 C 
BRANCH  30  31
ATOM     31  C   UNL     1       6.315   4.004  14.655  0.00  0.00    +0.000 A 
ATOM     32  C   UNL     1       7.362   4.923  14.499  0.00  0.00    +0.000 A 
ATOM     33  C   UNL     1       7.816   5.276  13.225  0.00  0.00    +0.000 A 
ATOM     34  C   UNL     1       7.237   4.713  12.090  0.00  0.00    +0.000 A 
ATOM     35  C   UNL     1       6.195   3.800  12.226  0.00  0.00    +0.000 A 
ATOM     36  C   UNL     1       5.735   3.452  13.498  0.00  0.00    +0.000 A 
ENDBRANCH  30  31
ENDBRANCH  23  30
ENDBRANCH  20  23
ENDBRANCH   4  20
TORSDOF 9
ENDMDL
MODEL 5
REMARK VINA RESULT:      -8.7      1.063      1.365
REMARK  Name = 
REMARK  10 active torsions:
REMARK  status: ('A' for Active; 'I' for Inactive)
REMARK    1  A    between atoms: C_1  and  C_2
REMARK    2  A    between atoms: C_2  and  O_3
REMARK    3  A    between atoms: O_3  and  C_4
REMARK    4  A    between atoms: C_9  and  C_10
REMARK    5  A    between atoms: N_12  and  C_13
REMARK    6  A    between atoms: C_16  and  S_17
REMARK    7  A    between atoms: S_17  and  N_20
REMARK    8  A    between atoms: N_20  and  C_21
REMARK    9  A    between atoms: N_20  and  C_28
REMARK   10  A    between atoms: C_21  and  C_22
REMARK                            x       y       z     vdW  Elec       q    Type
REMARK                         _______ _______ _______ _____ _____    ______ ____
ROOT
ATOM      1  C   UNL     1       7.959   8.188  17.925  0.00  0.00    +0.000 A 
ATOM      2  C   UNL     1       8.284   7.111  18.760  0.00  0.00    +0.000 A 
ATOM      3  C   UNL     1       7.491   5.951  18.814  0.00  0.00    +0.000 A 
ATOM      4  C   UNL     1       6.354   5.847  18.023  0.00  0.00    +0.000 A 
ATOM      5  C   UNL     1       6.051   6.889  17.133  0.00  0.00    +0.000 A 
ATOM      6  C   UNL     1       6.847   8.051  17.089  0.00  0.00    +0.000 A 
ENDROOT
BRANCH   1   9
ATOM      7  C   UNL     1       9.099  10.150  19.012  0.00  0.00    +0.000 C 
ATOM      8  O   UNL     1       8.975   9.775  20.177  0.00  0.00    +0.000 OA
ATOM      9  N   UNL     1       8.673   9.424  17.909  0.00  0.00    +0.000 N 
ATOM     10  H   UNL     1       8.869   9.834  17.001  0.00  0.00    +0.000 HD
BRANCH   7  16
ATOM     11  C   UNL     1       9.734  12.575  19.662  0.00  0.00    +0.000 A 
ATOM     12  C   UNL     1      10.391  13.770  19.306  0.00  0.00    +0.000 A 
ATOM     13  C   UNL     1      11.029  13.901  18.072  0.00  0.00    +0.000 A 
ATOM     14  C   UNL     1      11.067  12.825  17.200  0.00  0.00    +0.000 A 
ATOM     15  C   UNL     1      10.460  11.620  17.564  0.00  0.00    +0.000 A 
ATOM     16  C   UNL     1       9.777  11.475  18.790  0.00  0.00    +0.000 A 
BRANCH  11  17
ATOM     17  O   UNL     1       9.046  12.450  20.843  0.00  0.00    +0.000 OA
BRANCH  17  19
ATOM     18  C   UNL     1       8.726  14.047  22.583  0.00  0.00    +0.000 C 
ATOM     19  C   UNL     1       8.266  13.593  21.214  0.00  0.00    +0.000 C 
ENDBRANCH  17  19
ENDBRANCH  11  17
ENDBRANCH   7  16
ENDBRANCH   1   9
BRANCH   4  20
ATOM     20  S   UNL     1       5.153   4.529  18.211  0.00  0.00    +0.000 S 
ATOM     21  O   UNL     1       5.063   3.933  16.891  0.00  0.00    +0.000 OA
ATOM     22  O   UNL     1       5.566   3.740  19.355  0.00  0.00    +0.000 OA
BRANCH  20  23
ATOM     23  N   UNL     1       3.624   5.268  18.590  0.00  0.00    +0.000 N 
BRANCH  23  24
ATOM     24  C   UNL     1       2.627   4.289  18.998  0.00  0.00    +0.000 A 
ATOM     25  C   UNL     1       1.939   3.488  18.079  0.00  0.00    +0.000 A 
ATOM     26  C   UNL     1       0.950   2.599  18.509  0.00  0.00    +0.000 A 
ATOM     27  C   UNL     1       0.610   2.538  19.858  0.00  0.00    +0.000 A 
ATOM     28  C   UNL     1       1.255   3.367  20.774  0.00  0.00    +0.000 A 
ATOM     29  C   UNL     1       2.261   4.241  20.345  0.00  0.00    +0.000 A 
ENDBRANCH  23  24
BRANCH  23  30
ATOM     30  C   UNL     1       3.721   6.473  19.482  0.00  0.00    +0.000 C 
BRANCH  30  31
ATOM     31  C   UNL     1       2.703   7.573  19.225  0.00  0.00    +0.000 A 
ATOM     32  C   UNL     1       1.817   8.043  20.204  0.00  0.00    +0.000 A 
ATOM     33  C   UNL     1       0.879   9.034  19.900  0.00  0.00    +0.000 A 
ATOM     34  C   UNL     1       0.816   9.574  18.618  0.00  0.00    +0.000 A 
ATOM     35  C   UNL     1       1.688   9.118  17.633  0.00  0.00    +0.000 A 
ATOM     36  C   UNL     1       2.620   8.122  17.933  0.00  0.00    +0.000 A 
ENDBRANCH  30  31
ENDBRANCH  23  30
ENDBRANCH  20  23
ENDBRANCH   4  20
TORSDOF 9
ENDMDL
MODEL 6
REMARK VINA RESULT:      -8.7      3.736      8.106
REMARK  Name = 
REMARK  10 active torsions:
REMARK  status: ('A' for Active; 'I' for Inactive)
REMARK    1  A    between atoms: C_1  and  C_2
REMARK    2  A    between atoms: C_2  and  O_3
REMARK    3  A    between atoms: O_3  and  C_4
REMARK    4  A    between atoms: C_9  and  C_10
REMARK    5  A    between atoms: N_12  and  C_13
REMARK    6  A    between atoms: C_16  and  S_17
REMARK    7  A    between atoms: S_17  and  N_20
REMARK    8  A    between atoms: N_20  and  C_21
REMARK    9  A    between atoms: N_20  and  C_28
REMARK   10  A    between atoms: C_21  and  C_22
REMARK                            x       y       z     vdW  Elec       q    Type
REMARK                         _______ _______ _______ _____ _____    ______ ____
ROOT
ATOM      1  C   UNL     1       1.849   7.748  19.699  0.00  0.00    +0.000 A 
ATOM      2  C   UNL     1       2.107   6.650  20.530  0.00  0.00    +0.000 A 
ATOM      3  C   UNL     1       2.870   5.553  20.090  0.00  0.00    +0.000 A 
ATOM      4  C   UNL     1       3.395   5.540  18.805  0.00  0.00    +0.000 A 
ATOM      5  C   UNL     1       3.201   6.661  17.983  0.00  0.00    +0.000 A 
ATOM      6  C   UNL     1       2.430   7.754  18.428  0.00  0.00    +0.000 A 
ENDROOT
BRANCH   1   9
ATOM      7  C   UNL     1       0.965   9.490  21.285  0.00  0.00    +0.000 C 
ATOM      8  O   UNL     1       1.737   9.258  22.214  0.00  0.00    +0.000 OA
ATOM      9  N   UNL     1       0.998   8.835  20.062  0.00  0.00    +0.000 N 
ATOM     10  H   UNL     1       0.325   9.149  19.369  0.00  0.00    +0.000 HD
BRANCH   7  16
ATOM     11  C   UNL     1      -0.418  11.558  20.569  0.00  0.00    +0.000 A 
ATOM     12  C   UNL     1      -1.371  12.534  20.924  0.00  0.00    +0.000 A 
ATOM     13  C   UNL     1      -1.916  12.577  22.207  0.00  0.00    +0.000 A 
ATOM     14  C   UNL     1      -1.557  11.614  23.138  0.00  0.00    +0.000 A 
ATOM     15  C   UNL     1      -0.650  10.614  22.782  0.00  0.00    +0.000 A 
ATOM     16  C   UNL     1      -0.058  10.572  21.501  0.00  0.00    +0.000 A 
BRANCH  11  17
ATOM     17  O   UNL     1       0.176  11.541  19.332  0.00  0.00    +0.000 OA
BRANCH  17  19
ATOM     18  C   UNL     1       2.258  12.253  18.416  0.00  0.00    +0.000 C 
ATOM     19  C   UNL     1       0.943  12.708  19.012  0.00  0.00    +0.000 C 
ENDBRANCH  17  19
ENDBRANCH  11  17
ENDBRANCH   7  16
ENDBRANCH   1   9
BRANCH   4  20
ATOM     20  S   UNL     1       4.156   4.089  18.077  0.00  0.00    +0.000 S 
ATOM     21  O   UNL     1       4.917   3.498  19.162  0.00  0.00    +0.000 OA
ATOM     22  O   UNL     1       3.101   3.344  17.418  0.00  0.00    +0.000 OA
BRANCH  20  23
ATOM     23  N   UNL     1       5.269   4.640  16.858  0.00  0.00    +0.000 N 
BRANCH  23  24
ATOM     24  C   UNL     1       6.279   5.536  17.401  0.00  0.00    +0.000 A 
ATOM     25  C   UNL     1       7.126   5.166  18.453  0.00  0.00    +0.000 A 
ATOM     26  C   UNL     1       8.045   6.077  18.980  0.00  0.00    +0.000 A 
ATOM     27  C   UNL     1       8.093   7.380  18.490  0.00  0.00    +0.000 A 
ATOM     28  C   UNL     1       7.219   7.771  17.476  0.00  0.00    +0.000 A 
ATOM     29  C   UNL     1       6.314   6.852  16.933  0.00  0.00    +0.000 A 
ENDBRANCH  23  24
BRANCH  23  30
ATOM     30  C   UNL     1       5.807   3.552  15.971  0.00  0.00    +0.000 C 
BRANCH  30  31
ATOM     31  C   UNL     1       6.364   4.002  14.631  0.00  0.00    +0.000 A 
ATOM     32  C   UNL     1       7.444   4.887  14.506  0.00  0.00    +0.000 A 
ATOM     33  C   UNL     1       7.892   5.292  13.246  0.00  0.00    +0.000 A 
ATOM     34  C   UNL     1       7.273   4.816  12.092  0.00  0.00    +0.000 A 
ATOM     35  C   UNL     1       6.198   3.938  12.197  0.00  0.00    +0.000 A 
ATOM     36  C   UNL     1       5.744   3.539  13.456  0.00  0.00    +0.000 A 
ENDBRANCH  30  31
ENDBRANCH  23  30
ENDBRANCH  20  23
ENDBRANCH   4  20
TORSDOF 9
ENDMDL
MODEL 7
REMARK VINA RESULT:      -8.6      4.839      8.041
REMARK  Name = 
REMARK  10 active torsions:
REMARK  status: ('A' for Active; 'I' for Inactive)
REMARK    1  A    between atoms: C_1  and  C_2
REMARK    2  A    between atoms: C_2  and  O_3
REMARK    3  A    between atoms: O_3  and  C_4
REMARK    4  A    between atoms: C_9  and  C_10
REMARK    5  A    between atoms: N_12  and  C_13
REMARK    6  A    between atoms: C_16  and  S_17
REMARK    7  A    between atoms: S_17  and  N_20
REMARK    8  A    between atoms: N_20  and  C_21
REMARK    9  A    between atoms: N_20  and  C_28
REMARK   10  A    between atoms: C_21  and  C_22
REMARK                            x       y       z     vdW  Elec       q    Type
REMARK                         _______ _______ _______ _____ _____    ______ ____
ROOT
ATOM      1  C   UNL     1       1.441   8.610  19.273  0.00  0.00    +0.000 A 
ATOM      2  C   UNL     1       2.056   8.769  18.025  0.00  0.00    +0.000 A 
ATOM      3  C   UNL     1       3.101   7.927  17.602  0.00  0.00    +0.000 A 
ATOM      4  C   UNL     1       3.546   6.902  18.426  0.00  0.00    +0.000 A 
ATOM      5  C   UNL     1       2.897   6.688  19.652  0.00  0.00    +0.000 A 
ATOM      6  C   UNL     1       1.854   7.539  20.072  0.00  0.00    +0.000 A 
ENDROOT
BRANCH   1   9
ATOM      7  C   UNL     1       0.484  10.165  21.004  0.00  0.00    +0.000 C 
ATOM      8  O   UNL     1       1.436  10.133  21.783  0.00  0.00    +0.000 OA
ATOM      9  N   UNL     1       0.449   9.498  19.788  0.00  0.00    +0.000 N 
ATOM     10  H   UNL     1      -0.384   9.638  19.225  0.00  0.00    +0.000 HD
BRANCH   7  16
ATOM     11  C   UNL     1      -1.446  11.831  20.548  0.00  0.00    +0.000 A 
ATOM     12  C   UNL     1      -2.509  12.592  21.072  0.00  0.00    +0.000 A 
ATOM     13  C   UNL     1      -2.792  12.592  22.438  0.00  0.00    +0.000 A 
ATOM     14  C   UNL     1      -2.051  11.791  23.293  0.00  0.00    +0.000 A 
ATOM     15  C   UNL     1      -1.025  10.995  22.777  0.00  0.00    +0.000 A 
ATOM     16  C   UNL     1      -0.697  11.006  21.404  0.00  0.00    +0.000 A 
BRANCH  11  17
ATOM     17  O   UNL     1      -1.112  11.869  19.217  0.00  0.00    +0.000 OA
BRANCH  17  19
ATOM     18  C   UNL     1       0.865  13.054  18.611  0.00  0.00    +0.000 C 
ATOM     19  C   UNL     1      -0.640  13.138  18.747  0.00  0.00    +0.000 C 
ENDBRANCH  17  19
ENDBRANCH  11  17
ENDBRANCH   7  16
ENDBRANCH   1   9
BRANCH   4  20
ATOM     20  S   UNL     1       5.027   5.951  18.085  0.00  0.00    +0.000 S 
ATOM     21  O   UNL     1       5.845   6.834  17.276  0.00  0.00    +0.000 OA
ATOM     22  O   UNL     1       5.510   5.450  19.357  0.00  0.00    +0.000 OA
BRANCH  20  23
ATOM     23  N   UNL     1       4.558   4.586  17.113  0.00  0.00    +0.000 N 
BRANCH  23  24
ATOM     24  C   UNL     1       5.355   4.475  15.901  0.00  0.00    +0.000 A 
ATOM     25  C   UNL     1       6.707   4.838  15.854  0.00  0.00    +0.000 A 
ATOM     26  C   UNL     1       7.422   4.767  14.655  0.00  0.00    +0.000 A 
ATOM     27  C   UNL     1       6.777   4.377  13.483  0.00  0.00    +0.000 A 
ATOM     28  C   UNL     1       5.420   4.062  13.511  0.00  0.00    +0.000 A 
ATOM     29  C   UNL     1       4.710   4.112  14.717  0.00  0.00    +0.000 A 
ENDBRANCH  23  24
BRANCH  23  30
ATOM     30  C   UNL     1       4.400   3.303  17.880  0.00  0.00    +0.000 C 
BRANCH  30  31
ATOM     31  C   UNL     1       3.207   3.233  18.819  0.00  0.00    +0.000 A 
ATOM     32  C   UNL     1       3.324   2.975  20.192  0.00  0.00    +0.000 A 
ATOM     33  C   UNL     1       2.188   2.889  21.001  0.00  0.00    +0.000 A 
ATOM     34  C   UNL     1       0.919   3.065  20.453  0.00  0.00    +0.000 A 
ATOM     35  C   UNL     1       0.783   3.320  19.092  0.00  0.00    +0.000 A 
ATOM     36  C   UNL     1       1.918   3.399  18.280  0.00  0.00    +0.000 A 
ENDBRANCH  30  31
ENDBRANCH  23  30
ENDBRANCH  20  23
ENDBRANCH   4  20
TORSDOF 9
ENDMDL
MODEL 8
REMARK VINA RESULT:      -8.6      3.932      8.031
REMARK  Name = 
REMARK  10 active torsions:
REMARK  status: ('A' for Active; 'I' for Inactive)
REMARK    1  A    between atoms: C_1  and  C_2
REMARK    2  A    between atoms: C_2  and  O_3
REMARK    3  A    between atoms: O_3  and  C_4
REMARK    4  A    between atoms: C_9  and  C_10
REMARK    5  A    between atoms: N_12  and  C_13
REMARK    6  A    between atoms: C_16  and  S_17
REMARK    7  A    between atoms: S_17  and  N_20
REMARK    8  A    between atoms: N_20  and  C_21
REMARK    9  A    between atoms: N_20  and  C_28
REMARK   10  A    between atoms: C_21  and  C_22
REMARK                            x       y       z     vdW  Elec       q    Type
REMARK                         _______ _______ _______ _____ _____    ______ ____
ROOT
ATOM      1  C   UNL     1       1.977   8.482  19.337  0.00  0.00    +0.000 A 
ATOM      2  C   UNL     1       2.055   7.370  20.185  0.00  0.00    +0.000 A 
ATOM      3  C   UNL     1       2.644   6.163  19.770  0.00  0.00    +0.000 A 
ATOM      4  C   UNL     1       3.173   6.049  18.492  0.00  0.00    +0.000 A 
ATOM      5  C   UNL     1       3.162   7.173  17.651  0.00  0.00    +0.000 A 
ATOM      6  C   UNL     1       2.565   8.379  18.072  0.00  0.00    +0.000 A 
ENDROOT
BRANCH   1   9
ATOM      7  C   UNL     1       0.315  10.327  18.933  0.00  0.00    +0.000 C 
ATOM      8  O   UNL     1      -0.169   9.875  17.897  0.00  0.00    +0.000 OA
ATOM      9  N   UNL     1       1.302   9.693  19.674  0.00  0.00    +0.000 N 
ATOM     10  H   UNL     1       1.588  10.160  20.530  0.00  0.00    +0.000 HD
BRANCH   7  16
ATOM     11  C   UNL     1      -0.985  11.834  20.590  0.00  0.00    +0.000 A 
ATOM     12  C   UNL     1      -1.459  13.122  20.907  0.00  0.00    +0.000 A 
ATOM     13  C   UNL     1      -1.245  14.201  20.047  0.00  0.00    +0.000 A 
ATOM     14  C   UNL     1      -0.510  14.018  18.886  0.00  0.00    +0.000 A 
ATOM     15  C   UNL     1       0.006  12.755  18.587  0.00  0.00    +0.000 A 
ATOM     16  C   UNL     1      -0.228  11.642  19.423  0.00  0.00    +0.000 A 
BRANCH  11  17
ATOM     17  O   UNL     1      -1.242  10.749  21.391  0.00  0.00    +0.000 OA
BRANCH  17  19
ATOM     18  C   UNL     1      -0.027   9.594  23.086  0.00  0.00    +0.000 C 
ATOM     19  C   UNL     1      -0.771  10.866  22.739  0.00  0.00    +0.000 C 
ENDBRANCH  17  19
ENDBRANCH  11  17
ENDBRANCH   7  16
ENDBRANCH   1   9
BRANCH   4  20
ATOM     20  S   UNL     1       3.707   4.486  17.793  0.00  0.00    +0.000 S 
ATOM     21  O   UNL     1       4.240   3.749  18.923  0.00  0.00    +0.000 OA
ATOM     22  O   UNL     1       2.594   3.964  17.024  0.00  0.00    +0.000 OA
BRANCH  20  23
ATOM     23  N   UNL     1       5.010   4.826  16.691  0.00  0.00    +0.000 N 
BRANCH  23  24
ATOM     24  C   UNL     1       6.101   5.543  17.335  0.00  0.00    +0.000 A 
ATOM     25  C   UNL     1       6.821   5.009  18.411  0.00  0.00    +0.000 A 
ATOM     26  C   UNL     1       7.824   5.754  19.035  0.00  0.00    +0.000 A 
ATOM     27  C   UNL     1       8.086   7.057  18.618  0.00  0.00    +0.000 A 
ATOM     28  C   UNL     1       7.340   7.614  17.580  0.00  0.00    +0.000 A 
ATOM     29  C   UNL     1       6.350   6.860  16.940  0.00  0.00    +0.000 A 
ENDBRANCH  23  24
BRANCH  23  30
ATOM     30  C   UNL     1       5.438   3.653  15.854  0.00  0.00    +0.000 C 
BRANCH  30  31
ATOM     31  C   UNL     1       6.104   3.989  14.530  0.00  0.00    +0.000 A 
ATOM     32  C   UNL     1       7.177   4.884  14.414  0.00  0.00    +0.000 A 
ATOM     33  C   UNL     1       7.726   5.180  13.164  0.00  0.00    +0.000 A 
ATOM     34  C   UNL     1       7.218   4.583  12.012  0.00  0.00    +0.000 A 
ATOM     35  C   UNL     1       6.152   3.693  12.108  0.00  0.00    +0.000 A 
ATOM     36  C   UNL     1       5.596   3.403  13.356  0.00  0.00    +0.000 A 
ENDBRANCH  30  31
ENDBRANCH  23  30
ENDBRANCH  20  23
ENDBRANCH   4  20
TORSDOF 9
ENDMDL
MODEL 9
REMARK VINA RESULT:      -8.6      3.718      8.261
REMARK  Name = 
REMARK  10 active torsions:
REMARK  status: ('A' for Active; 'I' for Inactive)
REMARK    1  A    between atoms: C_1  and  C_2
REMARK    2  A    between atoms: C_2  and  O_3
REMARK    3  A    between atoms: O_3  and  C_4
REMARK    4  A    between atoms: C_9  and  C_10
REMARK    5  A    between atoms: N_12  and  C_13
REMARK    6  A    between atoms: C_16  and  S_17
REMARK    7  A    between atoms: S_17  and  N_20
REMARK    8  A    between atoms: N_20  and  C_21
REMARK    9  A    between atoms: N_20  and  C_28
REMARK   10  A    between atoms: C_21  and  C_22
REMARK                            x       y       z     vdW  Elec       q    Type
REMARK                         _______ _______ _______ _____ _____    ______ ____
ROOT
ATOM      1  C   UNL     1       1.628   8.478  19.151  0.00  0.00    +0.000 A 
ATOM      2  C   UNL     1       2.083   7.562  20.108  0.00  0.00    +0.000 A 
ATOM      3  C   UNL     1       2.786   6.400  19.744  0.00  0.00    +0.000 A 
ATOM      4  C   UNL     1       3.051   6.135  18.407  0.00  0.00    +0.000 A 
ATOM      5  C   UNL     1       2.659   7.075  17.441  0.00  0.00    +0.000 A 
ATOM      6  C   UNL     1       1.950   8.235  17.812  0.00  0.00    +0.000 A 
ENDROOT
BRANCH   1   9
ATOM      7  C   UNL     1       1.125  10.943  19.182  0.00  0.00    +0.000 C 
ATOM      8  O   UNL     1       2.114  11.310  18.549  0.00  0.00    +0.000 OA
ATOM      9  N   UNL     1       0.826   9.617  19.460  0.00  0.00    +0.000 N 
ATOM     10  H   UNL     1      -0.042   9.450  19.962  0.00  0.00    +0.000 HD
BRANCH   7  16
ATOM     11  C   UNL     1      -1.218  11.989  19.530  0.00  0.00    +0.000 A 
ATOM     12  C   UNL     1      -1.976  13.085  19.989  0.00  0.00    +0.000 A 
ATOM     13  C   UNL     1      -1.358  14.224  20.506  0.00  0.00    +0.000 A 
ATOM     14  C   UNL     1       0.023  14.263  20.621  0.00  0.00    +0.000 A 
ATOM     15  C   UNL     1       0.781  13.163  20.214  0.00  0.00    +0.000 A 
ATOM     16  C   UNL     1       0.181  12.015  19.654  0.00  0.00    +0.000 A 
BRANCH  11  17
ATOM     17  O   UNL     1      -1.806  10.888  18.959  0.00  0.00    +0.000 OA
BRANCH  17  19
ATOM     18  C   UNL     1      -3.025   9.817  17.213  0.00  0.00    +0.000 C 
ATOM     19  C   UNL     1      -2.468  11.133  17.712  0.00  0.00    +0.000 C 
ENDBRANCH  17  19
ENDBRANCH  11  17
ENDBRANCH   7  16
ENDBRANCH   1   9
BRANCH   4  20
ATOM     20  S   UNL     1       3.707   4.568  17.834  0.00  0.00    +0.000 S 
ATOM     21  O   UNL     1       4.235   3.939  19.031  0.00  0.00    +0.000 OA
ATOM     22  O   UNL     1       2.662   3.929  17.060  0.00  0.00    +0.000 OA
BRANCH  20  23
ATOM     23  N   UNL     1       5.033   4.919  16.763  0.00  0.00    +0.000 N 
BRANCH  23  24
ATOM     24  C   UNL     1       6.047   5.748  17.398  0.00  0.00    +0.000 A 
ATOM     25  C   UNL     1       6.304   7.064  16.993  0.00  0.00    +0.000 A 
ATOM     26  C   UNL     1       7.324   7.807  17.592  0.00  0.00    +0.000 A 
ATOM     27  C   UNL     1       8.125   7.224  18.571  0.00  0.00    +0.000 A 
ATOM     28  C   UNL     1       7.909   5.899  18.945  0.00  0.00    +0.000 A 
ATOM     29  C   UNL     1       6.873   5.162  18.360  0.00  0.00    +0.000 A 
ENDBRANCH  23  24
BRANCH  23  30
ATOM     30  C   UNL     1       5.571   3.723  16.029  0.00  0.00    +0.000 C 
BRANCH  30  31
ATOM     31  C   UNL     1       6.168   3.998  14.658  0.00  0.00    +0.000 A 
ATOM     32  C   UNL     1       7.241   4.876  14.450  0.00  0.00    +0.000 A 
ATOM     33  C   UNL     1       7.727   5.116  13.162  0.00  0.00    +0.000 A 
ATOM     34  C   UNL     1       7.154   4.479  12.064  0.00  0.00    +0.000 A 
ATOM     35  C   UNL     1       6.086   3.605  12.251  0.00  0.00    +0.000 A 
ATOM     36  C   UNL     1       5.594   3.371  13.537  0.00  0.00    +0.000 A 
ENDBRANCH  30  31
ENDBRANCH  23  30
ENDBRANCH  20  23
ENDBRANCH   4  20
TORSDOF 9
ENDMDL
