MODEL 1
REMARK VINA RESULT:      -8.4      0.000      0.000
REMARK  Name = 
REMARK  9 active torsions:
REMARK  status: ('A' for Active; 'I' for Inactive)
REMARK    1  A    between atoms: N_1  and  C_2
REMARK    2  A    between atoms: C_5  and  C_6
REMARK    3  A    between atoms: C_12  and  N_13
REMARK    4  A    between atoms: C_14  and  C_16
REMARK    5  A    between atoms: C_19  and  C_20
REMARK    6  A    between atoms: C_20  and  N_21
REMARK    7  A    between atoms: C_22  and  C_24
REMARK    8  A    between atoms: C_24  and  C_25
REMARK    9  A    between atoms: C_25  and  C_26
REMARK                            x       y       z     vdW  Elec       q    Type
REMARK                         _______ _______ _______ _____ _____    ______ ____
ROOT
ATOM      1  C   UNL     1       2.024   7.546  19.488  0.00  0.00    +0.000 A 
ATOM      2  C   UNL     1       2.705   7.323  18.278  0.00  0.00    +0.000 A 
ATOM      3  C   UNL     1       3.361   6.117  18.032  0.00  0.00    +0.000 A 
ATOM      4  C   UNL     1       3.351   5.100  18.991  0.00  0.00    +0.000 A 
ATOM      5  C   UNL     1       2.701   5.331  20.215  0.00  0.00    +0.000 A 
ATOM      6  C   UNL     1       2.038   6.546  20.464  0.00  0.00    +0.000 A 
ENDROOT
BRANCH   1   8
ATOM      7  N   UNL     1       1.345   9.735  18.560  0.00  0.00    +0.000 N 
ATOM      8  C   UNL     1       1.355   8.873  19.645  0.00  0.00    +0.000 C 
ATOM      9  O   UNL     1       0.854   9.104  20.746  0.00  0.00    +0.000 OA
ATOM     10  H   UNL     1       1.646   9.391  17.663  0.00  0.00    +0.000 HD
BRANCH   7  16
ATOM     11  C   UNL     1      -0.469  11.399  18.623  0.00  0.00    +0.000 A 
ATOM     12  C   UNL     1      -0.855  12.748  18.706  0.00  0.00    +0.000 A 
ATOM     13  C   UNL     1       0.082  13.783  18.655  0.00  0.00    +0.000 A 
ATOM     14  C   UNL     1       1.444  13.501  18.549  0.00  0.00    +0.000 A 
ATOM     15  C   UNL     1       1.835  12.153  18.517  0.00  0.00    +0.000 A 
ATOM     16  C   UNL     1       0.910  11.095  18.584  0.00  0.00    +0.000 A 
BRANCH  14  17
ATOM     17  C   UNL     1       2.462  14.565  18.493  0.00  0.00    +0.000 A 
ATOM     18  C   UNL     1       3.827  14.449  18.275  0.00  0.00    +0.000 A 
ATOM     19  C   UNL     1       4.497  15.706  18.263  0.00  0.00    +0.000 A 
ATOM     20  C   UNL     1       3.627  16.752  18.467  0.00  0.00    +0.000 A 
ATOM     21  S   UNL     1       2.019  16.217  18.664  0.00  0.00    +0.000 S 
ENDBRANCH  14  17
BRANCH  11  22
ATOM     22  N   UNL     1      -1.466  10.429  18.839  0.00  0.00    +0.000 N 
ATOM     23  H   UNL     1      -2.175  10.415  18.109  0.00  0.00    +0.000 HD
ATOM     24  H   UNL     1      -1.137   9.500  19.058  0.00  0.00    +0.000 HD
ENDBRANCH  11  22
ENDBRANCH   7  16
ENDBRANCH   1   8
BRANCH   4  25
ATOM     25  C   UNL     1       4.045   3.794  18.698  0.00  0.00    +0.000 C 
BRANCH  25  26
ATOM     26  N   UNL     1       5.099   3.945  17.722  0.00  0.00    +0.000 N 
ATOM     27  C   UNL     1       6.333   4.423  18.105  0.00  0.00    +0.000 C 
ATOM     28  O   UNL     1       6.573   4.811  19.244  0.00  0.00    +0.000 OA
ATOM     29  H   UNL     1       4.975   3.539  16.803  0.00  0.00    +0.000 HD
BRANCH  27  30
ATOM     30  C   UNL     1       7.347   4.480  16.979  0.00  0.00    +0.000 C 
BRANCH  30  31
ATOM     31  C   UNL     1       6.972   5.541  15.945  0.00  0.00    +0.000 C 
BRANCH  31  32
ATOM     32  C   UNL     1       6.798   4.940  14.571  0.00  0.00    +0.000 A 
ATOM     33  C   UNL     1       5.758   4.032  14.329  0.00  0.00    +0.000 A 
ATOM     34  C   UNL     1       5.614   3.435  13.076  0.00  0.00    +0.000 A 
ATOM     35  C   UNL     1       6.508   3.739  12.051  0.00  0.00    +0.000 A 
ATOM     36  C   UNL     1       7.539   4.649  12.277  0.00  0.00    +0.000 A 
ATOM     37  C   UNL     1       7.685   5.248  13.530  0.00  0.00    +0.000 A 
ENDBRANCH  31  32
ENDBRANCH  30  31
ENDBRANCH  27  30
ENDBRANCH  25  26
ENDBRANCH   4  25
TORSDOF 9
ENDMDL
MODEL 2
REMARK VINA RESULT:      -8.4      1.933      2.393
REMARK  Name = 
REMARK  9 active torsions:
REMARK  status: ('A' for Active; 'I' for Inactive)
REMARK    1  A    between atoms: N_1  and  C_2
REMARK    2  A    between atoms: C_5  and  C_6
REMARK    3  A    between atoms: C_12  and  N_13
REMARK    4  A    between atoms: C_14  and  C_16
REMARK    5  A    between atoms: C_19  and  C_20
REMARK    6  A    between atoms: C_20  and  N_21
REMARK    7  A    between atoms: C_22  and  C_24
REMARK    8  A    between atoms: C_24  and  C_25
REMARK    9  A    between atoms: C_25  and  C_26
REMARK                            x       y       z     vdW  Elec       q    Type
REMARK                         _______ _______ _______ _____ _____    ______ ____
ROOT
ATOM      1  C   UNL     1       1.966   7.572  19.635  0.00  0.00    +0.000 A 
ATOM      2  C   UNL     1       2.784   7.451  18.497  0.00  0.00    +0.000 A 
ATOM      3  C   UNL     1       3.478   6.270  18.232  0.00  0.00    +0.000 A 
ATOM      4  C   UNL     1       3.370   5.178  19.098  0.00  0.00    +0.000 A 
ATOM      5  C   UNL     1       2.582   5.307  20.253  0.00  0.00    +0.000 A 
ATOM      6  C   UNL     1       1.880   6.496  20.522  0.00  0.00    +0.000 A 
ENDROOT
BRANCH   1   8
ATOM      7  N   UNL     1       1.177   9.400  21.103  0.00  0.00    +0.000 N 
ATOM      8  C   UNL     1       1.267   8.880  19.821  0.00  0.00    +0.000 C 
ATOM      9  O   UNL     1       0.817   9.407  18.804  0.00  0.00    +0.000 OA
ATOM     10  H   UNL     1       1.711   8.968  21.841  0.00  0.00    +0.000 HD
BRANCH   7  16
ATOM     11  C   UNL     1      -0.501  10.449  22.568  0.00  0.00    +0.000 A 
ATOM     12  C   UNL     1      -1.200  11.605  22.953  0.00  0.00    +0.000 A 
ATOM     13  C   UNL     1      -1.092  12.800  22.235  0.00  0.00    +0.000 A 
ATOM     14  C   UNL     1      -0.254  12.884  21.123  0.00  0.00    +0.000 A 
ATOM     15  C   UNL     1       0.484  11.744  20.768  0.00  0.00    +0.000 A 
ATOM     16  C   UNL     1       0.403  10.537  21.486  0.00  0.00    +0.000 A 
BRANCH  14  17
ATOM     17  C   UNL     1      -0.113  14.125  20.341  0.00  0.00    +0.000 A 
ATOM     18  C   UNL     1      -1.050  15.123  20.121  0.00  0.00    +0.000 A 
ATOM     19  C   UNL     1      -0.546  16.195  19.329  0.00  0.00    +0.000 A 
ATOM     20  C   UNL     1       0.766  15.992  18.968  0.00  0.00    +0.000 A 
ATOM     21  S   UNL     1       1.380  14.525  19.586  0.00  0.00    +0.000 S 
ENDBRANCH  14  17
BRANCH  11  22
ATOM     22  N   UNL     1      -0.554   9.344  23.440  0.00  0.00    +0.000 N 
ATOM     23  H   UNL     1      -0.769   9.603  24.401  0.00  0.00    +0.000 HD
ATOM     24  H   UNL     1      -1.112   8.563  23.129  0.00  0.00    +0.000 HD
ENDBRANCH  11  22
ENDBRANCH   7  16
ENDBRANCH   1   8
BRANCH   4  25
ATOM     25  C   UNL     1       4.109   3.903  18.782  0.00  0.00    +0.000 C 
BRANCH  25  26
ATOM     26  N   UNL     1       5.097   4.088  17.745  0.00  0.00    +0.000 N 
ATOM     27  C   UNL     1       6.387   4.448  18.074  0.00  0.00    +0.000 C 
ATOM     28  O   UNL     1       6.735   4.700  19.222  0.00  0.00    +0.000 OA
ATOM     29  H   UNL     1       4.879   3.788  16.804  0.00  0.00    +0.000 HD
BRANCH  27  30
ATOM     30  C   UNL     1       7.317   4.558  16.882  0.00  0.00    +0.000 C 
BRANCH  30  31
ATOM     31  C   UNL     1       6.782   5.547  15.847  0.00  0.00    +0.000 C 
BRANCH  31  32
ATOM     32  C   UNL     1       6.698   4.923  14.475  0.00  0.00    +0.000 A 
ATOM     33  C   UNL     1       5.662   4.028  14.173  0.00  0.00    +0.000 A 
ATOM     34  C   UNL     1       5.600   3.410  12.924  0.00  0.00    +0.000 A 
ATOM     35  C   UNL     1       6.572   3.680  11.962  0.00  0.00    +0.000 A 
ATOM     36  C   UNL     1       7.600   4.576  12.247  0.00  0.00    +0.000 A 
ATOM     37  C   UNL     1       7.664   5.196  13.496  0.00  0.00    +0.000 A 
ENDBRANCH  31  32
ENDBRANCH  30  31
ENDBRANCH  27  30
ENDBRANCH  25  26
ENDBRANCH   4  25
TORSDOF 9
ENDMDL
MODEL 3
REMARK VINA RESULT:      -8.3      2.793      3.345
REMARK  Name = 
REMARK  9 active torsions:
REMARK  status: ('A' for Active; 'I' for Inactive)
REMARK    1  A    between atoms: N_1  and  C_2
REMARK    2  A    between atoms: C_5  and  C_6
REMARK    3  A    between atoms: C_12  and  N_13
REMARK    4  A    between atoms: C_14  and  C_16
REMARK    5  A    between atoms: C_19  and  C_20
REMARK    6  A    between atoms: C_20  and  N_21
REMARK    7  A    between atoms: C_22  and  C_24
REMARK    8  A    between atoms: C_24  and  C_25
REMARK    9  A    between atoms: C_25  and  C_26
REMARK                            x       y       z     vdW  Elec       q    Type
REMARK                         _______ _______ _______ _____ _____    ______ ____
ROOT
ATOM      1  C   UNL     1       2.012   8.268  18.902  0.00  0.00    +0.000 A 
ATOM      2  C   UNL     1       1.888   7.397  19.998  0.00  0.00    +0.000 A 
ATOM      3  C   UNL     1       2.576   6.184  20.036  0.00  0.00    +0.000 A 
ATOM      4  C   UNL     1       3.408   5.812  18.975  0.00  0.00    +0.000 A 
ATOM      5  C   UNL     1       3.508   6.664  17.864  0.00  0.00    +0.000 A 
ATOM      6  C   UNL     1       2.817   7.888  17.825  0.00  0.00    +0.000 A 
ENDROOT
BRANCH   1   8
ATOM      7  N   UNL     1       0.046   9.549  19.684  0.00  0.00    +0.000 N 
ATOM      8  C   UNL     1       1.233   9.542  18.967  0.00  0.00    +0.000 C 
ATOM      9  O   UNL     1       1.711  10.506  18.369  0.00  0.00    +0.000 OA
ATOM     10  H   UNL     1      -0.178   8.754  20.261  0.00  0.00    +0.000 HD
BRANCH   7  16
ATOM     11  C   UNL     1      -1.790  10.801  18.624  0.00  0.00    +0.000 A 
ATOM     12  C   UNL     1      -2.750  11.823  18.711  0.00  0.00    +0.000 A 
ATOM     13  C   UNL     1      -2.783  12.708  19.792  0.00  0.00    +0.000 A 
ATOM     14  C   UNL     1      -1.870  12.579  20.840  0.00  0.00    +0.000 A 
ATOM     15  C   UNL     1      -0.943  11.527  20.778  0.00  0.00    +0.000 A 
ATOM     16  C   UNL     1      -0.904  10.615  19.708  0.00  0.00    +0.000 A 
BRANCH  14  17
ATOM     17  C   UNL     1      -1.872  13.492  21.997  0.00  0.00    +0.000 A 
ATOM     18  C   UNL     1      -1.081  13.452  23.134  0.00  0.00    +0.000 A 
ATOM     19  C   UNL     1      -1.348  14.523  24.036  0.00  0.00    +0.000 A 
ATOM     20  C   UNL     1      -2.334  15.356  23.562  0.00  0.00    +0.000 A 
ATOM     21  S   UNL     1      -2.924  14.852  22.043  0.00  0.00    +0.000 S 
ENDBRANCH  14  17
BRANCH  11  22
ATOM     22  N   UNL     1      -1.935   9.868  17.579  0.00  0.00    +0.000 N 
ATOM     23  H   UNL     1      -1.073   9.374  17.361  0.00  0.00    +0.000 HD
ATOM     24  H   UNL     1      -2.718   9.236  17.657  0.00  0.00    +0.000 HD
ENDBRANCH  11  22
ENDBRANCH   7  16
ENDBRANCH   1   8
BRANCH   4  25
ATOM     25  C   UNL     1       4.161   4.508  19.044  0.00  0.00    +0.000 C 
BRANCH  25  26
ATOM     26  N   UNL     1       5.141   4.388  17.989  0.00  0.00    +0.000 N 
ATOM     27  C   UNL     1       6.461   4.697  18.232  0.00  0.00    +0.000 C 
ATOM     28  O   UNL     1       6.852   5.152  19.302  0.00  0.00    +0.000 OA
ATOM     29  H   UNL     1       4.880   3.918  17.132  0.00  0.00    +0.000 HD
BRANCH  27  30
ATOM     30  C   UNL     1       7.374   4.476  17.042  0.00  0.00    +0.000 C 
BRANCH  30  31
ATOM     31  C   UNL     1       7.144   5.533  15.961  0.00  0.00    +0.000 C 
BRANCH  31  32
ATOM     32  C   UNL     1       6.941   4.903  14.604  0.00  0.00    +0.000 A 
ATOM     33  C   UNL     1       7.750   5.285  13.525  0.00  0.00    +0.000 A 
ATOM     34  C   UNL     1       7.542   4.745  12.255  0.00  0.00    +0.000 A 
ATOM     35  C   UNL     1       6.523   3.816  12.051  0.00  0.00    +0.000 A 
ATOM     36  C   UNL     1       5.720   3.420  13.119  0.00  0.00    +0.000 A 
ATOM     37  C   UNL     1       5.927   3.959  14.390  0.00  0.00    +0.000 A 
ENDBRANCH  31  32
ENDBRANCH  30  31
ENDBRANCH  27  30
ENDBRANCH  25  26
ENDBRANCH   4  25
TORSDOF 9
ENDMDL
MODEL 4
REMARK VINA RESULT:      -8.3      5.358      7.656
REMARK  Name = 
REMARK  9 active torsions:
REMARK  status: ('A' for Active; 'I' for Inactive)
REMARK    1  A    between atoms: N_1  and  C_2
REMARK    2  A    between atoms: C_5  and  C_6
REMARK    3  A    between atoms: C_12  and  N_13
REMARK    4  A    between atoms: C_14  and  C_16
REMARK    5  A    between atoms: C_19  and  C_20
REMARK    6  A    between atoms: C_20  and  N_21
REMARK    7  A    between atoms: C_22  and  C_24
REMARK    8  A    between atoms: C_24  and  C_25
REMARK    9  A    between atoms: C_25  and  C_26
REMARK                            x       y       z     vdW  Elec       q    Type
REMARK                         _______ _______ _______ _____ _____    ______ ____
ROOT
ATOM      1  C   UNL     1       8.257   8.254  18.382  0.00  0.00    +0.000 A 
ATOM      2  C   UNL     1       7.656   7.968  17.142  0.00  0.00    +0.000 A 
ATOM      3  C   UNL     1       7.249   6.673  16.821  0.00  0.00    +0.000 A 
ATOM      4  C   UNL     1       7.432   5.629  17.733  0.00  0.00    +0.000 A 
ATOM      5  C   UNL     1       8.062   5.905  18.957  0.00  0.00    +0.000 A 
ATOM      6  C   UNL     1       8.471   7.209  19.284  0.00  0.00    +0.000 A 
ENDROOT
BRANCH   1   8
ATOM      7  N   UNL     1       9.447   9.958  19.721  0.00  0.00    +0.000 N 
ATOM      8  C   UNL     1       8.652   9.675  18.622  0.00  0.00    +0.000 C 
ATOM      9  O   UNL     1       8.233  10.502  17.812  0.00  0.00    +0.000 OA
ATOM     10  H   UNL     1       9.861   9.194  20.231  0.00  0.00    +0.000 HD
BRANCH   7  16
ATOM     11  C   UNL     1      10.904  11.944  19.694  0.00  0.00    +0.000 A 
ATOM     12  C   UNL     1      11.156  13.251  20.143  0.00  0.00    +0.000 A 
ATOM     13  C   UNL     1      10.374  13.848  21.136  0.00  0.00    +0.000 A 
ATOM     14  C   UNL     1       9.292  13.165  21.692  0.00  0.00    +0.000 A 
ATOM     15  C   UNL     1       9.008  11.878  21.208  0.00  0.00    +0.000 A 
ATOM     16  C   UNL     1       9.772  11.265  20.198  0.00  0.00    +0.000 A 
BRANCH  14  17
ATOM     17  C   UNL     1       8.445  13.760  22.740  0.00  0.00    +0.000 A 
ATOM     18  C   UNL     1       7.628  14.878  22.663  0.00  0.00    +0.000 A 
ATOM     19  C   UNL     1       6.933  15.144  23.879  0.00  0.00    +0.000 A 
ATOM     20  C   UNL     1       7.232  14.218  24.852  0.00  0.00    +0.000 A 
ATOM     21  S   UNL     1       8.336  13.041  24.298  0.00  0.00    +0.000 S 
ENDBRANCH  14  17
BRANCH  11  22
ATOM     22  N   UNL     1      11.645  11.489  18.587  0.00  0.00    +0.000 N 
ATOM     23  H   UNL     1      11.967  12.243  17.983  0.00  0.00    +0.000 HD
ATOM     24  H   UNL     1      12.384  10.832  18.790  0.00  0.00    +0.000 HD
ENDBRANCH  11  22
ENDBRANCH   7  16
ENDBRANCH   1   8
BRANCH   4  25
ATOM     25  C   UNL     1       6.964   4.241  17.377  0.00  0.00    +0.000 C 
BRANCH  25  26
ATOM     26  N   UNL     1       5.537   4.088  17.539  0.00  0.00    +0.000 N 
ATOM     27  C   UNL     1       4.712   4.079  16.435  0.00  0.00    +0.000 C 
ATOM     28  O   UNL     1       5.123   4.274  15.296  0.00  0.00    +0.000 OA
ATOM     29  H   UNL     1       5.175   3.820  18.445  0.00  0.00    +0.000 HD
BRANCH  27  30
ATOM     30  C   UNL     1       3.248   3.863  16.763  0.00  0.00    +0.000 C 
BRANCH  30  31
ATOM     31  C   UNL     1       2.760   4.861  17.813  0.00  0.00    +0.000 C 
BRANCH  31  32
ATOM     32  C   UNL     1       2.273   4.162  19.059  0.00  0.00    +0.000 A 
ATOM     33  C   UNL     1       1.353   3.110  18.960  0.00  0.00    +0.000 A 
ATOM     34  C   UNL     1       0.861   2.486  20.107  0.00  0.00    +0.000 A 
ATOM     35  C   UNL     1       1.283   2.908  21.366  0.00  0.00    +0.000 A 
ATOM     36  C   UNL     1       2.206   3.946  21.477  0.00  0.00    +0.000 A 
ATOM     37  C   UNL     1       2.700   4.571  20.331  0.00  0.00    +0.000 A 
ENDBRANCH  31  32
ENDBRANCH  30  31
ENDBRANCH  27  30
ENDBRANCH  25  26
ENDBRANCH   4  25
TORSDOF 9
ENDMDL
MODEL 5
REMARK VINA RESULT:      -8.3      5.042      7.592
REMARK  Name = 
REMARK  9 active torsions:
REMARK  status: ('A' for Active; 'I' for Inactive)
REMARK    1  A    between atoms: N_1  and  C_2
REMARK    2  A    between atoms: C_5  and  C_6
REMARK    3  A    between atoms: C_12  and  N_13
REMARK    4  A    between atoms: C_14  and  C_16
REMARK    5  A    between atoms: C_19  and  C_20
REMARK    6  A    between atoms: C_20  and  N_21
REMARK    7  A    between atoms: C_22  and  C_24
REMARK    8  A    between atoms: C_24  and  C_25
REMARK    9  A    between atoms: C_25  and  C_26
REMARK                            x       y       z     vdW  Elec       q    Type
REMARK                         _______ _______ _______ _____ _____    ______ ____
ROOT
ATOM      1  C   UNL     1       8.182   8.167  18.348  0.00  0.00    +0.000 A 
ATOM      2  C   UNL     1       7.475   7.936  17.155  0.00  0.00    +0.000 A 
ATOM      3  C   UNL     1       7.016   6.661  16.825  0.00  0.00    +0.000 A 
ATOM      4  C   UNL     1       7.251   5.583  17.684  0.00  0.00    +0.000 A 
ATOM      5  C   UNL     1       7.986   5.804  18.860  0.00  0.00    +0.000 A 
ATOM      6  C   UNL     1       8.448   7.088  19.194  0.00  0.00    +0.000 A 
ENDROOT
BRANCH   1   8
ATOM      7  N   UNL     1       9.341   9.835  19.759  0.00  0.00    +0.000 N 
ATOM      8  C   UNL     1       8.625   9.572  18.602  0.00  0.00    +0.000 C 
ATOM      9  O   UNL     1       8.316  10.405  17.749  0.00  0.00    +0.000 OA
ATOM     10  H   UNL     1       9.674   9.061  20.311  0.00  0.00    +0.000 HD
BRANCH   7  16
ATOM     11  C   UNL     1      10.740  11.859  19.638  0.00  0.00    +0.000 A 
ATOM     12  C   UNL     1      11.013  13.156  20.104  0.00  0.00    +0.000 A 
ATOM     13  C   UNL     1      10.339  13.698  21.202  0.00  0.00    +0.000 A 
ATOM     14  C   UNL     1       9.345  12.967  21.853  0.00  0.00    +0.000 A 
ATOM     15  C   UNL     1       9.035  11.691  21.357  0.00  0.00    +0.000 A 
ATOM     16  C   UNL     1       9.690  11.133  20.243  0.00  0.00    +0.000 A 
BRANCH  14  17
ATOM     17  C   UNL     1       8.611  13.503  23.013  0.00  0.00    +0.000 A 
ATOM     18  C   UNL     1       8.052  14.761  23.180  0.00  0.00    +0.000 A 
ATOM     19  C   UNL     1       7.393  14.915  24.434  0.00  0.00    +0.000 A 
ATOM     20  C   UNL     1       7.460  13.769  25.192  0.00  0.00    +0.000 A 
ATOM     21  S   UNL     1       8.307  12.522  24.392  0.00  0.00    +0.000 S 
ENDBRANCH  14  17
BRANCH  11  22
ATOM     22  N   UNL     1      11.358  11.462  18.437  0.00  0.00    +0.000 N 
ATOM     23  H   UNL     1      10.697  11.128  17.738  0.00  0.00    +0.000 HD
ATOM     24  H   UNL     1      12.018  12.116  18.044  0.00  0.00    +0.000 HD
ENDBRANCH  11  22
ENDBRANCH   7  16
ENDBRANCH   1   8
BRANCH   4  25
ATOM     25  C   UNL     1       6.727   4.216  17.322  0.00  0.00    +0.000 C 
BRANCH  25  26
ATOM     26  N   UNL     1       5.294   4.123  17.480  0.00  0.00    +0.000 N 
ATOM     27  C   UNL     1       4.755   3.708  18.679  0.00  0.00    +0.000 C 
ATOM     28  O   UNL     1       5.443   3.330  19.622  0.00  0.00    +0.000 OA
ATOM     29  H   UNL     1       4.697   4.525  16.769  0.00  0.00    +0.000 HD
BRANCH  27  30
ATOM     30  C   UNL     1       3.239   3.708  18.705  0.00  0.00    +0.000 C 
BRANCH  30  31
ATOM     31  C   UNL     1       2.667   4.818  17.823  0.00  0.00    +0.000 C 
BRANCH  31  32
ATOM     32  C   UNL     1       2.363   6.061  18.623  0.00  0.00    +0.000 A 
ATOM     33  C   UNL     1       2.045   5.959  19.984  0.00  0.00    +0.000 A 
ATOM     34  C   UNL     1       1.717   7.096  20.724  0.00  0.00    +0.000 A 
ATOM     35  C   UNL     1       1.704   8.347  20.111  0.00  0.00    +0.000 A 
ATOM     36  C   UNL     1       2.030   8.463  18.761  0.00  0.00    +0.000 A 
ATOM     37  C   UNL     1       2.359   7.326  18.019  0.00  0.00    +0.000 A 
ENDBRANCH  31  32
ENDBRANCH  30  31
ENDBRANCH  27  30
ENDBRANCH  25  26
ENDBRANCH   4  25
TORSDOF 9
ENDMDL
MODEL 6
REMARK VINA RESULT:      -8.3      5.053      7.591
REMARK  Name = 
REMARK  9 active torsions:
REMARK  status: ('A' for Active; 'I' for Inactive)
REMARK    1  A    between atoms: N_1  and  C_2
REMARK    2  A    between atoms: C_5  and  C_6
REMARK    3  A    between atoms: C_12  and  N_13
REMARK    4  A    between atoms: C_14  and  C_16
REMARK    5  A    between atoms: C_19  and  C_20
REMARK    6  A    between atoms: C_20  and  N_21
REMARK    7  A    between atoms: C_22  and  C_24
REMARK    8  A    between atoms: C_24  and  C_25
REMARK    9  A    between atoms: C_25  and  C_26
REMARK                            x       y       z     vdW  Elec       q    Type
REMARK                         _______ _______ _______ _____ _____    ______ ____
ROOT
ATOM      1  C   UNL     1       7.836   7.875  18.004  0.00  0.00    +0.000 A 
ATOM      2  C   UNL     1       6.968   7.682  16.914  0.00  0.00    +0.000 A 
ATOM      3  C   UNL     1       6.471   6.415  16.606  0.00  0.00    +0.000 A 
ATOM      4  C   UNL     1       6.827   5.309  17.383  0.00  0.00    +0.000 A 
ATOM      5  C   UNL     1       7.720   5.493  18.451  0.00  0.00    +0.000 A 
ATOM      6  C   UNL     1       8.221   6.769  18.764  0.00  0.00    +0.000 A 
ENDROOT
BRANCH   1   8
ATOM      7  N   UNL     1       9.178   9.501  19.297  0.00  0.00    +0.000 N 
ATOM      8  C   UNL     1       8.306   9.273  18.244  0.00  0.00    +0.000 C 
ATOM      9  O   UNL     1       7.877  10.134  17.474  0.00  0.00    +0.000 OA
ATOM     10  H   UNL     1       9.587   8.710  19.769  0.00  0.00    +0.000 HD
BRANCH   7  16
ATOM     11  C   UNL     1      10.501  11.560  19.029  0.00  0.00    +0.000 A 
ATOM     12  C   UNL     1      10.833  12.841  19.502  0.00  0.00    +0.000 A 
ATOM     13  C   UNL     1      10.358  13.316  20.727  0.00  0.00    +0.000 A 
ATOM     14  C   UNL     1       9.508  12.533  21.508  0.00  0.00    +0.000 A 
ATOM     15  C   UNL     1       9.134  11.273  21.013  0.00  0.00    +0.000 A 
ATOM     16  C   UNL     1       9.587  10.783  19.775  0.00  0.00    +0.000 A 
BRANCH  14  17
ATOM     17  C   UNL     1       8.986  12.998  22.805  0.00  0.00    +0.000 A 
ATOM     18  C   UNL     1       8.537  12.246  23.880  0.00  0.00    +0.000 A 
ATOM     19  C   UNL     1       8.126  13.045  24.986  0.00  0.00    +0.000 A 
ATOM     20  C   UNL     1       8.276  14.388  24.730  0.00  0.00    +0.000 A 
ATOM     21  S   UNL     1       8.911  14.676  23.173  0.00  0.00    +0.000 S 
ENDBRANCH  14  17
BRANCH  11  22
ATOM     22  N   UNL     1      10.900  11.234  17.719  0.00  0.00    +0.000 N 
ATOM     23  H   UNL     1      11.335  10.316  17.650  0.00  0.00    +0.000 HD
ATOM     24  H   UNL     1      10.207  11.373  16.999  0.00  0.00    +0.000 HD
ENDBRANCH  11  22
ENDBRANCH   7  16
ENDBRANCH   1   8
BRANCH   4  25
ATOM     25  C   UNL     1       6.261   3.952  17.049  0.00  0.00    +0.000 C 
BRANCH  25  26
ATOM     26  N   UNL     1       4.833   3.996  16.834  0.00  0.00    +0.000 N 
ATOM     27  C   UNL     1       3.997   3.192  17.577  0.00  0.00    +0.000 C 
ATOM     28  O   UNL     1       4.411   2.364  18.382  0.00  0.00    +0.000 OA
ATOM     29  H   UNL     1       4.448   4.735  16.261  0.00  0.00    +0.000 HD
BRANCH  27  30
ATOM     30  C   UNL     1       2.525   3.386  17.270  0.00  0.00    +0.000 C 
BRANCH  30  31
ATOM     31  C   UNL     1       1.712   3.595  18.547  0.00  0.00    +0.000 C 
BRANCH  31  32
ATOM     32  C   UNL     1       1.808   5.019  19.039  0.00  0.00    +0.000 A 
ATOM     33  C   UNL     1       2.289   6.024  18.189  0.00  0.00    +0.000 A 
ATOM     34  C   UNL     1       2.426   7.335  18.646  0.00  0.00    +0.000 A 
ATOM     35  C   UNL     1       2.082   7.656  19.958  0.00  0.00    +0.000 A 
ATOM     36  C   UNL     1       1.592   6.667  20.809  0.00  0.00    +0.000 A 
ATOM     37  C   UNL     1       1.454   5.355  20.353  0.00  0.00    +0.000 A 
ENDBRANCH  31  32
ENDBRANCH  30  31
ENDBRANCH  27  30
ENDBRANCH  25  26
ENDBRANCH   4  25
TORSDOF 9
ENDMDL
MODEL 7
REMARK VINA RESULT:      -8.3      4.697     10.493
REMARK  Name = 
REMARK  9 active torsions:
REMARK  status: ('A' for Active; 'I' for Inactive)
REMARK    1  A    between atoms: N_1  and  C_2
REMARK    2  A    between atoms: C_5  and  C_6
REMARK    3  A    between atoms: C_12  and  N_13
REMARK    4  A    between atoms: C_14  and  C_16
REMARK    5  A    between atoms: C_19  and  C_20
REMARK    6  A    between atoms: C_20  and  N_21
REMARK    7  A    between atoms: C_22  and  C_24
REMARK    8  A    between atoms: C_24  and  C_25
REMARK    9  A    between atoms: C_25  and  C_26
REMARK                            x       y       z     vdW  Elec       q    Type
REMARK                         _______ _______ _______ _____ _____    ______ ____
ROOT
ATOM      1  C   UNL     1       8.278   9.241  18.163  0.00  0.00    +0.000 A 
ATOM      2  C   UNL     1       9.224   9.461  19.181  0.00  0.00    +0.000 A 
ATOM      3  C   UNL     1       9.746  10.733  19.415  0.00  0.00    +0.000 A 
ATOM      4  C   UNL     1       9.333  11.820  18.638  0.00  0.00    +0.000 A 
ATOM      5  C   UNL     1       8.414  11.597  17.599  0.00  0.00    +0.000 A 
ATOM      6  C   UNL     1       7.886  10.316  17.362  0.00  0.00    +0.000 A 
ENDROOT
BRANCH   1   8
ATOM      7  N   UNL     1       6.797   7.596  17.059  0.00  0.00    +0.000 N 
ATOM      8  C   UNL     1       7.785   7.839  18.001  0.00  0.00    +0.000 C 
ATOM      9  O   UNL     1       8.301   6.991  18.729  0.00  0.00    +0.000 OA
ATOM     10  H   UNL     1       6.553   8.328  16.411  0.00  0.00    +0.000 HD
BRANCH   7  16
ATOM     11  C   UNL     1       6.461   5.469  15.866  0.00  0.00    +0.000 A 
ATOM     12  C   UNL     1       5.783   4.241  15.772  0.00  0.00    +0.000 A 
ATOM     13  C   UNL     1       4.702   3.936  16.604  0.00  0.00    +0.000 A 
ATOM     14  C   UNL     1       4.283   4.840  17.581  0.00  0.00    +0.000 A 
ATOM     15  C   UNL     1       4.992   6.044  17.709  0.00  0.00    +0.000 A 
ATOM     16  C   UNL     1       6.092   6.365  16.893  0.00  0.00    +0.000 A 
BRANCH  14  17
ATOM     17  C   UNL     1       3.149   4.554  18.477  0.00  0.00    +0.000 A 
ATOM     18  C   UNL     1       2.682   5.298  19.550  0.00  0.00    +0.000 A 
ATOM     19  C   UNL     1       1.539   4.718  20.173  0.00  0.00    +0.000 A 
ATOM     20  C   UNL     1       1.158   3.549  19.558  0.00  0.00    +0.000 A 
ATOM     21  S   UNL     1       2.168   3.161  18.239  0.00  0.00    +0.000 S 
ENDBRANCH  14  17
BRANCH  11  22
ATOM     22  N   UNL     1       7.628   5.620  15.093  0.00  0.00    +0.000 N 
ATOM     23  H   UNL     1       8.285   6.291  15.488  0.00  0.00    +0.000 HD
ATOM     24  H   UNL     1       8.088   4.765  14.817  0.00  0.00    +0.000 HD
ENDBRANCH  11  22
ENDBRANCH   7  16
ENDBRANCH   1   8
BRANCH   4  25
ATOM     25  C   UNL     1       9.890  13.191  18.921  0.00  0.00    +0.000 C 
BRANCH  25  26
ATOM     26  N   UNL     1       8.870  14.214  18.875  0.00  0.00    +0.000 N 
ATOM     27  C   UNL     1       9.071  15.358  18.134  0.00  0.00    +0.000 C 
ATOM     28  O   UNL     1      10.125  15.600  17.555  0.00  0.00    +0.000 OA
ATOM     29  H   UNL     1       7.953  14.006  19.247  0.00  0.00    +0.000 HD
BRANCH  27  30
ATOM     30  C   UNL     1       7.894  16.313  18.146  0.00  0.00    +0.000 C 
BRANCH  30  31
ATOM     31  C   UNL     1       6.992  16.070  19.356  0.00  0.00    +0.000 C 
BRANCH  31  32
ATOM     32  C   UNL     1       5.536  16.011  18.961  0.00  0.00    +0.000 A 
ATOM     33  C   UNL     1       5.108  15.091  17.994  0.00  0.00    +0.000 A 
ATOM     34  C   UNL     1       3.774  15.058  17.587  0.00  0.00    +0.000 A 
ATOM     35  C   UNL     1       2.853  15.944  18.141  0.00  0.00    +0.000 A 
ATOM     36  C   UNL     1       3.265  16.856  19.111  0.00  0.00    +0.000 A 
ATOM     37  C   UNL     1       4.599  16.891  19.521  0.00  0.00    +0.000 A 
ENDBRANCH  31  32
ENDBRANCH  30  31
ENDBRANCH  27  30
ENDBRANCH  25  26
ENDBRANCH   4  25
TORSDOF 9
ENDMDL
MODEL 8
REMARK VINA RESULT:      -8.3      3.549      5.337
REMARK  Name = 
REMARK  9 active torsions:
REMARK  status: ('A' for Active; 'I' for Inactive)
REMARK    1  A    between atoms: N_1  and  C_2
REMARK    2  A    between atoms: C_5  and  C_6
REMARK    3  A    between atoms: C_12  and  N_13
REMARK    4  A    between atoms: C_14  and  C_16
REMARK    5  A    between atoms: C_19  and  C_20
REMARK    6  A    between atoms: C_20  and  N_21
REMARK    7  A    between atoms: C_22  and  C_24
REMARK    8  A    between atoms: C_24  and  C_25
REMARK    9  A    between atoms: C_25  and  C_26
REMARK                            x       y       z     vdW  Elec       q    Type
REMARK                         _______ _______ _______ _____ _____    ______ ____
ROOT
ATOM      1  C   UNL     1       1.179   9.378  19.489  0.00  0.00    +0.000 A 
ATOM      2  C   UNL     1       1.239   8.426  20.522  0.00  0.00    +0.000 A 
ATOM      3  C   UNL     1       1.860   7.192  20.329  0.00  0.00    +0.000 A 
ATOM      4  C   UNL     1       2.441   6.880  19.096  0.00  0.00    +0.000 A 
ATOM      5  C   UNL     1       2.353   7.814  18.052  0.00  0.00    +0.000 A 
ATOM      6  C   UNL     1       1.729   9.059  18.245  0.00  0.00    +0.000 A 
ENDROOT
BRANCH   1   8
ATOM      7  N   UNL     1       0.588  11.163  21.095  0.00  0.00    +0.000 N 
ATOM      8  C   UNL     1       0.491  10.667  19.805  0.00  0.00    +0.000 C 
ATOM      9  O   UNL     1      -0.121  11.200  18.879  0.00  0.00    +0.000 OA
ATOM     10  H   UNL     1       1.238  10.732  21.734  0.00  0.00    +0.000 HD
BRANCH   7  16
ATOM     11  C   UNL     1       0.467  13.549  21.692  0.00  0.00    +0.000 A 
ATOM     12  C   UNL     1      -0.302  14.631  22.152  0.00  0.00    +0.000 A 
ATOM     13  C   UNL     1      -1.607  14.457  22.619  0.00  0.00    +0.000 A 
ATOM     14  C   UNL     1      -2.199  13.193  22.612  0.00  0.00    +0.000 A 
ATOM     15  C   UNL     1      -1.450  12.120  22.105  0.00  0.00    +0.000 A 
ATOM     16  C   UNL     1      -0.140  12.276  21.615  0.00  0.00    +0.000 A 
BRANCH  14  17
ATOM     17  C   UNL     1      -3.573  12.969  23.096  0.00  0.00    +0.000 A 
ATOM     18  C   UNL     1      -3.996  12.601  24.363  0.00  0.00    +0.000 A 
ATOM     19  C   UNL     1      -5.415  12.501  24.469  0.00  0.00    +0.000 A 
ATOM     20  C   UNL     1      -6.038  12.801  23.280  0.00  0.00    +0.000 A 
ATOM     21  S   UNL     1      -4.921  13.203  22.054  0.00  0.00    +0.000 S 
ENDBRANCH  14  17
BRANCH  11  22
ATOM     22  N   UNL     1       1.709  13.847  21.099  0.00  0.00    +0.000 N 
ATOM     23  H   UNL     1       2.384  13.089  21.181  0.00  0.00    +0.000 HD
ATOM     24  H   UNL     1       1.673  14.215  20.161  0.00  0.00    +0.000 HD
ENDBRANCH  11  22
ENDBRANCH   7  16
ENDBRANCH   1   8
BRANCH   4  25
ATOM     25  C   UNL     1       3.129   5.551  18.914  0.00  0.00    +0.000 C 
BRANCH  25  26
ATOM     26  N   UNL     1       3.822   5.464  17.650  0.00  0.00    +0.000 N 
ATOM     27  C   UNL     1       4.311   4.254  17.210  0.00  0.00    +0.000 C 
ATOM     28  O   UNL     1       4.257   3.230  17.883  0.00  0.00    +0.000 OA
ATOM     29  H   UNL     1       3.792   6.257  17.022  0.00  0.00    +0.000 HD
BRANCH  27  30
ATOM     30  C   UNL     1       4.970   4.316  15.846  0.00  0.00    +0.000 C 
BRANCH  30  31
ATOM     31  C   UNL     1       6.492   4.225  15.958  0.00  0.00    +0.000 C 
BRANCH  31  32
ATOM     32  C   UNL     1       7.036   5.229  16.945  0.00  0.00    +0.000 A 
ATOM     33  C   UNL     1       7.071   6.591  16.613  0.00  0.00    +0.000 A 
ATOM     34  C   UNL     1       7.614   7.523  17.498  0.00  0.00    +0.000 A 
ATOM     35  C   UNL     1       8.128   7.105  18.724  0.00  0.00    +0.000 A 
ATOM     36  C   UNL     1       8.088   5.755  19.069  0.00  0.00    +0.000 A 
ATOM     37  C   UNL     1       7.545   4.821  18.186  0.00  0.00    +0.000 A 
ENDBRANCH  31  32
ENDBRANCH  30  31
ENDBRANCH  27  30
ENDBRANCH  25  26
ENDBRANCH   4  25
TORSDOF 9
ENDMDL
MODEL 9
REMARK VINA RESULT:      -8.2      2.569      4.111
REMARK  Name = 
REMARK  9 active torsions:
REMARK  status: ('A' for Active; 'I' for Inactive)
REMARK    1  A    between atoms: N_1  and  C_2
REMARK    2  A    between atoms: C_5  and  C_6
REMARK    3  A    between atoms: C_12  and  N_13
REMARK    4  A    between atoms: C_14  and  C_16
REMARK    5  A    between atoms: C_19  and  C_20
REMARK    6  A    between atoms: C_20  and  N_21
REMARK    7  A    between atoms: C_22  and  C_24
REMARK    8  A    between atoms: C_24  and  C_25
REMARK    9  A    between atoms: C_25  and  C_26
REMARK                            x       y       z     vdW  Elec       q    Type
REMARK                         _______ _______ _______ _____ _____    ______ ____
ROOT
ATOM      1  C   UNL     1       2.000   8.373  19.023  0.00  0.00    +0.000 A 
ATOM      2  C   UNL     1       2.768   8.028  17.896  0.00  0.00    +0.000 A 
ATOM      3  C   UNL     1       3.391   6.783  17.804  0.00  0.00    +0.000 A 
ATOM      4  C   UNL     1       3.259   5.850  18.837  0.00  0.00    +0.000 A 
ATOM      5  C   UNL     1       2.521   6.204  19.978  0.00  0.00    +0.000 A 
ATOM      6  C   UNL     1       1.892   7.458  20.072  0.00  0.00    +0.000 A 
ENDROOT
BRANCH   1   8
ATOM      7  N   UNL     1       0.410  10.015  19.967  0.00  0.00    +0.000 N 
ATOM      8  C   UNL     1       1.377   9.732  19.016  0.00  0.00    +0.000 C 
ATOM      9  O   UNL     1       1.777  10.512  18.150  0.00  0.00    +0.000 OA
ATOM     10  H   UNL     1       0.266   9.364  20.723  0.00  0.00    +0.000 HD
BRANCH   7  16
ATOM     11  C   UNL     1       0.115  12.402  20.495  0.00  0.00    +0.000 A 
ATOM     12  C   UNL     1      -0.700  13.546  20.454  0.00  0.00    +0.000 A 
ATOM     13  C   UNL     1      -2.030  13.484  20.028  0.00  0.00    +0.000 A 
ATOM     14  C   UNL     1      -2.580  12.276  19.599  0.00  0.00    +0.000 A 
ATOM     15  C   UNL     1      -1.753  11.143  19.591  0.00  0.00    +0.000 A 
ATOM     16  C   UNL     1      -0.407  11.186  19.999  0.00  0.00    +0.000 A 
BRANCH  14  17
ATOM     17  C   UNL     1      -3.977  12.171  19.143  0.00  0.00    +0.000 A 
ATOM     18  C   UNL     1      -5.127  12.649  19.752  0.00  0.00    +0.000 A 
ATOM     19  C   UNL     1      -6.308  12.380  19.001  0.00  0.00    +0.000 A 
ATOM     20  C   UNL     1      -6.030  11.708  17.833  0.00  0.00    +0.000 A 
ATOM     21  S   UNL     1      -4.360  11.412  17.647  0.00  0.00    +0.000 S 
ENDBRANCH  14  17
BRANCH  11  22
ATOM     22  N   UNL     1       1.478  12.592  20.789  0.00  0.00    +0.000 N 
ATOM     23  H   UNL     1       1.633  13.158  21.620  0.00  0.00    +0.000 HD
ATOM     24  H   UNL     1       2.049  11.760  20.792  0.00  0.00    +0.000 HD
ENDBRANCH  11  22
ENDBRANCH   7  16
ENDBRANCH   1   8
BRANCH   4  25
ATOM     25  C   UNL     1       3.920   4.501  18.709  0.00  0.00    +0.000 C 
BRANCH  25  26
ATOM     26  N   UNL     1       4.979   4.504  17.726  0.00  0.00    +0.000 N 
ATOM     27  C   UNL     1       6.294   4.589  18.128  0.00  0.00    +0.000 C 
ATOM     28  O   UNL     1       6.624   4.742  19.299  0.00  0.00    +0.000 OA
ATOM     29  H   UNL     1       4.756   4.273  16.767  0.00  0.00    +0.000 HD
BRANCH  27  30
ATOM     30  C   UNL     1       7.290   4.532  16.986  0.00  0.00    +0.000 C 
BRANCH  30  31
ATOM     31  C   UNL     1       6.947   5.549  15.897  0.00  0.00    +0.000 C 
BRANCH  31  32
ATOM     32  C   UNL     1       6.819   4.891  14.544  0.00  0.00    +0.000 A 
ATOM     33  C   UNL     1       7.706   5.229  13.513  0.00  0.00    +0.000 A 
ATOM     34  C   UNL     1       7.570   4.662  12.246  0.00  0.00    +0.000 A 
ATOM     35  C   UNL     1       6.546   3.750  11.995  0.00  0.00    +0.000 A 
ATOM     36  C   UNL     1       5.665   3.398  13.016  0.00  0.00    +0.000 A 
ATOM     37  C   UNL     1       5.800   3.964  14.285  0.00  0.00    +0.000 A 
ENDBRANCH  31  32
ENDBRANCH  30  31
ENDBRANCH  27  30
ENDBRANCH  25  26
ENDBRANCH   4  25
TORSDOF 9
ENDMDL
