MODEL 1
REMARK VINA RESULT:      -8.9      0.000      0.000
REMARK  Name = 
REMARK  10 active torsions:
REMARK  status: ('A' for Active; 'I' for Inactive)
REMARK    1  A    between atoms: C_1  and  C_2
REMARK    2  A    between atoms: N_4  and  C_5
REMARK    3  A    between atoms: C_5  and  C_6
REMARK    4  A    between atoms: C_6  and  C_7
REMARK    5  A    between atoms: C_10  and  O_11
REMARK    6  A    between atoms: O_11  and  C_12
REMARK    7  A    between atoms: C_15  and  O_16
REMARK    8  A    between atoms: O_16  and  C_17
REMARK    9  A    between atoms: C_17  and  C_18
REMARK   10  A    between atoms: C_28  and  C_29
REMARK                            x       y       z     vdW  Elec       q    Type
REMARK                         _______ _______ _______ _____ _____    ______ ____
ROOT
ATOM      1  C   UNL     1       3.192   6.513  17.924  0.00  0.00    +0.000 A 
ATOM      2  C   UNL     1       3.255   7.876  17.547  0.00  0.00    +0.000 A 
ATOM      3  C   UNL     1       2.615   8.891  18.284  0.00  0.00    +0.000 A 
ATOM      4  C   UNL     1       1.833   8.572  19.384  0.00  0.00    +0.000 A 
ATOM      5  C   UNL     1       1.715   7.226  19.711  0.00  0.00    +0.000 A 
ATOM      6  C   UNL     1       2.412   6.175  19.060  0.00  0.00    +0.000 A 
ENDROOT
BRANCH   6   7
ATOM      7  C   UNL     1       2.250   4.829  19.685  0.00  0.00    +0.000 A 
ATOM      8  C   UNL     1       2.371   4.699  21.095  0.00  0.00    +0.000 A 
ATOM      9  C   UNL     1       2.093   3.506  21.767  0.00  0.00    +0.000 A 
ATOM     10  C   UNL     1       1.740   2.383  21.037  0.00  0.00    +0.000 A 
ATOM     11  C   UNL     1       1.656   2.475  19.652  0.00  0.00    +0.000 A 
ATOM     12  F   UNL     1       1.321   1.386  18.948  0.00  0.00    +0.000 F 
ATOM     13  C   UNL     1       1.885   3.677  18.980  0.00  0.00    +0.000 A 
ENDBRANCH   6   7
BRANCH   1  14
ATOM     14  C   UNL     1       3.892   5.455  17.077  0.00  0.00    +0.000 C 
BRANCH  14  15
ATOM     15  C   UNL     1       5.291   5.797  16.534  0.00  0.00    +0.000 C 
BRANCH  15  19
ATOM     16  C   UNL     1       7.920   5.940  19.273  0.00  0.00    +0.000 C 
ATOM     17  C   UNL     1       7.130   5.328  18.145  0.00  0.00    +0.000 C 
ATOM     18  O   UNL     1       7.267   4.159  17.811  0.00  0.00    +0.000 OA
ATOM     19  N   UNL     1       6.254   6.211  17.550  0.00  0.00    +0.000 N 
ATOM     20  H   UNL     1       6.030   7.045  18.079  0.00  0.00    +0.000 HD
ENDBRANCH  15  19
ENDBRANCH  14  15
ENDBRANCH   1  14
BRANCH   4  21
ATOM     21  O   UNL     1       1.234   9.600  20.075  0.00  0.00    +0.000 OA
BRANCH  21  22
ATOM     22  C   UNL     1      -0.195   9.502  20.282  0.00  0.00    +0.000 C 
ATOM     23  C   UNL     1      -0.507   8.808  21.608  0.00  0.00    +0.000 C 
ATOM     24  C   UNL     1      -0.121   9.619  22.840  0.00  0.00    +0.000 C 
ATOM     25  C   UNL     1      -0.589  11.082  22.811  0.00  0.00    +0.000 C 
ATOM     26  C   UNL     1      -0.393  11.752  21.446  0.00  0.00    +0.000 C 
ATOM     27  C   UNL     1      -0.846  10.891  20.269  0.00  0.00    +0.000 C 
BRANCH  25  28
ATOM     28  O   UNL     1      -1.974  11.191  23.167  0.00  0.00    +0.000 OA
BRANCH  28  29
ATOM     29  C   UNL     1      -2.409  12.552  23.249  0.00  0.00    +0.000 C 
BRANCH  29  30
ATOM     30  C   UNL     1      -3.898  12.626  23.100  0.00  0.00    +0.000 A 
ATOM     31  C   UNL     1      -4.490  12.748  21.832  0.00  0.00    +0.000 A 
ATOM     32  C   UNL     1      -5.880  12.832  21.707  0.00  0.00    +0.000 A 
ATOM     33  C   UNL     1      -6.692  12.780  22.840  0.00  0.00    +0.000 A 
ATOM     34  C   UNL     1      -6.116  12.646  24.101  0.00  0.00    +0.000 A 
ATOM     35  C   UNL     1      -4.731  12.562  24.218  0.00  0.00    +0.000 A 
ATOM     36  F   UNL     1      -4.200  12.453  25.446  0.00  0.00    +0.000 F 
ENDBRANCH  29  30
ENDBRANCH  28  29
ENDBRANCH  25  28
ENDBRANCH  21  22
ENDBRANCH   4  21
TORSDOF 9
ENDMDL
MODEL 2
REMARK VINA RESULT:      -8.9      1.083      1.180
REMARK  Name = 
REMARK  10 active torsions:
REMARK  status: ('A' for Active; 'I' for Inactive)
REMARK    1  A    between atoms: C_1  and  C_2
REMARK    2  A    between atoms: N_4  and  C_5
REMARK    3  A    between atoms: C_5  and  C_6
REMARK    4  A    between atoms: C_6  and  C_7
REMARK    5  A    between atoms: C_10  and  O_11
REMARK    6  A    between atoms: O_11  and  C_12
REMARK    7  A    between atoms: C_15  and  O_16
REMARK    8  A    between atoms: O_16  and  C_17
REMARK    9  A    between atoms: C_17  and  C_18
REMARK   10  A    between atoms: C_28  and  C_29
REMARK                            x       y       z     vdW  Elec       q    Type
REMARK                         _______ _______ _______ _____ _____    ______ ____
ROOT
ATOM      1  C   UNL     1       3.199   6.442  18.021  0.00  0.00    +0.000 A 
ATOM      2  C   UNL     1       3.094   7.792  17.609  0.00  0.00    +0.000 A 
ATOM      3  C   UNL     1       2.451   8.770  18.394  0.00  0.00    +0.000 A 
ATOM      4  C   UNL     1       1.833   8.418  19.584  0.00  0.00    +0.000 A 
ATOM      5  C   UNL     1       1.876   7.079  19.952  0.00  0.00    +0.000 A 
ATOM      6  C   UNL     1       2.588   6.073  19.247  0.00  0.00    +0.000 A 
ENDROOT
BRANCH   6   7
ATOM      7  C   UNL     1       2.622   4.738  19.916  0.00  0.00    +0.000 A 
ATOM      8  C   UNL     1       3.767   3.911  19.758  0.00  0.00    +0.000 A 
ATOM      9  C   UNL     1       3.934   2.717  20.462  0.00  0.00    +0.000 A 
ATOM     10  C   UNL     1       2.928   2.281  21.308  0.00  0.00    +0.000 A 
ATOM     11  C   UNL     1       1.779   3.053  21.447  0.00  0.00    +0.000 A 
ATOM     12  F   UNL     1       0.804   2.627  22.260  0.00  0.00    +0.000 F 
ATOM     13  C   UNL     1       1.628   4.272  20.782  0.00  0.00    +0.000 A 
ENDBRANCH   6   7
BRANCH   1  14
ATOM     14  C   UNL     1       3.892   5.423  17.121  0.00  0.00    +0.000 C 
BRANCH  14  15
ATOM     15  C   UNL     1       5.417   5.274  17.268  0.00  0.00    +0.000 C 
BRANCH  15  19
ATOM     16  C   UNL     1       7.811   8.206  17.592  0.00  0.00    +0.000 C 
ATOM     17  C   UNL     1       7.287   6.815  17.837  0.00  0.00    +0.000 C 
ATOM     18  O   UNL     1       7.817   6.048  18.632  0.00  0.00    +0.000 OA
ATOM     19  N   UNL     1       6.170   6.511  17.088  0.00  0.00    +0.000 N 
ATOM     20  H   UNL     1       5.671   7.296  16.689  0.00  0.00    +0.000 HD
ENDBRANCH  15  19
ENDBRANCH  14  15
ENDBRANCH   1  14
BRANCH   4  21
ATOM     21  O   UNL     1       1.224   9.411  20.318  0.00  0.00    +0.000 OA
BRANCH  21  22
ATOM     22  C   UNL     1      -0.202   9.287  20.528  0.00  0.00    +0.000 C 
ATOM     23  C   UNL     1      -0.500   8.713  21.914  0.00  0.00    +0.000 C 
ATOM     24  C   UNL     1      -0.148   9.651  23.064  0.00  0.00    +0.000 C 
ATOM     25  C   UNL     1      -0.663  11.088  22.892  0.00  0.00    +0.000 C 
ATOM     26  C   UNL     1      -0.480  11.630  21.470  0.00  0.00    +0.000 C 
ATOM     27  C   UNL     1      -0.898  10.645  20.380  0.00  0.00    +0.000 C 
BRANCH  25  28
ATOM     28  O   UNL     1      -2.053  11.185  23.232  0.00  0.00    +0.000 OA
BRANCH  28  29
ATOM     29  C   UNL     1      -2.474  12.540  23.424  0.00  0.00    +0.000 C 
BRANCH  29  30
ATOM     30  C   UNL     1      -3.952  12.656  23.211  0.00  0.00    +0.000 A 
ATOM     31  C   UNL     1      -4.483  12.817  21.921  0.00  0.00    +0.000 A 
ATOM     32  C   UNL     1      -5.864  12.940  21.736  0.00  0.00    +0.000 A 
ATOM     33  C   UNL     1      -6.726  12.887  22.832  0.00  0.00    +0.000 A 
ATOM     34  C   UNL     1      -6.210  12.713  24.114  0.00  0.00    +0.000 A 
ATOM     35  C   UNL     1      -4.835  12.591  24.290  0.00  0.00    +0.000 A 
ATOM     36  F   UNL     1      -4.362  12.445  25.538  0.00  0.00    +0.000 F 
ENDBRANCH  29  30
ENDBRANCH  28  29
ENDBRANCH  25  28
ENDBRANCH  21  22
ENDBRANCH   4  21
TORSDOF 9
ENDMDL
MODEL 3
REMARK VINA RESULT:      -8.8      1.954      2.486
REMARK  Name = 
REMARK  10 active torsions:
REMARK  status: ('A' for Active; 'I' for Inactive)
REMARK    1  A    between atoms: C_1  and  C_2
REMARK    2  A    between atoms: N_4  and  C_5
REMARK    3  A    between atoms: C_5  and  C_6
REMARK    4  A    between atoms: C_6  and  C_7
REMARK    5  A    between atoms: C_10  and  O_11
REMARK    6  A    between atoms: O_11  and  C_12
REMARK    7  A    between atoms: C_15  and  O_16
REMARK    8  A    between atoms: O_16  and  C_17
REMARK    9  A    between atoms: C_17  and  C_18
REMARK   10  A    between atoms: C_28  and  C_29
REMARK                            x       y       z     vdW  Elec       q    Type
REMARK                         _______ _______ _______ _____ _____    ______ ____
ROOT
ATOM      1  C   UNL     1       3.415   6.606  17.791  0.00  0.00    +0.000 A 
ATOM      2  C   UNL     1       3.588   7.946  17.367  0.00  0.00    +0.000 A 
ATOM      3  C   UNL     1       2.845   9.010  17.912  0.00  0.00    +0.000 A 
ATOM      4  C   UNL     1       1.855   8.765  18.852  0.00  0.00    +0.000 A 
ATOM      5  C   UNL     1       1.637   7.442  19.216  0.00  0.00    +0.000 A 
ATOM      6  C   UNL     1       2.419   6.344  18.767  0.00  0.00    +0.000 A 
ENDROOT
BRANCH   6   7
ATOM      7  C   UNL     1       2.100   5.037  19.414  0.00  0.00    +0.000 A 
ATOM      8  C   UNL     1       2.429   4.841  20.783  0.00  0.00    +0.000 A 
ATOM      9  C   UNL     1       2.037   3.705  21.495  0.00  0.00    +0.000 A 
ATOM     10  C   UNL     1       1.351   2.696  20.839  0.00  0.00    +0.000 A 
ATOM     11  C   UNL     1       1.054   2.847  19.489  0.00  0.00    +0.000 A 
ATOM     12  F   UNL     1       0.396   1.868  18.855  0.00  0.00    +0.000 F 
ATOM     13  C   UNL     1       1.401   4.002  18.784  0.00  0.00    +0.000 A 
ENDBRANCH   6   7
BRANCH   1  14
ATOM     14  C   UNL     1       4.237   5.492  17.151  0.00  0.00    +0.000 C 
BRANCH  14  15
ATOM     15  C   UNL     1       5.244   5.896  16.059  0.00  0.00    +0.000 C 
BRANCH  15  19
ATOM     16  C   UNL     1       6.433   3.836  13.096  0.00  0.00    +0.000 C 
ATOM     17  C   UNL     1       6.559   4.776  14.267  0.00  0.00    +0.000 C 
ATOM     18  O   UNL     1       7.611   5.341  14.540  0.00  0.00    +0.000 OA
ATOM     19  N   UNL     1       5.386   4.929  14.975  0.00  0.00    +0.000 N 
ATOM     20  H   UNL     1       4.538   4.642  14.503  0.00  0.00    +0.000 HD
ENDBRANCH  15  19
ENDBRANCH  14  15
ENDBRANCH   1  14
BRANCH   4  21
ATOM     21  O   UNL     1       1.161   9.839  19.360  0.00  0.00    +0.000 OA
BRANCH  21  22
ATOM     22  C   UNL     1      -0.154   9.571  19.899  0.00  0.00    +0.000 C 
ATOM     23  C   UNL     1      -0.233   9.979  21.371  0.00  0.00    +0.000 C 
ATOM     24  C   UNL     1      -0.159  11.484  21.604  0.00  0.00    +0.000 C 
ATOM     25  C   UNL     1      -1.090  12.313  20.707  0.00  0.00    +0.000 C 
ATOM     26  C   UNL     1      -1.112  11.833  19.251  0.00  0.00    +0.000 C 
ATOM     27  C   UNL     1      -1.234  10.318  19.106  0.00  0.00    +0.000 C 
BRANCH  25  28
ATOM     28  O   UNL     1      -2.436  12.298  21.202  0.00  0.00    +0.000 OA
BRANCH  28  29
ATOM     29  C   UNL     1      -3.360  12.896  20.287  0.00  0.00    +0.000 C 
BRANCH  29  30
ATOM     30  C   UNL     1      -4.767  12.645  20.738  0.00  0.00    +0.000 A 
ATOM     31  C   UNL     1      -5.181  12.998  22.033  0.00  0.00    +0.000 A 
ATOM     32  C   UNL     1      -6.492  12.745  22.448  0.00  0.00    +0.000 A 
ATOM     33  C   UNL     1      -7.404  12.154  21.572  0.00  0.00    +0.000 A 
ATOM     34  C   UNL     1      -7.007  11.813  20.282  0.00  0.00    +0.000 A 
ATOM     35  C   UNL     1      -5.700  12.069  19.875  0.00  0.00    +0.000 A 
ATOM     36  F   UNL     1      -5.337  11.712  18.633  0.00  0.00    +0.000 F 
ENDBRANCH  29  30
ENDBRANCH  28  29
ENDBRANCH  25  28
ENDBRANCH  21  22
ENDBRANCH   4  21
TORSDOF 9
ENDMDL
MODEL 4
REMARK VINA RESULT:      -8.8      1.999      2.592
REMARK  Name = 
REMARK  10 active torsions:
REMARK  status: ('A' for Active; 'I' for Inactive)
REMARK    1  A    between atoms: C_1  and  C_2
REMARK    2  A    between atoms: N_4  and  C_5
REMARK    3  A    between atoms: C_5  and  C_6
REMARK    4  A    between atoms: C_6  and  C_7
REMARK    5  A    between atoms: C_10  and  O_11
REMARK    6  A    between atoms: O_11  and  C_12
REMARK    7  A    between atoms: C_15  and  O_16
REMARK    8  A    between atoms: O_16  and  C_17
REMARK    9  A    between atoms: C_17  and  C_18
REMARK   10  A    between atoms: C_28  and  C_29
REMARK                            x       y       z     vdW  Elec       q    Type
REMARK                         _______ _______ _______ _____ _____    ______ ____
ROOT
ATOM      1  C   UNL     1       3.843   6.180  17.724  0.00  0.00    +0.000 A 
ATOM      2  C   UNL     1       4.162   7.437  17.155  0.00  0.00    +0.000 A 
ATOM      3  C   UNL     1       3.399   8.593  17.409  0.00  0.00    +0.000 A 
ATOM      4  C   UNL     1       2.252   8.520  18.186  0.00  0.00    +0.000 A 
ATOM      5  C   UNL     1       1.901   7.271  18.685  0.00  0.00    +0.000 A 
ATOM      6  C   UNL     1       2.684   6.096  18.537  0.00  0.00    +0.000 A 
ENDROOT
BRANCH   6   7
ATOM      7  C   UNL     1       2.186   4.907  19.292  0.00  0.00    +0.000 A 
ATOM      8  C   UNL     1       2.460   4.804  20.682  0.00  0.00    +0.000 A 
ATOM      9  C   UNL     1       1.911   3.801  21.484  0.00  0.00    +0.000 A 
ATOM     10  C   UNL     1       1.113   2.829  20.904  0.00  0.00    +0.000 A 
ATOM     11  C   UNL     1       0.864   2.886  19.537  0.00  0.00    +0.000 A 
ATOM     12  F   UNL     1       0.098   1.942  18.976  0.00  0.00    +0.000 F 
ATOM     13  C   UNL     1       1.371   3.914  18.739  0.00  0.00    +0.000 A 
ENDBRANCH   6   7
BRANCH   1  14
ATOM     14  C   UNL     1       4.697   4.959  17.398  0.00  0.00    +0.000 C 
BRANCH  14  15
ATOM     15  C   UNL     1       5.892   5.165  16.450  0.00  0.00    +0.000 C 
BRANCH  15  19
ATOM     16  C   UNL     1       6.391   3.736  12.965  0.00  0.00    +0.000 C 
ATOM     17  C   UNL     1       6.722   4.560  14.182  0.00  0.00    +0.000 C 
ATOM     18  O   UNL     1       7.680   5.322  14.214  0.00  0.00    +0.000 OA
ATOM     19  N   UNL     1       5.844   4.368  15.228  0.00  0.00    +0.000 N 
ATOM     20  H   UNL     1       4.956   3.942  14.995  0.00  0.00    +0.000 HD
ENDBRANCH  15  19
ENDBRANCH  14  15
ENDBRANCH   1  14
BRANCH   4  21
ATOM     21  O   UNL     1       1.545   9.678  18.411  0.00  0.00    +0.000 OA
BRANCH  21  22
ATOM     22  C   UNL     1       0.529   9.634  19.439  0.00  0.00    +0.000 C 
ATOM     23  C   UNL     1       1.008  10.340  20.709  0.00  0.00    +0.000 C 
ATOM     24  C   UNL     1       1.161  11.850  20.559  0.00  0.00    +0.000 C 
ATOM     25  C   UNL     1      -0.042  12.549  19.907  0.00  0.00    +0.000 C 
ATOM     26  C   UNL     1      -0.608  11.784  18.706  0.00  0.00    +0.000 C 
ATOM     27  C   UNL     1      -0.771  10.286  18.954  0.00  0.00    +0.000 C 
BRANCH  25  28
ATOM     28  O   UNL     1      -1.103  12.746  20.852  0.00  0.00    +0.000 OA
BRANCH  28  29
ATOM     29  C   UNL     1      -0.634  13.279  22.095  0.00  0.00    +0.000 C 
BRANCH  29  30
ATOM     30  C   UNL     1      -1.758  13.345  23.083  0.00  0.00    +0.000 A 
ATOM     31  C   UNL     1      -2.728  12.331  23.140  0.00  0.00    +0.000 A 
ATOM     32  C   UNL     1      -3.782  12.412  24.056  0.00  0.00    +0.000 A 
ATOM     33  C   UNL     1      -3.868  13.494  24.933  0.00  0.00    +0.000 A 
ATOM     34  C   UNL     1      -2.904  14.498  24.894  0.00  0.00    +0.000 A 
ATOM     35  C   UNL     1      -1.857  14.410  23.980  0.00  0.00    +0.000 A 
ATOM     36  F   UNL     1      -0.952  15.400  23.950  0.00  0.00    +0.000 F 
ENDBRANCH  29  30
ENDBRANCH  28  29
ENDBRANCH  25  28
ENDBRANCH  21  22
ENDBRANCH   4  21
TORSDOF 9
ENDMDL
MODEL 5
REMARK VINA RESULT:      -8.8      1.515      1.834
REMARK  Name = 
REMARK  10 active torsions:
REMARK  status: ('A' for Active; 'I' for Inactive)
REMARK    1  A    between atoms: C_1  and  C_2
REMARK    2  A    between atoms: N_4  and  C_5
REMARK    3  A    between atoms: C_5  and  C_6
REMARK    4  A    between atoms: C_6  and  C_7
REMARK    5  A    between atoms: C_10  and  O_11
REMARK    6  A    between atoms: O_11  and  C_12
REMARK    7  A    between atoms: C_15  and  O_16
REMARK    8  A    between atoms: O_16  and  C_17
REMARK    9  A    between atoms: C_17  and  C_18
REMARK   10  A    between atoms: C_28  and  C_29
REMARK                            x       y       z     vdW  Elec       q    Type
REMARK                         _______ _______ _______ _____ _____    ______ ____
ROOT
ATOM      1  C   UNL     1       3.593   6.289  17.606  0.00  0.00    +0.000 A 
ATOM      2  C   UNL     1       3.837   7.596  17.119  0.00  0.00    +0.000 A 
ATOM      3  C   UNL     1       3.141   8.721  17.602  0.00  0.00    +0.000 A 
ATOM      4  C   UNL     1       2.130   8.571  18.540  0.00  0.00    +0.000 A 
ATOM      5  C   UNL     1       1.844   7.280  18.965  0.00  0.00    +0.000 A 
ATOM      6  C   UNL     1       2.575   6.125  18.581  0.00  0.00    +0.000 A 
ENDROOT
BRANCH   6   7
ATOM      7  C   UNL     1       2.185   4.868  19.286  0.00  0.00    +0.000 A 
ATOM      8  C   UNL     1       2.461   4.737  20.674  0.00  0.00    +0.000 A 
ATOM      9  C   UNL     1       2.003   3.658  21.433  0.00  0.00    +0.000 A 
ATOM     10  C   UNL     1       1.300   2.639  20.810  0.00  0.00    +0.000 A 
ATOM     11  C   UNL     1       1.054   2.725  19.444  0.00  0.00    +0.000 A 
ATOM     12  F   UNL     1       0.380   1.738  18.841  0.00  0.00    +0.000 F 
ATOM     13  C   UNL     1       1.468   3.826  18.690  0.00  0.00    +0.000 A 
ENDBRANCH   6   7
BRANCH   1  14
ATOM     14  C   UNL     1       4.366   5.106  17.032  0.00  0.00    +0.000 C 
BRANCH  14  15
ATOM     15  C   UNL     1       5.669   4.701  17.745  0.00  0.00    +0.000 C 
BRANCH  15  19
ATOM     16  C   UNL     1       8.135   7.534  18.313  0.00  0.00    +0.000 C 
ATOM     17  C   UNL     1       7.339   6.532  17.518  0.00  0.00    +0.000 C 
ATOM     18  O   UNL     1       7.495   6.383  16.312  0.00  0.00    +0.000 OA
ATOM     19  N   UNL     1       6.441   5.817  18.282  0.00  0.00    +0.000 N 
ATOM     20  H   UNL     1       6.596   5.827  19.282  0.00  0.00    +0.000 HD
ENDBRANCH  15  19
ENDBRANCH  14  15
ENDBRANCH   1  14
BRANCH   4  21
ATOM     21  O   UNL     1       1.485   9.702  18.986  0.00  0.00    +0.000 OA
BRANCH  21  22
ATOM     22  C   UNL     1       0.386   9.506  19.906  0.00  0.00    +0.000 C 
ATOM     23  C   UNL     1       0.603  10.306  21.191  0.00  0.00    +0.000 C 
ATOM     24  C   UNL     1       0.520  11.817  21.004  0.00  0.00    +0.000 C 
ATOM     25  C   UNL     1      -0.704  12.293  20.208  0.00  0.00    +0.000 C 
ATOM     26  C   UNL     1      -1.004  11.422  18.982  0.00  0.00    +0.000 C 
ATOM     27  C   UNL     1      -0.945   9.923  19.266  0.00  0.00    +0.000 C 
BRANCH  25  28
ATOM     28  O   UNL     1      -1.879  12.326  21.031  0.00  0.00    +0.000 OA
BRANCH  28  29
ATOM     29  C   UNL     1      -2.777  13.375  20.656  0.00  0.00    +0.000 C 
BRANCH  29  30
ATOM     30  C   UNL     1      -4.167  12.835  20.510  0.00  0.00    +0.000 A 
ATOM     31  C   UNL     1      -4.599  12.279  19.295  0.00  0.00    +0.000 A 
ATOM     32  C   UNL     1      -5.904  11.792  19.166  0.00  0.00    +0.000 A 
ATOM     33  C   UNL     1      -6.782  11.841  20.249  0.00  0.00    +0.000 A 
ATOM     34  C   UNL     1      -6.359  12.379  21.462  0.00  0.00    +0.000 A 
ATOM     35  C   UNL     1      -5.058  12.861  21.584  0.00  0.00    +0.000 A 
ATOM     36  F   UNL     1      -4.682  13.391  22.758  0.00  0.00    +0.000 F 
ENDBRANCH  29  30
ENDBRANCH  28  29
ENDBRANCH  25  28
ENDBRANCH  21  22
ENDBRANCH   4  21
TORSDOF 9
ENDMDL
MODEL 6
REMARK VINA RESULT:      -8.7      2.005      2.724
REMARK  Name = 
REMARK  10 active torsions:
REMARK  status: ('A' for Active; 'I' for Inactive)
REMARK    1  A    between atoms: C_1  and  C_2
REMARK    2  A    between atoms: N_4  and  C_5
REMARK    3  A    between atoms: C_5  and  C_6
REMARK    4  A    between atoms: C_6  and  C_7
REMARK    5  A    between atoms: C_10  and  O_11
REMARK    6  A    between atoms: O_11  and  C_12
REMARK    7  A    between atoms: C_15  and  O_16
REMARK    8  A    between atoms: O_16  and  C_17
REMARK    9  A    between atoms: C_17  and  C_18
REMARK   10  A    between atoms: C_28  and  C_29
REMARK                            x       y       z     vdW  Elec       q    Type
REMARK                         _______ _______ _______ _____ _____    ______ ____
ROOT
ATOM      1  C   UNL     1       3.929   6.346  17.870  0.00  0.00    +0.000 A 
ATOM      2  C   UNL     1       4.190   7.619  17.308  0.00  0.00    +0.000 A 
ATOM      3  C   UNL     1       3.252   8.670  17.357  0.00  0.00    +0.000 A 
ATOM      4  C   UNL     1       1.997   8.464  17.909  0.00  0.00    +0.000 A 
ATOM      5  C   UNL     1       1.717   7.193  18.397  0.00  0.00    +0.000 A 
ATOM      6  C   UNL     1       2.655   6.129  18.456  0.00  0.00    +0.000 A 
ENDROOT
BRANCH   6   7
ATOM      7  C   UNL     1       2.176   4.905  19.165  0.00  0.00    +0.000 A 
ATOM      8  C   UNL     1       2.384   4.787  20.565  0.00  0.00    +0.000 A 
ATOM      9  C   UNL     1       1.843   3.745  21.321  0.00  0.00    +0.000 A 
ATOM     10  C   UNL     1       1.121   2.749  20.684  0.00  0.00    +0.000 A 
ATOM     11  C   UNL     1       0.939   2.821  19.307  0.00  0.00    +0.000 A 
ATOM     12  F   UNL     1       0.246   1.854  18.692  0.00  0.00    +0.000 F 
ATOM     13  C   UNL     1       1.437   3.886  18.554  0.00  0.00    +0.000 A 
ENDBRANCH   6   7
BRANCH   1  14
ATOM     14  C   UNL     1       4.976   5.241  17.772  0.00  0.00    +0.000 C 
BRANCH  14  15
ATOM     15  C   UNL     1       6.061   5.391  16.689  0.00  0.00    +0.000 C 
BRANCH  15  19
ATOM     16  C   UNL     1       6.158   3.841  13.222  0.00  0.00    +0.000 C 
ATOM     17  C   UNL     1       6.648   4.671  14.380  0.00  0.00    +0.000 C 
ATOM     18  O   UNL     1       7.654   5.365  14.306  0.00  0.00    +0.000 OA
ATOM     19  N   UNL     1       5.853   4.568  15.502  0.00  0.00    +0.000 N 
ATOM     20  H   UNL     1       4.921   4.198  15.358  0.00  0.00    +0.000 HD
ENDBRANCH  15  19
ENDBRANCH  14  15
ENDBRANCH   1  14
BRANCH   4  21
ATOM     21  O   UNL     1       1.119   9.523  17.939  0.00  0.00    +0.000 OA
BRANCH  21  22
ATOM     22  C   UNL     1       0.549   9.862  19.224  0.00  0.00    +0.000 C 
ATOM     23  C   UNL     1       1.189  11.132  19.786  0.00  0.00    +0.000 C 
ATOM     24  C   UNL     1       0.847  12.398  19.008  0.00  0.00    +0.000 C 
ATOM     25  C   UNL     1      -0.649  12.571  18.703  0.00  0.00    +0.000 C 
ATOM     26  C   UNL     1      -1.329  11.273  18.255  0.00  0.00    +0.000 C 
ATOM     27  C   UNL     1      -0.968  10.063  19.115  0.00  0.00    +0.000 C 
BRANCH  25  28
ATOM     28  O   UNL     1      -1.356  13.076  19.844  0.00  0.00    +0.000 OA
BRANCH  28  29
ATOM     29  C   UNL     1      -2.754  12.768  19.799  0.00  0.00    +0.000 C 
BRANCH  29  30
ATOM     30  C   UNL     1      -3.328  12.775  21.182  0.00  0.00    +0.000 A 
ATOM     31  C   UNL     1      -2.494  12.676  22.308  0.00  0.00    +0.000 A 
ATOM     32  C   UNL     1      -3.042  12.668  23.594  0.00  0.00    +0.000 A 
ATOM     33  C   UNL     1      -4.422  12.774  23.770  0.00  0.00    +0.000 A 
ATOM     34  C   UNL     1      -5.257  12.886  22.661  0.00  0.00    +0.000 A 
ATOM     35  C   UNL     1      -4.703  12.895  21.383  0.00  0.00    +0.000 A 
ATOM     36  F   UNL     1      -5.531  12.984  20.330  0.00  0.00    +0.000 F 
ENDBRANCH  29  30
ENDBRANCH  28  29
ENDBRANCH  25  28
ENDBRANCH  21  22
ENDBRANCH   4  21
TORSDOF 9
ENDMDL
MODEL 7
REMARK VINA RESULT:      -8.7      1.403      1.651
REMARK  Name = 
REMARK  10 active torsions:
REMARK  status: ('A' for Active; 'I' for Inactive)
REMARK    1  A    between atoms: C_1  and  C_2
REMARK    2  A    between atoms: N_4  and  C_5
REMARK    3  A    between atoms: C_5  and  C_6
REMARK    4  A    between atoms: C_6  and  C_7
REMARK    5  A    between atoms: C_10  and  O_11
REMARK    6  A    between atoms: O_11  and  C_12
REMARK    7  A    between atoms: C_15  and  O_16
REMARK    8  A    between atoms: O_16  and  C_17
REMARK    9  A    between atoms: C_17  and  C_18
REMARK   10  A    between atoms: C_28  and  C_29
REMARK                            x       y       z     vdW  Elec       q    Type
REMARK                         _______ _______ _______ _____ _____    ______ ____
ROOT
ATOM      1  C   UNL     1       3.210   6.164  18.036  0.00  0.00    +0.000 A 
ATOM      2  C   UNL     1       3.175   7.472  17.496  0.00  0.00    +0.000 A 
ATOM      3  C   UNL     1       2.559   8.547  18.166  0.00  0.00    +0.000 A 
ATOM      4  C   UNL     1       1.898   8.337  19.367  0.00  0.00    +0.000 A 
ATOM      5  C   UNL     1       1.873   7.038  19.861  0.00  0.00    +0.000 A 
ATOM      6  C   UNL     1       2.555   5.940  19.274  0.00  0.00    +0.000 A 
ENDROOT
BRANCH   6   7
ATOM      7  C   UNL     1       2.514   4.675  20.066  0.00  0.00    +0.000 A 
ATOM      8  C   UNL     1       1.271   4.221  20.584  0.00  0.00    +0.000 A 
ATOM      9  C   UNL     1       1.126   2.981  21.211  0.00  0.00    +0.000 A 
ATOM     10  C   UNL     1       2.239   2.178  21.392  0.00  0.00    +0.000 A 
ATOM     11  C   UNL     1       3.474   2.619  20.930  0.00  0.00    +0.000 A 
ATOM     12  F   UNL     1       4.551   1.845  21.112  0.00  0.00    +0.000 F 
ATOM     13  C   UNL     1       3.616   3.836  20.260  0.00  0.00    +0.000 A 
ENDBRANCH   6   7
BRANCH   1  14
ATOM     14  C   UNL     1       3.878   5.036  17.255  0.00  0.00    +0.000 C 
BRANCH  14  15
ATOM     15  C   UNL     1       5.318   4.659  17.650  0.00  0.00    +0.000 C 
BRANCH  15  19
ATOM     16  C   UNL     1       7.784   7.539  17.886  0.00  0.00    +0.000 C 
ATOM     17  C   UNL     1       6.891   6.535  17.204  0.00  0.00    +0.000 C 
ATOM     18  O   UNL     1       6.854   6.416  15.986  0.00  0.00    +0.000 OA
ATOM     19  N   UNL     1       6.143   5.782  18.084  0.00  0.00    +0.000 N 
ATOM     20  H   UNL     1       6.457   5.775  19.046  0.00  0.00    +0.000 HD
ENDBRANCH  15  19
ENDBRANCH  14  15
ENDBRANCH   1  14
BRANCH   4  21
ATOM     21  O   UNL     1       1.317   9.419  19.987  0.00  0.00    +0.000 OA
BRANCH  21  22
ATOM     22  C   UNL     1      -0.104   9.340  20.245  0.00  0.00    +0.000 C 
ATOM     23  C   UNL     1      -0.373   8.776  21.641  0.00  0.00    +0.000 C 
ATOM     24  C   UNL     1       0.046   9.703  22.777  0.00  0.00    +0.000 C 
ATOM     25  C   UNL     1      -0.429  11.155  22.621  0.00  0.00    +0.000 C 
ATOM     26  C   UNL     1      -0.277  11.691  21.193  0.00  0.00    +0.000 C 
ATOM     27  C   UNL     1      -0.762  10.720  20.118  0.00  0.00    +0.000 C 
BRANCH  25  28
ATOM     28  O   UNL     1      -1.804  11.296  23.007  0.00  0.00    +0.000 OA
BRANCH  28  29
ATOM     29  C   UNL     1      -2.342  12.573  22.648  0.00  0.00    +0.000 C 
BRANCH  29  30
ATOM     30  C   UNL     1      -3.786  12.651  23.039  0.00  0.00    +0.000 A 
ATOM     31  C   UNL     1      -4.189  12.398  24.361  0.00  0.00    +0.000 A 
ATOM     32  C   UNL     1      -5.541  12.459  24.711  0.00  0.00    +0.000 A 
ATOM     33  C   UNL     1      -6.500  12.788  23.753  0.00  0.00    +0.000 A 
ATOM     34  C   UNL     1      -6.110  13.054  22.443  0.00  0.00    +0.000 A 
ATOM     35  C   UNL     1      -4.762  12.993  22.102  0.00  0.00    +0.000 A 
ATOM     36  F   UNL     1      -4.414  13.235  20.828  0.00  0.00    +0.000 F 
ENDBRANCH  29  30
ENDBRANCH  28  29
ENDBRANCH  25  28
ENDBRANCH  21  22
ENDBRANCH   4  21
TORSDOF 9
ENDMDL
MODEL 8
REMARK VINA RESULT:      -8.7      1.864      2.773
REMARK  Name = 
REMARK  10 active torsions:
REMARK  status: ('A' for Active; 'I' for Inactive)
REMARK    1  A    between atoms: C_1  and  C_2
REMARK    2  A    between atoms: N_4  and  C_5
REMARK    3  A    between atoms: C_5  and  C_6
REMARK    4  A    between atoms: C_6  and  C_7
REMARK    5  A    between atoms: C_10  and  O_11
REMARK    6  A    between atoms: O_11  and  C_12
REMARK    7  A    between atoms: C_15  and  O_16
REMARK    8  A    between atoms: O_16  and  C_17
REMARK    9  A    between atoms: C_17  and  C_18
REMARK   10  A    between atoms: C_28  and  C_29
REMARK                            x       y       z     vdW  Elec       q    Type
REMARK                         _______ _______ _______ _____ _____    ______ ____
ROOT
ATOM      1  C   UNL     1       3.925   6.253  17.861  0.00  0.00    +0.000 A 
ATOM      2  C   UNL     1       4.186   7.533  17.316  0.00  0.00    +0.000 A 
ATOM      3  C   UNL     1       3.268   8.596  17.419  0.00  0.00    +0.000 A 
ATOM      4  C   UNL     1       2.030   8.398  18.012  0.00  0.00    +0.000 A 
ATOM      5  C   UNL     1       1.748   7.122  18.484  0.00  0.00    +0.000 A 
ATOM      6  C   UNL     1       2.670   6.043  18.488  0.00  0.00    +0.000 A 
ENDROOT
BRANCH   6   7
ATOM      7  C   UNL     1       2.197   4.812  19.188  0.00  0.00    +0.000 A 
ATOM      8  C   UNL     1       2.401   4.688  20.589  0.00  0.00    +0.000 A 
ATOM      9  C   UNL     1       1.865   3.638  21.337  0.00  0.00    +0.000 A 
ATOM     10  C   UNL     1       1.153   2.641  20.693  0.00  0.00    +0.000 A 
ATOM     11  C   UNL     1       0.975   2.718  19.316  0.00  0.00    +0.000 A 
ATOM     12  F   UNL     1       0.292   1.749  18.693  0.00  0.00    +0.000 F 
ATOM     13  C   UNL     1       1.468   3.791  18.570  0.00  0.00    +0.000 A 
ENDBRANCH   6   7
BRANCH   1  14
ATOM     14  C   UNL     1       4.951   5.135  17.702  0.00  0.00    +0.000 C 
BRANCH  14  15
ATOM     15  C   UNL     1       6.041   5.323  16.632  0.00  0.00    +0.000 C 
BRANCH  15  19
ATOM     16  C   UNL     1       6.230   3.774  13.168  0.00  0.00    +0.000 C 
ATOM     17  C   UNL     1       6.674   4.628  14.327  0.00  0.00    +0.000 C 
ATOM     18  O   UNL     1       7.646   5.369  14.257  0.00  0.00    +0.000 OA
ATOM     19  N   UNL     1       5.879   4.489  15.445  0.00  0.00    +0.000 N 
ATOM     20  H   UNL     1       4.967   4.075  15.298  0.00  0.00    +0.000 HD
ENDBRANCH  15  19
ENDBRANCH  14  15
ENDBRANCH   1  14
BRANCH   4  21
ATOM     21  O   UNL     1       1.171   9.470  18.095  0.00  0.00    +0.000 OA
BRANCH  21  22
ATOM     22  C   UNL     1       1.468  10.469  19.098  0.00  0.00    +0.000 C 
ATOM     23  C   UNL     1       0.971  11.847  18.659  0.00  0.00    +0.000 C 
ATOM     24  C   UNL     1      -0.547  11.973  18.607  0.00  0.00    +0.000 C 
ATOM     25  C   UNL     1      -1.271  11.452  19.858  0.00  0.00    +0.000 C 
ATOM     26  C   UNL     1      -0.699  10.129  20.380  0.00  0.00    +0.000 C 
ATOM     27  C   UNL     1       0.826  10.102  20.442  0.00  0.00    +0.000 C 
BRANCH  25  28
ATOM     28  O   UNL     1      -1.223  12.411  20.923  0.00  0.00    +0.000 OA
BRANCH  28  29
ATOM     29  C   UNL     1      -1.775  11.901  22.141  0.00  0.00    +0.000 C 
BRANCH  29  30
ATOM     30  C   UNL     1      -2.007  13.020  23.110  0.00  0.00    +0.000 A 
ATOM     31  C   UNL     1      -1.028  14.004  23.321  0.00  0.00    +0.000 A 
ATOM     32  C   UNL     1      -1.249  15.035  24.239  0.00  0.00    +0.000 A 
ATOM     33  C   UNL     1      -2.453  15.103  24.942  0.00  0.00    +0.000 A 
ATOM     34  C   UNL     1      -3.436  14.139  24.730  0.00  0.00    +0.000 A 
ATOM     35  C   UNL     1      -3.208  13.116  23.814  0.00  0.00    +0.000 A 
ATOM     36  F   UNL     1      -4.164  12.189  23.642  0.00  0.00    +0.000 F 
ENDBRANCH  29  30
ENDBRANCH  28  29
ENDBRANCH  25  28
ENDBRANCH  21  22
ENDBRANCH   4  21
TORSDOF 9
ENDMDL
MODEL 9
REMARK VINA RESULT:      -8.6      3.303      3.979
REMARK  Name = 
REMARK  10 active torsions:
REMARK  status: ('A' for Active; 'I' for Inactive)
REMARK    1  A    between atoms: C_1  and  C_2
REMARK    2  A    between atoms: N_4  and  C_5
REMARK    3  A    between atoms: C_5  and  C_6
REMARK    4  A    between atoms: C_6  and  C_7
REMARK    5  A    between atoms: C_10  and  O_11
REMARK    6  A    between atoms: O_11  and  C_12
REMARK    7  A    between atoms: C_15  and  O_16
REMARK    8  A    between atoms: O_16  and  C_17
REMARK    9  A    between atoms: C_17  and  C_18
REMARK   10  A    between atoms: C_28  and  C_29
REMARK                            x       y       z     vdW  Elec       q    Type
REMARK                         _______ _______ _______ _____ _____    ______ ____
ROOT
ATOM      1  C   UNL     1       3.338   6.487  17.822  0.00  0.00    +0.000 A 
ATOM      2  C   UNL     1       3.490   7.833  17.412  0.00  0.00    +0.000 A 
ATOM      3  C   UNL     1       2.775   8.888  18.012  0.00  0.00    +0.000 A 
ATOM      4  C   UNL     1       1.834   8.627  18.996  0.00  0.00    +0.000 A 
ATOM      5  C   UNL     1       1.634   7.297  19.348  0.00  0.00    +0.000 A 
ATOM      6  C   UNL     1       2.392   6.208  18.842  0.00  0.00    +0.000 A 
ENDROOT
BRANCH   6   7
ATOM      7  C   UNL     1       2.105   4.889  19.482  0.00  0.00    +0.000 A 
ATOM      8  C   UNL     1       2.433   4.696  20.851  0.00  0.00    +0.000 A 
ATOM      9  C   UNL     1       2.069   3.547  21.556  0.00  0.00    +0.000 A 
ATOM     10  C   UNL     1       1.412   2.524  20.894  0.00  0.00    +0.000 A 
ATOM     11  C   UNL     1       1.117   2.672  19.543  0.00  0.00    +0.000 A 
ATOM     12  F   UNL     1       0.489   1.680  18.901  0.00  0.00    +0.000 F 
ATOM     13  C   UNL     1       1.436   3.839  18.844  0.00  0.00    +0.000 A 
ENDBRANCH   6   7
BRANCH   1  14
ATOM     14  C   UNL     1       4.127   5.384  17.123  0.00  0.00    +0.000 C 
BRANCH  14  15
ATOM     15  C   UNL     1       5.447   4.937  17.778  0.00  0.00    +0.000 C 
BRANCH  15  19
ATOM     16  C   UNL     1       8.121   7.603  18.190  0.00  0.00    +0.000 C 
ATOM     17  C   UNL     1       7.265   6.605  17.454  0.00  0.00    +0.000 C 
ATOM     18  O   UNL     1       7.436   6.346  16.270  0.00  0.00    +0.000 OA
ATOM     19  N   UNL     1       6.294   6.029  18.246  0.00  0.00    +0.000 N 
ATOM     20  H   UNL     1       6.426   6.109  19.246  0.00  0.00    +0.000 HD
ENDBRANCH  15  19
ENDBRANCH  14  15
ENDBRANCH   1  14
BRANCH   4  21
ATOM     21  O   UNL     1       1.167   9.692  19.556  0.00  0.00    +0.000 OA
BRANCH  21  22
ATOM     22  C   UNL     1       0.804  10.775  18.669  0.00  0.00    +0.000 C 
ATOM     23  C   UNL     1      -0.715  10.861  18.507  0.00  0.00    +0.000 C 
ATOM     24  C   UNL     1      -1.450  11.301  19.768  0.00  0.00    +0.000 C 
ATOM     25  C   UNL     1      -0.854  12.540  20.452  0.00  0.00    +0.000 C 
ATOM     26  C   UNL     1       0.678  12.522  20.510  0.00  0.00    +0.000 C 
ATOM     27  C   UNL     1       1.336  12.114  19.193  0.00  0.00    +0.000 C 
BRANCH  25  28
ATOM     28  O   UNL     1      -1.261  13.745  19.789  0.00  0.00    +0.000 OA
BRANCH  28  29
ATOM     29  C   UNL     1      -0.864  14.921  20.503  0.00  0.00    +0.000 C 
BRANCH  29  30
ATOM     30  C   UNL     1      -0.969  16.123  19.615  0.00  0.00    +0.000 A 
ATOM     31  C   UNL     1      -2.016  17.046  19.774  0.00  0.00    +0.000 A 
ATOM     32  C   UNL     1      -2.113  18.156  18.929  0.00  0.00    +0.000 A 
ATOM     33  C   UNL     1      -1.160  18.364  17.931  0.00  0.00    +0.000 A 
ATOM     34  C   UNL     1      -0.111  17.462  17.774  0.00  0.00    +0.000 A 
ATOM     35  C   UNL     1      -0.020  16.359  18.620  0.00  0.00    +0.000 A 
ATOM     36  F   UNL     1       0.990  15.495  18.435  0.00  0.00    +0.000 F 
ENDBRANCH  29  30
ENDBRANCH  28  29
ENDBRANCH  25  28
ENDBRANCH  21  22
ENDBRANCH   4  21
TORSDOF 9
ENDMDL
