MODEL 1
REMARK VINA RESULT:      -9.5      0.000      0.000
REMARK  Name = 
REMARK  3 active torsions:
REMARK  status: ('A' for Active; 'I' for Inactive)
REMARK    1  A    between atoms: C_1  and  C_2
REMARK    2  A    between atoms: C_7  and  C_8
REMARK    3  A    between atoms: N_19  and  C_20
REMARK                            x       y       z     vdW  Elec       q    Type
REMARK                         _______ _______ _______ _____ _____    ______ ____
ROOT
ATOM      1  C   UNL     1       3.223   5.814  18.007  0.00  0.00    +0.000 C 
ATOM      2  C   UNL     1       2.803   4.366  18.188  0.00  0.00    +0.000 A 
ATOM      3  C   UNL     1       3.095   3.275  17.302  0.00  0.00    +0.000 A 
ATOM      4  C   UNL     1       2.431   2.117  17.649  0.00  0.00    +0.000 A 
ATOM      5  S   UNL     1       1.500   2.311  19.069  0.00  0.00    +0.000 S 
ATOM      6  C   UNL     1       1.918   3.954  19.173  0.00  0.00    +0.000 A 
ATOM      7  C   UNL     1       1.298   4.861  20.177  0.00  0.00    +0.000 C 
ATOM      8  C   UNL     1       2.120   6.149  20.283  0.00  0.00    +0.000 C 
ATOM      9  N   UNL     1       2.512   6.700  18.967  0.00  0.00    +0.000 N 
ATOM     10  C   UNL     1       2.228   7.964  18.480  0.00  0.00    +0.000 C 
ATOM     11  O   UNL     1       2.562   8.291  17.342  0.00  0.00    +0.000 OA
ATOM     12  N   UNL     1       1.545   8.809  19.324  0.00  0.00    +0.000 N 
ATOM     13  H   UNL     1       1.622   8.623  20.309  0.00  0.00    +0.000 HD
ENDROOT
BRANCH  12  14
ATOM     14  C   UNL     1       1.079  10.098  18.978  0.00  0.00    +0.000 A 
ATOM     15  C   UNL     1       1.924  11.185  18.731  0.00  0.00    +0.000 A 
ATOM     16  C   UNL     1       1.393  12.451  18.495  0.00  0.00    +0.000 A 
ATOM     17 CL   UNL     1       2.452  13.789  18.259  0.00  0.00    +0.000 Cl
ATOM     18  C   UNL     1       0.019  12.648  18.465  0.00  0.00    +0.000 A 
ATOM     19  C   UNL     1      -0.823  11.559  18.654  0.00  0.00    +0.000 A 
ATOM     20 CL   UNL     1      -2.529  11.781  18.609  0.00  0.00    +0.000 Cl
ATOM     21  C   UNL     1      -0.305  10.286  18.902  0.00  0.00    +0.000 A 
ENDBRANCH  12  14
BRANCH   1  28
ATOM     22  C   UNL     1       4.954   6.801  15.650  0.00  0.00    +0.000 C 
ATOM     23  C   UNL     1       5.536   6.327  16.960  0.00  0.00    +0.000 A 
ATOM     24  C   UNL     1       6.944   6.298  17.042  0.00  0.00    +0.000 A 
ATOM     25  C   UNL     1       7.591   5.927  18.214  0.00  0.00    +0.000 A 
ATOM     26  C   UNL     1       6.841   5.591  19.330  0.00  0.00    +0.000 A 
ATOM     27  C   UNL     1       5.444   5.570  19.255  0.00  0.00    +0.000 A 
ATOM     28  C   UNL     1       4.753   5.902  18.070  0.00  0.00    +0.000 A 
ENDBRANCH   1  28
TORSDOF 2
ENDMDL
MODEL 2
REMARK VINA RESULT:      -9.2      0.191      1.740
REMARK  Name = 
REMARK  3 active torsions:
REMARK  status: ('A' for Active; 'I' for Inactive)
REMARK    1  A    between atoms: C_1  and  C_2
REMARK    2  A    between atoms: C_7  and  C_8
REMARK    3  A    between atoms: N_19  and  C_20
REMARK                            x       y       z     vdW  Elec       q    Type
REMARK                         _______ _______ _______ _____ _____    ______ ____
ROOT
ATOM      1  C   UNL     1       3.208   5.762  18.104  0.00  0.00    +0.000 C 
ATOM      2  C   UNL     1       2.826   4.299  18.246  0.00  0.00    +0.000 A 
ATOM      3  C   UNL     1       3.126   3.244  17.319  0.00  0.00    +0.000 A 
ATOM      4  C   UNL     1       2.497   2.060  17.641  0.00  0.00    +0.000 A 
ATOM      5  S   UNL     1       1.590   2.186  19.084  0.00  0.00    +0.000 S 
ATOM      6  C   UNL     1       1.971   3.835  19.234  0.00  0.00    +0.000 A 
ATOM      7  C   UNL     1       1.350   4.694  20.278  0.00  0.00    +0.000 C 
ATOM      8  C   UNL     1       2.143   5.997  20.411  0.00  0.00    +0.000 C 
ATOM      9  N   UNL     1       2.496   6.599  19.106  0.00  0.00    +0.000 N 
ATOM     10  C   UNL     1       2.172   7.871  18.666  0.00  0.00    +0.000 C 
ATOM     11  O   UNL     1       2.476   8.243  17.533  0.00  0.00    +0.000 OA
ATOM     12  N   UNL     1       1.487   8.671  19.550  0.00  0.00    +0.000 N 
ATOM     13  H   UNL     1       1.588   8.456  20.527  0.00  0.00    +0.000 HD
ENDROOT
BRANCH  12  14
ATOM     14  C   UNL     1       0.984   9.960  19.256  0.00  0.00    +0.000 A 
ATOM     15  C   UNL     1      -0.381  10.264  19.209  0.00  0.00    +0.000 A 
ATOM     16  C   UNL     1      -0.807  11.530  18.815  0.00  0.00    +0.000 A 
ATOM     17 CL   UNL     1      -2.493  11.863  18.698  0.00  0.00    +0.000 Cl
ATOM     18  C   UNL     1       0.114  12.520  18.497  0.00  0.00    +0.000 A 
ATOM     19  C   UNL     1       1.470  12.237  18.599  0.00  0.00    +0.000 A 
ATOM     20 CL   UNL     1       2.627  13.455  18.221  0.00  0.00    +0.000 Cl
ATOM     21  C   UNL     1       1.912  10.969  18.983  0.00  0.00    +0.000 A 
ENDBRANCH  12  14
BRANCH   1  28
ATOM     22  C   UNL     1       4.870   6.844  15.739  0.00  0.00    +0.000 C 
ATOM     23  C   UNL     1       5.488   6.354  17.027  0.00  0.00    +0.000 A 
ATOM     24  C   UNL     1       6.898   6.356  17.081  0.00  0.00    +0.000 A 
ATOM     25  C   UNL     1       7.575   5.974  18.232  0.00  0.00    +0.000 A 
ATOM     26  C   UNL     1       6.855   5.594  19.353  0.00  0.00    +0.000 A 
ATOM     27  C   UNL     1       5.458   5.542  19.304  0.00  0.00    +0.000 A 
ATOM     28  C   UNL     1       4.737   5.885  18.141  0.00  0.00    +0.000 A 
ENDBRANCH   1  28
TORSDOF 2
ENDMDL
MODEL 3
REMARK VINA RESULT:      -8.7      1.489      1.527
REMARK  Name = 
REMARK  3 active torsions:
REMARK  status: ('A' for Active; 'I' for Inactive)
REMARK    1  A    between atoms: C_1  and  C_2
REMARK    2  A    between atoms: C_7  and  C_8
REMARK    3  A    between atoms: N_19  and  C_20
REMARK                            x       y       z     vdW  Elec       q    Type
REMARK                         _______ _______ _______ _____ _____    ______ ____
ROOT
ATOM      1  C   UNL     1       3.184   5.653  18.464  0.00  0.00    +0.000 C 
ATOM      2  C   UNL     1       2.870   4.170  18.369  0.00  0.00    +0.000 A 
ATOM      3  C   UNL     1       3.118   3.316  17.242  0.00  0.00    +0.000 A 
ATOM      4  C   UNL     1       2.566   2.062  17.395  0.00  0.00    +0.000 A 
ATOM      5  S   UNL     1       1.797   1.879  18.911  0.00  0.00    +0.000 S 
ATOM      6  C   UNL     1       2.131   3.492  19.326  0.00  0.00    +0.000 A 
ATOM      7  C   UNL     1       1.582   4.115  20.561  0.00  0.00    +0.000 C 
ATOM      8  C   UNL     1       2.336   5.414  20.859  0.00  0.00    +0.000 C 
ATOM      9  N   UNL     1       2.541   6.258  19.662  0.00  0.00    +0.000 N 
ATOM     10  C   UNL     1       2.131   7.569  19.492  0.00  0.00    +0.000 C 
ATOM     11  O   UNL     1       2.311   8.154  18.424  0.00  0.00    +0.000 OA
ATOM     12  N   UNL     1       1.504   8.161  20.564  0.00  0.00    +0.000 N 
ATOM     13  H   UNL     1       1.706   7.780  21.473  0.00  0.00    +0.000 HD
ENDROOT
BRANCH  12  14
ATOM     14  C   UNL     1       0.929   9.453  20.557  0.00  0.00    +0.000 A 
ATOM     15  C   UNL     1       1.177  10.404  19.562  0.00  0.00    +0.000 A 
ATOM     16  C   UNL     1       0.656  11.690  19.671  0.00  0.00    +0.000 A 
ATOM     17 CL   UNL     1       1.030  12.866  18.469  0.00  0.00    +0.000 Cl
ATOM     18  C   UNL     1      -0.148  12.040  20.748  0.00  0.00    +0.000 A 
ATOM     19  C   UNL     1      -0.443  11.080  21.709  0.00  0.00    +0.000 A 
ATOM     20 CL   UNL     1      -1.447  11.490  23.045  0.00  0.00    +0.000 Cl
ATOM     21  C   UNL     1       0.082   9.789  21.617  0.00  0.00    +0.000 A 
ENDBRANCH  12  14
BRANCH   1  28
ATOM     22  C   UNL     1       4.585   7.089  16.120  0.00  0.00    +0.000 C 
ATOM     23  C   UNL     1       5.334   6.482  17.283  0.00  0.00    +0.000 A 
ATOM     24  C   UNL     1       6.742   6.550  17.220  0.00  0.00    +0.000 A 
ATOM     25  C   UNL     1       7.533   6.070  18.256  0.00  0.00    +0.000 A 
ATOM     26  C   UNL     1       6.930   5.525  19.379  0.00  0.00    +0.000 A 
ATOM     27  C   UNL     1       5.538   5.408  19.439  0.00  0.00    +0.000 A 
ATOM     28  C   UNL     1       4.703   5.848  18.390  0.00  0.00    +0.000 A 
ENDBRANCH   1  28
TORSDOF 2
ENDMDL
MODEL 4
REMARK VINA RESULT:      -8.5      1.658      2.161
REMARK  Name = 
REMARK  3 active torsions:
REMARK  status: ('A' for Active; 'I' for Inactive)
REMARK    1  A    between atoms: C_1  and  C_2
REMARK    2  A    between atoms: C_7  and  C_8
REMARK    3  A    between atoms: N_19  and  C_20
REMARK                            x       y       z     vdW  Elec       q    Type
REMARK                         _______ _______ _______ _____ _____    ______ ____
ROOT
ATOM      1  C   UNL     1       3.181   5.606  18.560  0.00  0.00    +0.000 C 
ATOM      2  C   UNL     1       2.887   4.127  18.384  0.00  0.00    +0.000 A 
ATOM      3  C   UNL     1       3.114   3.346  17.201  0.00  0.00    +0.000 A 
ATOM      4  C   UNL     1       2.586   2.076  17.293  0.00  0.00    +0.000 A 
ATOM      5  S   UNL     1       1.868   1.788  18.817  0.00  0.00    +0.000 S 
ATOM      6  C   UNL     1       2.188   3.379  19.320  0.00  0.00    +0.000 A 
ATOM      7  C   UNL     1       1.669   3.917  20.606  0.00  0.00    +0.000 C 
ATOM      8  C   UNL     1       2.411   5.208  20.961  0.00  0.00    +0.000 C 
ATOM      9  N   UNL     1       2.566   6.127  19.811  0.00  0.00    +0.000 N 
ATOM     10  C   UNL     1       2.130   7.438  19.734  0.00  0.00    +0.000 C 
ATOM     11  O   UNL     1       2.268   8.089  18.699  0.00  0.00    +0.000 OA
ATOM     12  N   UNL     1       1.527   7.953  20.858  0.00  0.00    +0.000 N 
ATOM     13  H   UNL     1       1.763   7.521  21.735  0.00  0.00    +0.000 HD
ENDROOT
BRANCH  12  14
ATOM     14  C   UNL     1       0.932   9.232  20.946  0.00  0.00    +0.000 A 
ATOM     15  C   UNL     1       0.095   9.624  21.996  0.00  0.00    +0.000 A 
ATOM     16  C   UNL     1      -0.538  10.865  21.968  0.00  0.00    +0.000 A 
ATOM     17 CL   UNL     1      -1.617  11.300  23.238  0.00  0.00    +0.000 Cl
ATOM     18  C   UNL     1      -0.321  11.746  20.917  0.00  0.00    +0.000 A 
ATOM     19  C   UNL     1       0.555  11.382  19.901  0.00  0.00    +0.000 A 
ATOM     20 CL   UNL     1       0.846  12.466  18.596  0.00  0.00    +0.000 Cl
ATOM     21  C   UNL     1       1.188  10.137  19.912  0.00  0.00    +0.000 A 
ENDBRANCH  12  14
BRANCH   1  28
ATOM     22  C   UNL     1       4.491   7.165  16.242  0.00  0.00    +0.000 C 
ATOM     23  C   UNL     1       5.282   6.524  17.356  0.00  0.00    +0.000 A 
ATOM     24  C   UNL     1       6.686   6.620  17.258  0.00  0.00    +0.000 A 
ATOM     25  C   UNL     1       7.514   6.111  18.251  0.00  0.00    +0.000 A 
ATOM     26  C   UNL     1       6.953   5.508  19.365  0.00  0.00    +0.000 A 
ATOM     27  C   UNL     1       5.565   5.363  19.458  0.00  0.00    +0.000 A 
ATOM     28  C   UNL     1       4.694   5.832  18.452  0.00  0.00    +0.000 A 
ENDBRANCH   1  28
TORSDOF 2
ENDMDL
MODEL 5
REMARK VINA RESULT:      -8.1      0.421      1.332
REMARK  Name = 
REMARK  3 active torsions:
REMARK  status: ('A' for Active; 'I' for Inactive)
REMARK    1  A    between atoms: C_1  and  C_2
REMARK    2  A    between atoms: C_7  and  C_8
REMARK    3  A    between atoms: N_19  and  C_20
REMARK                            x       y       z     vdW  Elec       q    Type
REMARK                         _______ _______ _______ _____ _____    ______ ____
ROOT
ATOM      1  C   UNL     1       3.162   5.970  17.921  0.00  0.00    +0.000 C 
ATOM      2  C   UNL     1       2.787   4.510  18.110  0.00  0.00    +0.000 A 
ATOM      3  C   UNL     1       3.078   3.431  17.210  0.00  0.00    +0.000 A 
ATOM      4  C   UNL     1       2.458   2.254  17.574  0.00  0.00    +0.000 A 
ATOM      5  S   UNL     1       1.571   2.418  19.026  0.00  0.00    +0.000 S 
ATOM      6  C   UNL     1       1.948   4.071  19.123  0.00  0.00    +0.000 A 
ATOM      7  C   UNL     1       1.339   4.957  20.151  0.00  0.00    +0.000 C 
ATOM      8  C   UNL     1       2.129   6.266  20.235  0.00  0.00    +0.000 C 
ATOM      9  N   UNL     1       2.461   6.833  18.909  0.00  0.00    +0.000 N 
ATOM     10  C   UNL     1       2.126   8.090  18.438  0.00  0.00    +0.000 C 
ATOM     11  O   UNL     1       2.412   8.431  17.290  0.00  0.00    +0.000 OA
ATOM     12  N   UNL     1       1.450   8.913  19.308  0.00  0.00    +0.000 N 
ATOM     13  H   UNL     1       1.566   8.726  20.290  0.00  0.00    +0.000 HD
ENDROOT
BRANCH  12  14
ATOM     14  C   UNL     1       0.938  10.191  18.985  0.00  0.00    +0.000 A 
ATOM     15  C   UNL     1       1.735  11.333  18.855  0.00  0.00    +0.000 A 
ATOM     16  C   UNL     1       1.151  12.578  18.634  0.00  0.00    +0.000 A 
ATOM     17 CL   UNL     1       2.146  13.981  18.544  0.00  0.00    +0.000 Cl
ATOM     18  C   UNL     1      -0.226  12.702  18.504  0.00  0.00    +0.000 A 
ATOM     19  C   UNL     1      -1.015  11.560  18.577  0.00  0.00    +0.000 A 
ATOM     20 CL   UNL     1      -2.723  11.691  18.406  0.00  0.00    +0.000 Cl
ATOM     21  C   UNL     1      -0.444  10.307  18.808  0.00  0.00    +0.000 A 
ENDBRANCH  12  14
BRANCH   1  28
ATOM     22  C   UNL     1       4.971   4.414  19.878  0.00  0.00    +0.000 C 
ATOM     23  C   UNL     1       5.505   5.399  18.866  0.00  0.00    +0.000 A 
ATOM     24  C   UNL     1       6.896   5.628  18.895  0.00  0.00    +0.000 A 
ATOM     25  C   UNL     1       7.506   6.476  17.978  0.00  0.00    +0.000 A 
ATOM     26  C   UNL     1       6.737   7.100  17.009  0.00  0.00    +0.000 A 
ATOM     27  C   UNL     1       5.350   6.921  16.994  0.00  0.00    +0.000 A 
ATOM     28  C   UNL     1       4.690   6.099  17.932  0.00  0.00    +0.000 A 
ENDBRANCH   1  28
TORSDOF 2
ENDMDL
MODEL 6
REMARK VINA RESULT:      -8.0      1.916      4.027
REMARK  Name = 
REMARK  3 active torsions:
REMARK  status: ('A' for Active; 'I' for Inactive)
REMARK    1  A    between atoms: C_1  and  C_2
REMARK    2  A    between atoms: C_7  and  C_8
REMARK    3  A    between atoms: N_19  and  C_20
REMARK                            x       y       z     vdW  Elec       q    Type
REMARK                         _______ _______ _______ _____ _____    ______ ____
ROOT
ATOM      1  C   UNL     1       3.678   5.989  18.905  0.00  0.00    +0.000 C 
ATOM      2  C   UNL     1       5.143   5.722  18.609  0.00  0.00    +0.000 A 
ATOM      3  C   UNL     1       6.037   4.913  19.389  0.00  0.00    +0.000 A 
ATOM      4  C   UNL     1       7.345   5.004  18.960  0.00  0.00    +0.000 A 
ATOM      5  S   UNL     1       7.503   6.010  17.588  0.00  0.00    +0.000 S 
ATOM      6  C   UNL     1       5.846   6.386  17.616  0.00  0.00    +0.000 A 
ATOM      7  C   UNL     1       5.257   7.410  16.712  0.00  0.00    +0.000 C 
ATOM      8  C   UNL     1       3.733   7.266  16.696  0.00  0.00    +0.000 C 
ATOM      9  N   UNL     1       3.151   7.083  18.044  0.00  0.00    +0.000 N 
ATOM     10  C   UNL     1       2.190   7.875  18.647  0.00  0.00    +0.000 C 
ATOM     11  O   UNL     1       1.821   7.654  19.800  0.00  0.00    +0.000 OA
ATOM     12  N   UNL     1       1.695   8.918  17.898  0.00  0.00    +0.000 N 
ATOM     13  H   UNL     1       1.760   8.828  16.899  0.00  0.00    +0.000 HD
ENDROOT
BRANCH  12  14
ATOM     14  C   UNL     1       0.784   9.893  18.367  0.00  0.00    +0.000 A 
ATOM     15  C   UNL     1       1.135  10.916  19.254  0.00  0.00    +0.000 A 
ATOM     16  C   UNL     1       0.164  11.781  19.751  0.00  0.00    +0.000 A 
ATOM     17 CL   UNL     1       0.607  12.991  20.895  0.00  0.00    +0.000 Cl
ATOM     18  C   UNL     1      -1.160  11.667  19.349  0.00  0.00    +0.000 A 
ATOM     19  C   UNL     1      -1.501  10.687  18.424  0.00  0.00    +0.000 A 
ATOM     20 CL   UNL     1      -3.135  10.538  17.903  0.00  0.00    +0.000 Cl
ATOM     21  C   UNL     1      -0.539   9.806  17.924  0.00  0.00    +0.000 A 
ENDBRANCH  12  14
BRANCH   1  28
ATOM     22  C   UNL     1       2.130   4.768  21.279  0.00  0.00    +0.000 C 
ATOM     23  C   UNL     1       2.221   4.107  19.925  0.00  0.00    +0.000 A 
ATOM     24  C   UNL     1       1.601   2.845  19.806  0.00  0.00    +0.000 A 
ATOM     25  C   UNL     1       1.578   2.165  18.594  0.00  0.00    +0.000 A 
ATOM     26  C   UNL     1       2.162   2.741  17.478  0.00  0.00    +0.000 A 
ATOM     27  C   UNL     1       2.820   3.970  17.587  0.00  0.00    +0.000 A 
ATOM     28  C   UNL     1       2.899   4.671  18.809  0.00  0.00    +0.000 A 
ENDBRANCH   1  28
TORSDOF 2
ENDMDL
MODEL 7
REMARK VINA RESULT:      -8.0      2.283      4.364
REMARK  Name = 
REMARK  3 active torsions:
REMARK  status: ('A' for Active; 'I' for Inactive)
REMARK    1  A    between atoms: C_1  and  C_2
REMARK    2  A    between atoms: C_7  and  C_8
REMARK    3  A    between atoms: N_19  and  C_20
REMARK                            x       y       z     vdW  Elec       q    Type
REMARK                         _______ _______ _______ _____ _____    ______ ____
ROOT
ATOM      1  C   UNL     1       3.309   5.928  19.223  0.00  0.00    +0.000 C 
ATOM      2  C   UNL     1       4.658   5.595  18.611  0.00  0.00    +0.000 A 
ATOM      3  C   UNL     1       5.597   4.622  19.094  0.00  0.00    +0.000 A 
ATOM      4  C   UNL     1       6.804   4.672  18.428  0.00  0.00    +0.000 A 
ATOM      5  S   UNL     1       6.802   5.843  17.183  0.00  0.00    +0.000 S 
ATOM      6  C   UNL     1       5.226   6.335  17.585  0.00  0.00    +0.000 A 
ATOM      7  C   UNL     1       4.584   7.515  16.946  0.00  0.00    +0.000 C 
ATOM      8  C   UNL     1       3.077   7.489  17.218  0.00  0.00    +0.000 C 
ATOM      9  N   UNL     1       2.743   7.166  18.623  0.00  0.00    +0.000 N 
ATOM     10  C   UNL     1       1.996   7.938  19.495  0.00  0.00    +0.000 C 
ATOM     11  O   UNL     1       1.830   7.588  20.664  0.00  0.00    +0.000 OA
ATOM     12  N   UNL     1       1.477   9.108  18.991  0.00  0.00    +0.000 N 
ATOM     13  H   UNL     1       1.343   9.151  17.996  0.00  0.00    +0.000 HD
ENDROOT
BRANCH  12  14
ATOM     14  C   UNL     1       0.773  10.075  19.746  0.00  0.00    +0.000 A 
ATOM     15  C   UNL     1       0.294   9.847  21.040  0.00  0.00    +0.000 A 
ATOM     16  C   UNL     1      -0.478  10.810  21.685  0.00  0.00    +0.000 A 
ATOM     17 CL   UNL     1      -1.114  10.482  23.252  0.00  0.00    +0.000 Cl
ATOM     18  C   UNL     1      -0.756  12.024  21.070  0.00  0.00    +0.000 A 
ATOM     19  C   UNL     1      -0.234  12.275  19.807  0.00  0.00    +0.000 A 
ATOM     20 CL   UNL     1      -0.556  13.778  19.034  0.00  0.00    +0.000 Cl
ATOM     21  C   UNL     1       0.534  11.314  19.144  0.00  0.00    +0.000 A 
ENDBRANCH  12  14
BRANCH   1  28
ATOM     22  C   UNL     1       2.402   4.304  21.685  0.00  0.00    +0.000 C 
ATOM     23  C   UNL     1       2.019   3.941  20.270  0.00  0.00    +0.000 A 
ATOM     24  C   UNL     1       1.259   2.764  20.113  0.00  0.00    +0.000 A 
ATOM     25  C   UNL     1       0.807   2.359  18.863  0.00  0.00    +0.000 A 
ATOM     26  C   UNL     1       1.098   3.130  17.750  0.00  0.00    +0.000 A 
ATOM     27  C   UNL     1       1.889   4.277  17.879  0.00  0.00    +0.000 A 
ATOM     28  C   UNL     1       2.398   4.698  19.126  0.00  0.00    +0.000 A 
ENDBRANCH   1  28
TORSDOF 2
ENDMDL
MODEL 8
REMARK VINA RESULT:      -7.9      1.781      4.296
REMARK  Name = 
REMARK  3 active torsions:
REMARK  status: ('A' for Active; 'I' for Inactive)
REMARK    1  A    between atoms: C_1  and  C_2
REMARK    2  A    between atoms: C_7  and  C_8
REMARK    3  A    between atoms: N_19  and  C_20
REMARK                            x       y       z     vdW  Elec       q    Type
REMARK                         _______ _______ _______ _____ _____    ______ ____
ROOT
ATOM      1  C   UNL     1       3.664   6.021  18.881  0.00  0.00    +0.000 C 
ATOM      2  C   UNL     1       5.128   5.715  18.615  0.00  0.00    +0.000 A 
ATOM      3  C   UNL     1       5.992   4.908  19.429  0.00  0.00    +0.000 A 
ATOM      4  C   UNL     1       7.308   4.959  19.018  0.00  0.00    +0.000 A 
ATOM      5  S   UNL     1       7.508   5.925  17.622  0.00  0.00    +0.000 S 
ATOM      6  C   UNL     1       5.860   6.337  17.615  0.00  0.00    +0.000 A 
ATOM      7  C   UNL     1       5.307   7.350  16.676  0.00  0.00    +0.000 C 
ATOM      8  C   UNL     1       3.780   7.239  16.641  0.00  0.00    +0.000 C 
ATOM      9  N   UNL     1       3.174   7.103  17.984  0.00  0.00    +0.000 N 
ATOM     10  C   UNL     1       2.222   7.932  18.551  0.00  0.00    +0.000 C 
ATOM     11  O   UNL     1       1.832   7.748  19.704  0.00  0.00    +0.000 OA
ATOM     12  N   UNL     1       1.761   8.964  17.768  0.00  0.00    +0.000 N 
ATOM     13  H   UNL     1       1.839   8.847  16.773  0.00  0.00    +0.000 HD
ENDROOT
BRANCH  12  14
ATOM     14  C   UNL     1       0.865   9.971  18.197  0.00  0.00    +0.000 A 
ATOM     15  C   UNL     1      -0.523   9.886  18.046  0.00  0.00    +0.000 A 
ATOM     16  C   UNL     1      -1.337  10.959  18.400  0.00  0.00    +0.000 A 
ATOM     17 CL   UNL     1      -3.037  10.859  18.143  0.00  0.00    +0.000 Cl
ATOM     18  C   UNL     1      -0.790  12.115  18.942  0.00  0.00    +0.000 A 
ATOM     19  C   UNL     1       0.583  12.179  19.146  0.00  0.00    +0.000 A 
ATOM     20 CL   UNL     1       1.278  13.598  19.828  0.00  0.00    +0.000 Cl
ATOM     21  C   UNL     1       1.413  11.115  18.786  0.00  0.00    +0.000 A 
ENDBRANCH  12  14
BRANCH   1  28
ATOM     22  C   UNL     1       2.068   4.889  21.267  0.00  0.00    +0.000 C 
ATOM     23  C   UNL     1       2.158   4.194  19.929  0.00  0.00    +0.000 A 
ATOM     24  C   UNL     1       1.512   2.943  19.833  0.00  0.00    +0.000 A 
ATOM     25  C   UNL     1       1.486   2.237  18.637  0.00  0.00    +0.000 A 
ATOM     26  C   UNL     1       2.093   2.774  17.513  0.00  0.00    +0.000 A 
ATOM     27  C   UNL     1       2.776   3.991  17.601  0.00  0.00    +0.000 A 
ATOM     28  C   UNL     1       2.859   4.718  18.807  0.00  0.00    +0.000 A 
ENDBRANCH   1  28
TORSDOF 2
ENDMDL
MODEL 9
REMARK VINA RESULT:      -7.8      0.424      2.182
REMARK  Name = 
REMARK  3 active torsions:
REMARK  status: ('A' for Active; 'I' for Inactive)
REMARK    1  A    between atoms: C_1  and  C_2
REMARK    2  A    between atoms: C_7  and  C_8
REMARK    3  A    between atoms: N_19  and  C_20
REMARK                            x       y       z     vdW  Elec       q    Type
REMARK                         _______ _______ _______ _____ _____    ______ ____
ROOT
ATOM      1  C   UNL     1       3.145   5.957  17.950  0.00  0.00    +0.000 C 
ATOM      2  C   UNL     1       2.796   4.487  18.104  0.00  0.00    +0.000 A 
ATOM      3  C   UNL     1       3.083   3.438  17.165  0.00  0.00    +0.000 A 
ATOM      4  C   UNL     1       2.489   2.242  17.508  0.00  0.00    +0.000 A 
ATOM      5  S   UNL     1       1.633   2.349  18.984  0.00  0.00    +0.000 S 
ATOM      6  C   UNL     1       1.987   4.005  19.122  0.00  0.00    +0.000 A 
ATOM      7  C   UNL     1       1.389   4.851  20.189  0.00  0.00    +0.000 C 
ATOM      8  C   UNL     1       2.161   6.169  20.294  0.00  0.00    +0.000 C 
ATOM      9  N   UNL     1       2.455   6.779  18.978  0.00  0.00    +0.000 N 
ATOM     10  C   UNL     1       2.090   8.045  18.553  0.00  0.00    +0.000 C 
ATOM     11  O   UNL     1       2.345   8.423  17.410  0.00  0.00    +0.000 OA
ATOM     12  N   UNL     1       1.423   8.831  19.462  0.00  0.00    +0.000 N 
ATOM     13  H   UNL     1       1.564   8.618  20.434  0.00  0.00    +0.000 HD
ENDROOT
BRANCH  12  14
ATOM     14  C   UNL     1       0.884  10.110  19.189  0.00  0.00    +0.000 A 
ATOM     15  C   UNL     1      -0.488  10.376  19.138  0.00  0.00    +0.000 A 
ATOM     16  C   UNL     1      -0.948  11.636  18.764  0.00  0.00    +0.000 A 
ATOM     17 CL   UNL     1      -2.643  11.923  18.642  0.00  0.00    +0.000 Cl
ATOM     18  C   UNL     1      -0.055  12.658  18.471  0.00  0.00    +0.000 A 
ATOM     19  C   UNL     1       1.309  12.412  18.576  0.00  0.00    +0.000 A 
ATOM     20 CL   UNL     1       2.432  13.670  18.230  0.00  0.00    +0.000 Cl
ATOM     21  C   UNL     1       1.784  11.150  18.940  0.00  0.00    +0.000 A 
ENDBRANCH  12  14
BRANCH   1  28
ATOM     22  C   UNL     1       5.018   4.403  19.848  0.00  0.00    +0.000 C 
ATOM     23  C   UNL     1       5.516   5.410  18.838  0.00  0.00    +0.000 A 
ATOM     24  C   UNL     1       6.904   5.660  18.841  0.00  0.00    +0.000 A 
ATOM     25  C   UNL     1       7.482   6.529  17.923  0.00  0.00    +0.000 A 
ATOM     26  C   UNL     1       6.683   7.153  16.979  0.00  0.00    +0.000 A 
ATOM     27  C   UNL     1       5.298   6.953  16.990  0.00  0.00    +0.000 A 
ATOM     28  C   UNL     1       4.672   6.109  17.931  0.00  0.00    +0.000 A 
ENDBRANCH   1  28
TORSDOF 2
ENDMDL
