MODEL 1
REMARK VINA RESULT:      -8.2      0.000      0.000
REMARK  Name = 
REMARK  5 active torsions:
REMARK  status: ('A' for Active; 'I' for Inactive)
REMARK    1  A    between atoms: C_1  and  C_2
REMARK    2  A    between atoms: C_2  and  C_3
REMARK    3  A    between atoms: C_2  and  O_4
REMARK    4  A    between atoms: O_4  and  C_5
REMARK    5  A    between atoms: C_9  and  C_10
REMARK                            x       y       z     vdW  Elec       q    Type
REMARK                         _______ _______ _______ _____ _____    ______ ____
ROOT
ATOM      1  C   UNL     1       0.632  11.048  19.163  0.00  0.00    +0.000 A 
ATOM      2  N   UNL     1       1.363  10.254  18.355  0.00  0.00    +0.000 NA
ATOM      3  C   UNL     1       1.725   9.052  18.818  0.00  0.00    +0.000 A 
ATOM      4  C   UNL     1       2.482   8.258  17.984  0.00  0.00    +0.000 A 
ATOM      5  C   UNL     1       2.888   6.998  18.388  0.00  0.00    +0.000 A 
ATOM      6  N   UNL     1       2.552   6.550  19.612  0.00  0.00    +0.000 NA
ATOM      7  N   UNL     1       1.803   7.334  20.461  0.00  0.00    +0.000 NA
ATOM      8  C   UNL     1       1.387   8.561  20.087  0.00  0.00    +0.000 A 
ATOM      9  C   UNL     1       0.624   9.404  20.917  0.00  0.00    +0.000 A 
ATOM     10  C   UNL     1       0.238   9.005  22.215  0.00  0.00    +0.000 A 
ATOM     11  C   UNL     1      -0.521   9.836  23.040  0.00  0.00    +0.000 A 
ATOM     12  C   UNL     1      -0.916  11.086  22.583  0.00  0.00    +0.000 A 
ATOM     13  C   UNL     1      -0.545  11.508  21.304  0.00  0.00    +0.000 A 
ATOM     14  C   UNL     1       0.230  10.681  20.456  0.00  0.00    +0.000 A 
ENDROOT
BRANCH   5  15
ATOM     15  C   UNL     1       3.686   6.092  17.541  0.00  0.00    +0.000 A 
ATOM     16  C   UNL     1       3.513   4.699  17.614  0.00  0.00    +0.000 A 
ATOM     17  C   UNL     1       4.268   3.828  16.822  0.00  0.00    +0.000 A 
ATOM     18  C   UNL     1       5.212   4.335  15.934  0.00  0.00    +0.000 A 
ATOM     19  C   UNL     1       5.397   5.710  15.836  0.00  0.00    +0.000 A 
ATOM     20  C   UNL     1       4.645   6.577  16.630  0.00  0.00    +0.000 A 
ENDBRANCH   5  15
BRANCH   1  21
ATOM     21  O   UNL     1       0.336  12.318  18.713  0.00  0.00    +0.000 OA
BRANCH  21  23
ATOM     22  C   UNL     1       2.280  13.480  18.012  0.00  0.00    +0.000 C 
ATOM     23  C   UNL     1       1.254  13.340  19.135  0.00  0.00    +0.000 C 
ATOM     24  C   UNL     1       0.557  14.685  19.343  0.00  0.00    +0.000 C 
ENDBRANCH  21  23
ENDBRANCH   1  21
TORSDOF 3
ENDMDL
MODEL 2
REMARK VINA RESULT:      -8.2      2.588      8.110
REMARK  Name = 
REMARK  5 active torsions:
REMARK  status: ('A' for Active; 'I' for Inactive)
REMARK    1  A    between atoms: C_1  and  C_2
REMARK    2  A    between atoms: C_2  and  C_3
REMARK    3  A    between atoms: C_2  and  O_4
REMARK    4  A    between atoms: O_4  and  C_5
REMARK    5  A    between atoms: C_9  and  C_10
REMARK                            x       y       z     vdW  Elec       q    Type
REMARK                         _______ _______ _______ _____ _____    ______ ____
ROOT
ATOM      1  C   UNL     1       3.212   4.406  19.458  0.00  0.00    +0.000 A 
ATOM      2  N   UNL     1       2.438   5.209  20.216  0.00  0.00    +0.000 NA
ATOM      3  C   UNL     1       2.278   6.477  19.822  0.00  0.00    +0.000 A 
ATOM      4  C   UNL     1       1.493   7.287  20.615  0.00  0.00    +0.000 A 
ATOM      5  C   UNL     1       1.272   8.609  20.271  0.00  0.00    +0.000 A 
ATOM      6  N   UNL     1       1.839   9.112  19.158  0.00  0.00    +0.000 NA
ATOM      7  N   UNL     1       2.633   8.319  18.360  0.00  0.00    +0.000 NA
ATOM      8  C   UNL     1       2.856   7.025  18.669  0.00  0.00    +0.000 A 
ATOM      9  C   UNL     1       3.662   6.173  17.890  0.00  0.00    +0.000 A 
ATOM     10  C   UNL     1       4.293   6.631  16.713  0.00  0.00    +0.000 A 
ATOM     11  C   UNL     1       5.090   5.788  15.937  0.00  0.00    +0.000 A 
ATOM     12  C   UNL     1       5.270   4.465  16.318  0.00  0.00    +0.000 A 
ATOM     13  C   UNL     1       4.658   3.987  17.480  0.00  0.00    +0.000 A 
ATOM     14  C   UNL     1       3.853   4.828  18.283  0.00  0.00    +0.000 A 
ENDROOT
BRANCH   5  15
ATOM     15  C   UNL     1       0.432   9.526  21.065  0.00  0.00    +0.000 A 
ATOM     16  C   UNL     1      -0.033  10.734  20.517  0.00  0.00    +0.000 A 
ATOM     17  C   UNL     1      -0.823  11.616  21.260  0.00  0.00    +0.000 A 
ATOM     18  C   UNL     1      -1.170  11.303  22.571  0.00  0.00    +0.000 A 
ATOM     19  C   UNL     1      -0.731  10.110  23.135  0.00  0.00    +0.000 A 
ATOM     20  C   UNL     1       0.061   9.233  22.392  0.00  0.00    +0.000 A 
ENDBRANCH   5  15
BRANCH   1  21
ATOM     21  O   UNL     1       3.444   3.126  19.915  0.00  0.00    +0.000 OA
BRANCH  21  23
ATOM     22  C   UNL     1       1.611   2.529  21.294  0.00  0.00    +0.000 C 
ATOM     23  C   UNL     1       2.287   2.275  19.948  0.00  0.00    +0.000 C 
ATOM     24  C   UNL     1       1.302   2.604  18.826  0.00  0.00    +0.000 C 
ENDBRANCH  21  23
ENDBRANCH   1  21
TORSDOF 3
ENDMDL
MODEL 3
REMARK VINA RESULT:      -8.2      2.540      7.980
REMARK  Name = 
REMARK  5 active torsions:
REMARK  status: ('A' for Active; 'I' for Inactive)
REMARK    1  A    between atoms: C_1  and  C_2
REMARK    2  A    between atoms: C_2  and  C_3
REMARK    3  A    between atoms: C_2  and  O_4
REMARK    4  A    between atoms: O_4  and  C_5
REMARK    5  A    between atoms: C_9  and  C_10
REMARK                            x       y       z     vdW  Elec       q    Type
REMARK                         _______ _______ _______ _____ _____    ______ ____
ROOT
ATOM      1  C   UNL     1       3.287   5.042  19.250  0.00  0.00    +0.000 A 
ATOM      2  N   UNL     1       2.455   5.997  19.711  0.00  0.00    +0.000 NA
ATOM      3  C   UNL     1       2.392   7.151  19.038  0.00  0.00    +0.000 A 
ATOM      4  C   UNL     1       1.545   8.121  19.529  0.00  0.00    +0.000 A 
ATOM      5  C   UNL     1       1.418   9.339  18.884  0.00  0.00    +0.000 A 
ATOM      6  N   UNL     1       2.138   9.583  17.774  0.00  0.00    +0.000 NA
ATOM      7  N   UNL     1       2.995   8.628  17.274  0.00  0.00    +0.000 NA
ATOM      8  C   UNL     1       3.130   7.431  17.879  0.00  0.00    +0.000 A 
ATOM      9  C   UNL     1       3.995   6.422  17.413  0.00  0.00    +0.000 A 
ATOM     10  C   UNL     1       4.785   6.608  16.258  0.00  0.00    +0.000 A 
ATOM     11  C   UNL     1       5.641   5.609  15.791  0.00  0.00    +0.000 A 
ATOM     12  C   UNL     1       5.723   4.399  16.466  0.00  0.00    +0.000 A 
ATOM     13  C   UNL     1       4.953   4.191  17.613  0.00  0.00    +0.000 A 
ATOM     14  C   UNL     1       4.085   5.193  18.106  0.00  0.00    +0.000 A 
ENDROOT
BRANCH   5  15
ATOM     15  C   UNL     1       0.520  10.414  19.348  0.00  0.00    +0.000 A 
ATOM     16  C   UNL     1       0.799  11.127  20.527  0.00  0.00    +0.000 A 
ATOM     17  C   UNL     1      -0.047  12.143  20.982  0.00  0.00    +0.000 A 
ATOM     18  C   UNL     1      -1.191  12.471  20.261  0.00  0.00    +0.000 A 
ATOM     19  C   UNL     1      -1.486  11.788  19.086  0.00  0.00    +0.000 A 
ATOM     20  C   UNL     1      -0.642  10.771  18.636  0.00  0.00    +0.000 A 
ENDBRANCH   5  15
BRANCH   1  21
ATOM     21  O   UNL     1       3.412   3.889  19.997  0.00  0.00    +0.000 OA
BRANCH  21  23
ATOM     22  C   UNL     1       2.102   2.053  19.271  0.00  0.00    +0.000 C 
ATOM     23  C   UNL     1       2.178   3.206  20.270  0.00  0.00    +0.000 C 
ATOM     24  C   UNL     1       2.138   2.640  21.689  0.00  0.00    +0.000 C 
ENDBRANCH  21  23
ENDBRANCH   1  21
TORSDOF 3
ENDMDL
MODEL 4
REMARK VINA RESULT:      -8.1      2.729      8.347
REMARK  Name = 
REMARK  5 active torsions:
REMARK  status: ('A' for Active; 'I' for Inactive)
REMARK    1  A    between atoms: C_1  and  C_2
REMARK    2  A    between atoms: C_2  and  C_3
REMARK    3  A    between atoms: C_2  and  O_4
REMARK    4  A    between atoms: O_4  and  C_5
REMARK    5  A    between atoms: C_9  and  C_10
REMARK                            x       y       z     vdW  Elec       q    Type
REMARK                         _______ _______ _______ _____ _____    ______ ____
ROOT
ATOM      1  C   UNL     1       4.544   4.471  18.887  0.00  0.00    +0.000 A 
ATOM      2  N   UNL     1       3.711   5.167  19.685  0.00  0.00    +0.000 NA
ATOM      3  C   UNL     1       3.229   6.328  19.226  0.00  0.00    +0.000 A 
ATOM      4  C   UNL     1       2.388   7.033  20.060  0.00  0.00    +0.000 A 
ATOM      5  C   UNL     1       1.841   8.238  19.654  0.00  0.00    +0.000 A 
ATOM      6  N   UNL     1       2.143   8.731  18.439  0.00  0.00    +0.000 NA
ATOM      7  N   UNL     1       2.988   8.043  17.597  0.00  0.00    +0.000 NA
ATOM      8  C   UNL     1       3.527   6.863  17.966  0.00  0.00    +0.000 A 
ATOM      9  C   UNL     1       4.399   6.122  17.146  0.00  0.00    +0.000 A 
ATOM     10  C   UNL     1       4.766   6.579  15.861  0.00  0.00    +0.000 A 
ATOM     11  C   UNL     1       5.628   5.846  15.044  0.00  0.00    +0.000 A 
ATOM     12  C   UNL     1       6.139   4.635  15.492  0.00  0.00    +0.000 A 
ATOM     13  C   UNL     1       5.795   4.162  16.760  0.00  0.00    +0.000 A 
ATOM     14  C   UNL     1       4.928   4.895  17.605  0.00  0.00    +0.000 A 
ENDROOT
BRANCH   5  15
ATOM     15  C   UNL     1       0.924   9.036  20.490  0.00  0.00    +0.000 A 
ATOM     16  C   UNL     1       0.415  10.264  20.030  0.00  0.00    +0.000 A 
ATOM     17  C   UNL     1      -0.449  11.034  20.814  0.00  0.00    +0.000 A 
ATOM     18  C   UNL     1      -0.828  10.587  22.077  0.00  0.00    +0.000 A 
ATOM     19  C   UNL     1      -0.346   9.373  22.552  0.00  0.00    +0.000 A 
ATOM     20  C   UNL     1       0.519   8.607  21.769  0.00  0.00    +0.000 A 
ENDBRANCH   5  15
BRANCH   1  21
ATOM     21  O   UNL     1       5.107   3.320  19.399  0.00  0.00    +0.000 OA
BRANCH  21  23
ATOM     22  C   UNL     1       3.578   1.632  18.741  0.00  0.00    +0.000 C 
ATOM     23  C   UNL     1       4.168   2.375  19.939  0.00  0.00    +0.000 C 
ATOM     24  C   UNL     1       4.842   1.365  20.869  0.00  0.00    +0.000 C 
ENDBRANCH  21  23
ENDBRANCH   1  21
TORSDOF 3
ENDMDL
MODEL 5
REMARK VINA RESULT:      -8.1      2.616      7.179
REMARK  Name = 
REMARK  5 active torsions:
REMARK  status: ('A' for Active; 'I' for Inactive)
REMARK    1  A    between atoms: C_1  and  C_2
REMARK    2  A    between atoms: C_2  and  C_3
REMARK    3  A    between atoms: C_2  and  O_4
REMARK    4  A    between atoms: O_4  and  C_5
REMARK    5  A    between atoms: C_9  and  C_10
REMARK                            x       y       z     vdW  Elec       q    Type
REMARK                         _______ _______ _______ _____ _____    ______ ____
ROOT
ATOM      1  C   UNL     1       3.728   5.195  17.874  0.00  0.00    +0.000 A 
ATOM      2  N   UNL     1       3.392   6.475  17.613  0.00  0.00    +0.000 NA
ATOM      3  C   UNL     1       2.655   7.126  18.520  0.00  0.00    +0.000 A 
ATOM      4  C   UNL     1       2.311   8.429  18.231  0.00  0.00    +0.000 A 
ATOM      5  C   UNL     1       1.557   9.173  19.123  0.00  0.00    +0.000 A 
ATOM      6  N   UNL     1       1.145   8.613  20.276  0.00  0.00    +0.000 NA
ATOM      7  N   UNL     1       1.473   7.310  20.575  0.00  0.00    +0.000 NA
ATOM      8  C   UNL     1       2.214   6.568  19.727  0.00  0.00    +0.000 A 
ATOM      9  C   UNL     1       2.574   5.231  19.983  0.00  0.00    +0.000 A 
ATOM     10  C   UNL     1       2.174   4.576  21.168  0.00  0.00    +0.000 A 
ATOM     11  C   UNL     1       2.531   3.251  21.426  0.00  0.00    +0.000 A 
ATOM     12  C   UNL     1       3.301   2.552  20.506  0.00  0.00    +0.000 A 
ATOM     13  C   UNL     1       3.707   3.176  19.324  0.00  0.00    +0.000 A 
ATOM     14  C   UNL     1       3.349   4.515  19.042  0.00  0.00    +0.000 A 
ENDROOT
BRANCH   5  15
ATOM     15  C   UNL     1       1.166  10.575  18.884  0.00  0.00    +0.000 A 
ATOM     16  C   UNL     1      -0.172  10.984  19.027  0.00  0.00    +0.000 A 
ATOM     17  C   UNL     1      -0.557  12.308  18.797  0.00  0.00    +0.000 A 
ATOM     18  C   UNL     1       0.391  13.254  18.422  0.00  0.00    +0.000 A 
ATOM     19  C   UNL     1       1.723  12.879  18.282  0.00  0.00    +0.000 A 
ATOM     20  C   UNL     1       2.105  11.555  18.509  0.00  0.00    +0.000 A 
ENDBRANCH   5  15
BRANCH   1  21
ATOM     21  O   UNL     1       4.413   4.503  16.897  0.00  0.00    +0.000 OA
BRANCH  21  23
ATOM     22  C   UNL     1       6.772   4.666  17.067  0.00  0.00    +0.000 C 
ATOM     23  C   UNL     1       5.539   5.199  16.338  0.00  0.00    +0.000 C 
ATOM     24  C   UNL     1       5.691   4.931  14.840  0.00  0.00    +0.000 C 
ENDBRANCH  21  23
ENDBRANCH   1  21
TORSDOF 3
ENDMDL
MODEL 6
REMARK VINA RESULT:      -8.1      2.747      8.198
REMARK  Name = 
REMARK  5 active torsions:
REMARK  status: ('A' for Active; 'I' for Inactive)
REMARK    1  A    between atoms: C_1  and  C_2
REMARK    2  A    between atoms: C_2  and  C_3
REMARK    3  A    between atoms: C_2  and  O_4
REMARK    4  A    between atoms: O_4  and  C_5
REMARK    5  A    between atoms: C_9  and  C_10
REMARK                            x       y       z     vdW  Elec       q    Type
REMARK                         _______ _______ _______ _____ _____    ______ ____
ROOT
ATOM      1  C   UNL     1       4.369   4.390  19.000  0.00  0.00    +0.000 A 
ATOM      2  N   UNL     1       3.549   5.115  19.787  0.00  0.00    +0.000 NA
ATOM      3  C   UNL     1       3.120   6.295  19.326  0.00  0.00    +0.000 A 
ATOM      4  C   UNL     1       2.293   7.029  20.149  0.00  0.00    +0.000 A 
ATOM      5  C   UNL     1       1.800   8.256  19.740  0.00  0.00    +0.000 A 
ATOM      6  N   UNL     1       2.144   8.743  18.534  0.00  0.00    +0.000 NA
ATOM      7  N   UNL     1       2.977   8.027  17.703  0.00  0.00    +0.000 NA
ATOM      8  C   UNL     1       3.462   6.825  18.075  0.00  0.00    +0.000 A 
ATOM      9  C   UNL     1       4.320   6.055  17.267  0.00  0.00    +0.000 A 
ATOM     10  C   UNL     1       4.728   6.503  15.991  0.00  0.00    +0.000 A 
ATOM     11  C   UNL     1       5.575   5.741  15.186  0.00  0.00    +0.000 A 
ATOM     12  C   UNL     1       6.031   4.510  15.635  0.00  0.00    +0.000 A 
ATOM     13  C   UNL     1       5.645   4.044  16.895  0.00  0.00    +0.000 A 
ATOM     14  C   UNL     1       4.792   4.805  17.728  0.00  0.00    +0.000 A 
ENDROOT
BRANCH   5  15
ATOM     15  C   UNL     1       0.900   9.085  20.564  0.00  0.00    +0.000 A 
ATOM     16  C   UNL     1       0.758   8.844  21.942  0.00  0.00    +0.000 A 
ATOM     17  C   UNL     1      -0.097   9.617  22.733  0.00  0.00    +0.000 A 
ATOM     18  C   UNL     1      -0.828  10.654  22.160  0.00  0.00    +0.000 A 
ATOM     19  C   UNL     1      -0.701  10.919  20.801  0.00  0.00    +0.000 A 
ATOM     20  C   UNL     1       0.151  10.143  20.012  0.00  0.00    +0.000 A 
ENDBRANCH   5  15
BRANCH   1  21
ATOM     21  O   UNL     1       4.876   3.216  19.516  0.00  0.00    +0.000 OA
BRANCH  21  23
ATOM     22  C   UNL     1       3.027   2.529  20.830  0.00  0.00    +0.000 C 
ATOM     23  C   UNL     1       3.922   2.150  19.651  0.00  0.00    +0.000 C 
ATOM     24  C   UNL     1       3.057   1.994  18.400  0.00  0.00    +0.000 C 
ENDBRANCH  21  23
ENDBRANCH   1  21
TORSDOF 3
ENDMDL
MODEL 7
REMARK VINA RESULT:      -8.0      2.496      8.055
REMARK  Name = 
REMARK  5 active torsions:
REMARK  status: ('A' for Active; 'I' for Inactive)
REMARK    1  A    between atoms: C_1  and  C_2
REMARK    2  A    between atoms: C_2  and  C_3
REMARK    3  A    between atoms: C_2  and  O_4
REMARK    4  A    between atoms: O_4  and  C_5
REMARK    5  A    between atoms: C_9  and  C_10
REMARK                            x       y       z     vdW  Elec       q    Type
REMARK                         _______ _______ _______ _____ _____    ______ ____
ROOT
ATOM      1  C   UNL     1       3.666   5.063  19.112  0.00  0.00    +0.000 A 
ATOM      2  N   UNL     1       2.810   5.959  19.643  0.00  0.00    +0.000 NA
ATOM      3  C   UNL     1       2.611   7.104  18.979  0.00  0.00    +0.000 A 
ATOM      4  C   UNL     1       1.742   8.014  19.541  0.00  0.00    +0.000 A 
ATOM      5  C   UNL     1       1.477   9.217  18.911  0.00  0.00    +0.000 A 
ATOM      6  N   UNL     1       2.083   9.506  17.745  0.00  0.00    +0.000 NA
ATOM      7  N   UNL     1       2.961   8.612  17.174  0.00  0.00    +0.000 NA
ATOM      8  C   UNL     1       3.229   7.429  17.764  0.00  0.00    +0.000 A 
ATOM      9  C   UNL     1       4.120   6.482  17.225  0.00  0.00    +0.000 A 
ATOM     10  C   UNL     1       4.797   6.717  16.009  0.00  0.00    +0.000 A 
ATOM     11  C   UNL     1       5.679   5.779  15.470  0.00  0.00    +0.000 A 
ATOM     12  C   UNL     1       5.901   4.580  16.134  0.00  0.00    +0.000 A 
ATOM     13  C   UNL     1       5.246   4.323  17.341  0.00  0.00    +0.000 A 
ATOM     14  C   UNL     1       4.354   5.265  17.906  0.00  0.00    +0.000 A 
ENDROOT
BRANCH   5  15
ATOM     15  C   UNL     1       0.548  10.228  19.449  0.00  0.00    +0.000 A 
ATOM     16  C   UNL     1      -0.386  10.867  18.613  0.00  0.00    +0.000 A 
ATOM     17  C   UNL     1      -1.267  11.832  19.108  0.00  0.00    +0.000 A 
ATOM     18  C   UNL     1      -1.237  12.177  20.456  0.00  0.00    +0.000 A 
ATOM     19  C   UNL     1      -0.330  11.555  21.307  0.00  0.00    +0.000 A 
ATOM     20  C   UNL     1       0.552  10.593  20.810  0.00  0.00    +0.000 A 
ENDBRANCH   5  15
BRANCH   1  21
ATOM     21  O   UNL     1       3.933   3.925  19.844  0.00  0.00    +0.000 OA
BRANCH  21  23
ATOM     22  C   UNL     1       3.216   1.769  19.167  0.00  0.00    +0.000 C 
ATOM     23  C   UNL     1       2.831   3.011  19.969  0.00  0.00    +0.000 C 
ATOM     24  C   UNL     1       2.583   2.608  21.423  0.00  0.00    +0.000 C 
ENDBRANCH  21  23
ENDBRANCH   1  21
TORSDOF 3
ENDMDL
MODEL 8
REMARK VINA RESULT:      -8.0      3.083      5.577
REMARK  Name = 
REMARK  5 active torsions:
REMARK  status: ('A' for Active; 'I' for Inactive)
REMARK    1  A    between atoms: C_1  and  C_2
REMARK    2  A    between atoms: C_2  and  C_3
REMARK    3  A    between atoms: C_2  and  O_4
REMARK    4  A    between atoms: O_4  and  C_5
REMARK    5  A    between atoms: C_9  and  C_10
REMARK                            x       y       z     vdW  Elec       q    Type
REMARK                         _______ _______ _______ _____ _____    ______ ____
ROOT
ATOM      1  C   UNL     1       3.007   6.361  19.128  0.00  0.00    +0.000 A 
ATOM      2  N   UNL     1       3.682   6.455  17.966  0.00  0.00    +0.000 NA
ATOM      3  C   UNL     1       4.138   5.325  17.413  0.00  0.00    +0.000 A 
ATOM      4  C   UNL     1       4.837   5.440  16.231  0.00  0.00    +0.000 A 
ATOM      5  C   UNL     1       5.332   4.316  15.593  0.00  0.00    +0.000 A 
ATOM      6  N   UNL     1       5.141   3.101  16.139  0.00  0.00    +0.000 NA
ATOM      7  N   UNL     1       4.451   2.969  17.324  0.00  0.00    +0.000 NA
ATOM      8  C   UNL     1       3.951   4.048  17.960  0.00  0.00    +0.000 A 
ATOM      9  C   UNL     1       3.244   3.969  19.175  0.00  0.00    +0.000 A 
ATOM     10  C   UNL     1       3.008   2.730  19.810  0.00  0.00    +0.000 A 
ATOM     11  C   UNL     1       2.304   2.648  21.012  0.00  0.00    +0.000 A 
ATOM     12  C   UNL     1       1.815   3.804  21.606  0.00  0.00    +0.000 A 
ATOM     13  C   UNL     1       2.037   5.043  21.000  0.00  0.00    +0.000 A 
ATOM     14  C   UNL     1       2.754   5.147  19.784  0.00  0.00    +0.000 A 
ENDROOT
BRANCH   5  15
ATOM     15  C   UNL     1       6.076   4.366  14.320  0.00  0.00    +0.000 A 
ATOM     16  C   UNL     1       5.682   3.578  13.224  0.00  0.00    +0.000 A 
ATOM     17  C   UNL     1       6.382   3.610  12.014  0.00  0.00    +0.000 A 
ATOM     18  C   UNL     1       7.491   4.439  11.873  0.00  0.00    +0.000 A 
ATOM     19  C   UNL     1       7.897   5.235  12.938  0.00  0.00    +0.000 A 
ATOM     20  C   UNL     1       7.198   5.199  14.146  0.00  0.00    +0.000 A 
ENDBRANCH   5  15
BRANCH   1  21
ATOM     21  O   UNL     1       2.616   7.536  19.736  0.00  0.00    +0.000 OA
BRANCH  21  23
ATOM     22  C   UNL     1       0.893   9.123  20.100  0.00  0.00    +0.000 C 
ATOM     23  C   UNL     1       1.590   8.266  19.044  0.00  0.00    +0.000 C 
ATOM     24  C   UNL     1       2.166   9.179  17.962  0.00  0.00    +0.000 C 
ENDBRANCH  21  23
ENDBRANCH   1  21
TORSDOF 3
ENDMDL
MODEL 9
REMARK VINA RESULT:      -7.9      2.592      8.015
REMARK  Name = 
REMARK  5 active torsions:
REMARK  status: ('A' for Active; 'I' for Inactive)
REMARK    1  A    between atoms: C_1  and  C_2
REMARK    2  A    between atoms: C_2  and  C_3
REMARK    3  A    between atoms: C_2  and  O_4
REMARK    4  A    between atoms: O_4  and  C_5
REMARK    5  A    between atoms: C_9  and  C_10
REMARK                            x       y       z     vdW  Elec       q    Type
REMARK                         _______ _______ _______ _____ _____    ______ ____
ROOT
ATOM      1  C   UNL     1       2.412   5.499  20.114  0.00  0.00    +0.000 A 
ATOM      2  N   UNL     1       1.587   6.349  20.756  0.00  0.00    +0.000 NA
ATOM      3  C   UNL     1       1.457   7.587  20.264  0.00  0.00    +0.000 A 
ATOM      4  C   UNL     1       0.619   8.447  20.940  0.00  0.00    +0.000 A 
ATOM      5  C   UNL     1       0.425   9.741  20.488  0.00  0.00    +0.000 A 
ATOM      6  N   UNL     1       1.072  10.167  19.387  0.00  0.00    +0.000 NA
ATOM      7  N   UNL     1       1.919   9.323  18.705  0.00  0.00    +0.000 NA
ATOM      8  C   UNL     1       2.117   8.055  19.120  0.00  0.00    +0.000 A 
ATOM      9  C   UNL     1       2.976   7.153  18.462  0.00  0.00    +0.000 A 
ATOM     10  C   UNL     1       3.691   7.529  17.305  0.00  0.00    +0.000 A 
ATOM     11  C   UNL     1       4.540   6.637  16.648  0.00  0.00    +0.000 A 
ATOM     12  C   UNL     1       4.690   5.344  17.133  0.00  0.00    +0.000 A 
ATOM     13  C   UNL     1       3.996   4.947  18.279  0.00  0.00    +0.000 A 
ATOM     14  C   UNL     1       3.136   5.840  18.961  0.00  0.00    +0.000 A 
ENDROOT
BRANCH   5  15
ATOM     15  C   UNL     1      -0.468  10.708  21.154  0.00  0.00    +0.000 A 
ATOM     16  C   UNL     1      -1.129  11.705  20.415  0.00  0.00    +0.000 A 
ATOM     17  C   UNL     1      -1.972  12.633  21.034  0.00  0.00    +0.000 A 
ATOM     18  C   UNL     1      -2.176  12.579  22.410  0.00  0.00    +0.000 A 
ATOM     19  C   UNL     1      -1.541  11.598  23.164  0.00  0.00    +0.000 A 
ATOM     20  C   UNL     1      -0.697  10.675  22.544  0.00  0.00    +0.000 A 
ENDBRANCH   5  15
BRANCH   1  21
ATOM     21  O   UNL     1       2.608   4.254  20.675  0.00  0.00    +0.000 OA
BRANCH  21  23
ATOM     22  C   UNL     1       0.959   2.931  19.603  0.00  0.00    +0.000 C 
ATOM     23  C   UNL     1       1.407   3.513  20.943  0.00  0.00    +0.000 C 
ATOM     24  C   UNL     1       1.647   2.369  21.928  0.00  0.00    +0.000 C 
ENDBRANCH  21  23
ENDBRANCH   1  21
TORSDOF 3
ENDMDL
