MODEL 1
REMARK VINA RESULT:      -6.8      0.000      0.000
REMARK  Name = 
REMARK  4 active torsions:
REMARK  status: ('A' for Active; 'I' for Inactive)
REMARK    1  A    between atoms: C_1  and  C_2
REMARK    2  A    between atoms: C_7  and  C_8
REMARK    3  A    between atoms: C_8  and  C_9
REMARK    4  A    between atoms: C_9  and  O_11
REMARK                            x       y       z     vdW  Elec       q    Type
REMARK                         _______ _______ _______ _____ _____    ______ ____
ROOT
ATOM      1  C   UNL     1       1.433   2.830  21.361  0.00  0.00    +0.000 C 
ATOM      2  C   UNL     1       2.613   3.389  20.583  0.00  0.00    +0.000 C 
ATOM      3  C   UNL     1       2.381   4.840  20.114  0.00  0.00    +0.000 C 
ATOM      4  C   UNL     1       3.271   4.905  18.912  0.00  0.00    +0.000 A 
ATOM      5  C   UNL     1       3.709   6.031  18.240  0.00  0.00    +0.000 A 
ATOM      6  C   UNL     1       4.487   5.862  17.091  0.00  0.00    +0.000 A 
ATOM      7  C   UNL     1       4.830   4.575  16.622  0.00  0.00    +0.000 A 
ATOM      8  C   UNL     1       4.354   3.445  17.311  0.00  0.00    +0.000 A 
ATOM      9  C   UNL     1       3.589   3.625  18.454  0.00  0.00    +0.000 A 
ATOM     10  C   UNL     1       2.939   2.578  19.309  0.00  0.00    +0.000 C 
ENDROOT
BRANCH   7  11
ATOM     11  C   UNL     1       5.604   4.384  15.335  0.00  0.00    +0.000 C 
BRANCH  11  12
ATOM     12  C   UNL     1       7.056   4.807  15.369  0.00  0.00    +0.000 C 
ATOM     13  O   UNL     1       7.608   5.423  14.470  0.00  0.00    +0.000 OA
BRANCH  12  14
ATOM     14  O   UNL     1       7.724   4.399  16.477  0.00  0.00    +0.000 OA
ATOM     15  H   UNL     1       7.230   4.569  17.304  0.00  0.00    +0.000 HD
ENDBRANCH  12  14
ENDBRANCH  11  12
ENDBRANCH   7  11
TORSDOF 3
ENDMDL
MODEL 2
REMARK VINA RESULT:      -6.6      0.968      1.163
REMARK  Name = 
REMARK  4 active torsions:
REMARK  status: ('A' for Active; 'I' for Inactive)
REMARK    1  A    between atoms: C_1  and  C_2
REMARK    2  A    between atoms: C_7  and  C_8
REMARK    3  A    between atoms: C_8  and  C_9
REMARK    4  A    between atoms: C_9  and  O_11
REMARK                            x       y       z     vdW  Elec       q    Type
REMARK                         _______ _______ _______ _____ _____    ______ ____
ROOT
ATOM      1  C   UNL     1       1.420   2.726  21.576  0.00  0.00    +0.000 C 
ATOM      2  C   UNL     1       2.453   3.624  20.913  0.00  0.00    +0.000 C 
ATOM      3  C   UNL     1       1.844   4.941  20.389  0.00  0.00    +0.000 C 
ATOM      4  C   UNL     1       2.796   5.284  19.286  0.00  0.00    +0.000 A 
ATOM      5  C   UNL     1       2.942   6.497  18.637  0.00  0.00    +0.000 A 
ATOM      6  C   UNL     1       3.853   6.583  17.581  0.00  0.00    +0.000 A 
ATOM      7  C   UNL     1       4.618   5.465  17.181  0.00  0.00    +0.000 A 
ATOM      8  C   UNL     1       4.435   4.237  17.841  0.00  0.00    +0.000 A 
ATOM      9  C   UNL     1       3.533   4.165  18.893  0.00  0.00    +0.000 A 
ATOM     10  C   UNL     1       3.143   2.963  19.699  0.00  0.00    +0.000 C 
ENDROOT
BRANCH   7  11
ATOM     11  C   UNL     1       5.546   5.531  15.987  0.00  0.00    +0.000 C 
BRANCH  11  12
ATOM     12  C   UNL     1       7.025   5.478  16.297  0.00  0.00    +0.000 C 
ATOM     13  O   UNL     1       7.678   4.446  16.340  0.00  0.00    +0.000 OA
BRANCH  12  14
ATOM     14  O   UNL     1       7.574   6.687  16.576  0.00  0.00    +0.000 OA
ATOM     15  H   UNL     1       8.301   6.926  15.967  0.00  0.00    +0.000 HD
ENDBRANCH  12  14
ENDBRANCH  11  12
ENDBRANCH   7  11
TORSDOF 3
ENDMDL
MODEL 3
REMARK VINA RESULT:      -6.5      3.679      5.647
REMARK  Name = 
REMARK  4 active torsions:
REMARK  status: ('A' for Active; 'I' for Inactive)
REMARK    1  A    between atoms: C_1  and  C_2
REMARK    2  A    between atoms: C_7  and  C_8
REMARK    3  A    between atoms: C_8  and  C_9
REMARK    4  A    between atoms: C_9  and  O_11
REMARK                            x       y       z     vdW  Elec       q    Type
REMARK                         _______ _______ _______ _____ _____    ______ ____
ROOT
ATOM      1  C   UNL     1       7.752   7.588  17.705  0.00  0.00    +0.000 C 
ATOM      2  C   UNL     1       6.768   6.439  17.556  0.00  0.00    +0.000 C 
ATOM      3  C   UNL     1       5.327   6.922  17.296  0.00  0.00    +0.000 C 
ATOM      4  C   UNL     1       4.531   5.773  17.834  0.00  0.00    +0.000 A 
ATOM      5  C   UNL     1       3.194   5.494  17.622  0.00  0.00    +0.000 A 
ATOM      6  C   UNL     1       2.629   4.397  18.279  0.00  0.00    +0.000 A 
ATOM      7  C   UNL     1       3.400   3.582  19.137  0.00  0.00    +0.000 A 
ATOM      8  C   UNL     1       4.753   3.900  19.354  0.00  0.00    +0.000 A 
ATOM      9  C   UNL     1       5.304   4.987  18.691  0.00  0.00    +0.000 A 
ATOM     10  C   UNL     1       6.694   5.536  18.808  0.00  0.00    +0.000 C 
ENDROOT
BRANCH   7  11
ATOM     11  C   UNL     1       2.776   2.441  19.913  0.00  0.00    +0.000 C 
BRANCH  11  12
ATOM     12  C   UNL     1       1.965   2.836  21.127  0.00  0.00    +0.000 C 
ATOM     13  O   UNL     1       2.431   2.949  22.251  0.00  0.00    +0.000 OA
BRANCH  12  14
ATOM     14  O   UNL     1       0.643   3.011  20.875  0.00  0.00    +0.000 OA
ATOM     15  H   UNL     1       0.069   2.637  21.573  0.00  0.00    +0.000 HD
ENDBRANCH  12  14
ENDBRANCH  11  12
ENDBRANCH   7  11
TORSDOF 3
ENDMDL
MODEL 4
REMARK VINA RESULT:      -6.4      3.435      5.681
REMARK  Name = 
REMARK  4 active torsions:
REMARK  status: ('A' for Active; 'I' for Inactive)
REMARK    1  A    between atoms: C_1  and  C_2
REMARK    2  A    between atoms: C_7  and  C_8
REMARK    3  A    between atoms: C_8  and  C_9
REMARK    4  A    between atoms: C_9  and  O_11
REMARK                            x       y       z     vdW  Elec       q    Type
REMARK                         _______ _______ _______ _____ _____    ______ ____
ROOT
ATOM      1  C   UNL     1       6.720   4.939  15.193  0.00  0.00    +0.000 C 
ATOM      2  C   UNL     1       5.400   4.926  15.948  0.00  0.00    +0.000 C 
ATOM      3  C   UNL     1       4.913   6.343  16.314  0.00  0.00    +0.000 C 
ATOM      4  C   UNL     1       4.073   6.060  17.521  0.00  0.00    +0.000 A 
ATOM      5  C   UNL     1       3.144   6.890  18.121  0.00  0.00    +0.000 A 
ATOM      6  C   UNL     1       2.514   6.450  19.289  0.00  0.00    +0.000 A 
ATOM      7  C   UNL     1       2.806   5.187  19.848  0.00  0.00    +0.000 A 
ATOM      8  C   UNL     1       3.772   4.371  19.231  0.00  0.00    +0.000 A 
ATOM      9  C   UNL     1       4.386   4.814  18.069  0.00  0.00    +0.000 A 
ATOM     10  C   UNL     1       5.468   4.143  17.278  0.00  0.00    +0.000 C 
ENDROOT
BRANCH   7  11
ATOM     11  C   UNL     1       2.187   4.739  21.155  0.00  0.00    +0.000 C 
BRANCH  11  12
ATOM     12  C   UNL     1       1.425   3.434  21.112  0.00  0.00    +0.000 C 
ATOM     13  O   UNL     1       1.622   2.503  21.878  0.00  0.00    +0.000 OA
BRANCH  12  14
ATOM     14  O   UNL     1       0.520   3.356  20.104  0.00  0.00    +0.000 OA
ATOM     15  H   UNL     1       0.865   2.892  19.316  0.00  0.00    +0.000 HD
ENDBRANCH  12  14
ENDBRANCH  11  12
ENDBRANCH   7  11
TORSDOF 3
ENDMDL
MODEL 5
REMARK VINA RESULT:      -6.4      3.351      5.674
REMARK  Name = 
REMARK  4 active torsions:
REMARK  status: ('A' for Active; 'I' for Inactive)
REMARK    1  A    between atoms: C_1  and  C_2
REMARK    2  A    between atoms: C_7  and  C_8
REMARK    3  A    between atoms: C_8  and  C_9
REMARK    4  A    between atoms: C_9  and  O_11
REMARK                            x       y       z     vdW  Elec       q    Type
REMARK                         _______ _______ _______ _____ _____    ______ ____
ROOT
ATOM      1  C   UNL     1       7.127   5.055  14.069  0.00  0.00    +0.000 C 
ATOM      2  C   UNL     1       5.797   4.859  14.777  0.00  0.00    +0.000 C 
ATOM      3  C   UNL     1       5.464   6.014  15.745  0.00  0.00    +0.000 C 
ATOM      4  C   UNL     1       4.568   5.324  16.726  0.00  0.00    +0.000 A 
ATOM      5  C   UNL     1       3.724   5.902  17.657  0.00  0.00    +0.000 A 
ATOM      6  C   UNL     1       3.020   5.066  18.528  0.00  0.00    +0.000 A 
ATOM      7  C   UNL     1       3.154   3.661  18.463  0.00  0.00    +0.000 A 
ATOM      8  C   UNL     1       4.036   3.099  17.523  0.00  0.00    +0.000 A 
ATOM      9  C   UNL     1       4.724   3.938  16.659  0.00  0.00    +0.000 A 
ATOM     10  C   UNL     1       5.743   3.567  15.623  0.00  0.00    +0.000 C 
ENDROOT
BRANCH   7  11
ATOM     11  C   UNL     1       2.456   2.756  19.456  0.00  0.00    +0.000 C 
BRANCH  11  12
ATOM     12  C   UNL     1       0.946   2.746  19.392  0.00  0.00    +0.000 C 
ATOM     13  O   UNL     1       0.303   2.209  18.502  0.00  0.00    +0.000 OA
BRANCH  12  14
ATOM     14  O   UNL     1       0.346   3.435  20.396  0.00  0.00    +0.000 OA
ATOM     15  H   UNL     1       0.985   3.870  20.995  0.00  0.00    +0.000 HD
ENDBRANCH  12  14
ENDBRANCH  11  12
ENDBRANCH   7  11
TORSDOF 3
ENDMDL
MODEL 6
REMARK VINA RESULT:      -6.3      1.068      1.298
REMARK  Name = 
REMARK  4 active torsions:
REMARK  status: ('A' for Active; 'I' for Inactive)
REMARK    1  A    between atoms: C_1  and  C_2
REMARK    2  A    between atoms: C_7  and  C_8
REMARK    3  A    between atoms: C_8  and  C_9
REMARK    4  A    between atoms: C_9  and  O_11
REMARK                            x       y       z     vdW  Elec       q    Type
REMARK                         _______ _______ _______ _____ _____    ______ ____
ROOT
ATOM      1  C   UNL     1       1.465   2.757  21.540  0.00  0.00    +0.000 C 
ATOM      2  C   UNL     1       2.436   3.768  20.952  0.00  0.00    +0.000 C 
ATOM      3  C   UNL     1       1.720   4.930  20.234  0.00  0.00    +0.000 C 
ATOM      4  C   UNL     1       2.765   5.354  19.249  0.00  0.00    +0.000 A 
ATOM      5  C   UNL     1       2.820   6.530  18.524  0.00  0.00    +0.000 A 
ATOM      6  C   UNL     1       3.857   6.697  17.602  0.00  0.00    +0.000 A 
ATOM      7  C   UNL     1       4.837   5.697  17.413  0.00  0.00    +0.000 A 
ATOM      8  C   UNL     1       4.746   4.501  18.147  0.00  0.00    +0.000 A 
ATOM      9  C   UNL     1       3.716   4.349  19.064  0.00  0.00    +0.000 A 
ATOM     10  C   UNL     1       3.397   3.153  19.910  0.00  0.00    +0.000 C 
ENDROOT
BRANCH   7  11
ATOM     11  C   UNL     1       5.915   5.838  16.360  0.00  0.00    +0.000 C 
BRANCH  11  12
ATOM     12  C   UNL     1       6.802   4.630  16.157  0.00  0.00    +0.000 C 
ATOM     13  O   UNL     1       7.854   4.449  16.751  0.00  0.00    +0.000 OA
BRANCH  12  14
ATOM     14  O   UNL     1       6.353   3.769  15.210  0.00  0.00    +0.000 OA
ATOM     15  H   UNL     1       5.451   3.982  14.897  0.00  0.00    +0.000 HD
ENDBRANCH  12  14
ENDBRANCH  11  12
ENDBRANCH   7  11
TORSDOF 3
ENDMDL
MODEL 7
REMARK VINA RESULT:      -6.3      2.325      2.862
REMARK  Name = 
REMARK  4 active torsions:
REMARK  status: ('A' for Active; 'I' for Inactive)
REMARK    1  A    between atoms: C_1  and  C_2
REMARK    2  A    between atoms: C_7  and  C_8
REMARK    3  A    between atoms: C_8  and  C_9
REMARK    4  A    between atoms: C_9  and  O_11
REMARK                            x       y       z     vdW  Elec       q    Type
REMARK                         _______ _______ _______ _____ _____    ______ ____
ROOT
ATOM      1  C   UNL     1       0.708   2.377  18.924  0.00  0.00    +0.000 C 
ATOM      2  C   UNL     1       1.821   3.361  18.602  0.00  0.00    +0.000 C 
ATOM      3  C   UNL     1       2.270   3.286  17.129  0.00  0.00    +0.000 C 
ATOM      4  C   UNL     1       3.681   3.780  17.228  0.00  0.00    +0.000 A 
ATOM      5  C   UNL     1       4.504   4.210  16.204  0.00  0.00    +0.000 A 
ATOM      6  C   UNL     1       5.819   4.570  16.511  0.00  0.00    +0.000 A 
ATOM      7  C   UNL     1       6.304   4.506  17.836  0.00  0.00    +0.000 A 
ATOM      8  C   UNL     1       5.455   4.044  18.856  0.00  0.00    +0.000 A 
ATOM      9  C   UNL     1       4.149   3.697  18.541  0.00  0.00    +0.000 A 
ATOM     10  C   UNL     1       3.094   3.138  19.448  0.00  0.00    +0.000 C 
ENDROOT
BRANCH   7  11
ATOM     11  C   UNL     1       7.750   4.818  18.161  0.00  0.00    +0.000 C 
BRANCH  11  12
ATOM     12  C   UNL     1       7.979   5.969  19.114  0.00  0.00    +0.000 C 
ATOM     13  O   UNL     1       8.184   7.120  18.758  0.00  0.00    +0.000 OA
BRANCH  12  14
ATOM     14  O   UNL     1       7.986   5.610  20.423  0.00  0.00    +0.000 OA
ATOM     15  H   UNL     1       7.530   4.760  20.588  0.00  0.00    +0.000 HD
ENDBRANCH  12  14
ENDBRANCH  11  12
ENDBRANCH   7  11
TORSDOF 3
ENDMDL
MODEL 8
REMARK VINA RESULT:      -6.3      0.910      1.756
REMARK  Name = 
REMARK  4 active torsions:
REMARK  status: ('A' for Active; 'I' for Inactive)
REMARK    1  A    between atoms: C_1  and  C_2
REMARK    2  A    between atoms: C_7  and  C_8
REMARK    3  A    between atoms: C_8  and  C_9
REMARK    4  A    between atoms: C_9  and  O_11
REMARK                            x       y       z     vdW  Elec       q    Type
REMARK                         _______ _______ _______ _____ _____    ______ ____
ROOT
ATOM      1  C   UNL     1       1.243   2.765  21.683  0.00  0.00    +0.000 C 
ATOM      2  C   UNL     1       1.641   3.468  20.396  0.00  0.00    +0.000 C 
ATOM      3  C   UNL     1       2.064   2.483  19.288  0.00  0.00    +0.000 C 
ATOM      4  C   UNL     1       2.979   3.339  18.467  0.00  0.00    +0.000 A 
ATOM      5  C   UNL     1       3.438   3.104  17.185  0.00  0.00    +0.000 A 
ATOM      6  C   UNL     1       4.345   4.009  16.625  0.00  0.00    +0.000 A 
ATOM      7  C   UNL     1       4.783   5.144  17.342  0.00  0.00    +0.000 A 
ATOM      8  C   UNL     1       4.318   5.349  18.653  0.00  0.00    +0.000 A 
ATOM      9  C   UNL     1       3.413   4.449  19.196  0.00  0.00    +0.000 A 
ATOM     10  C   UNL     1       2.829   4.440  20.577  0.00  0.00    +0.000 C 
ENDROOT
BRANCH   7  11
ATOM     11  C   UNL     1       5.825   6.083  16.772  0.00  0.00    +0.000 C 
BRANCH  11  12
ATOM     12  C   UNL     1       7.065   5.428  16.207  0.00  0.00    +0.000 C 
ATOM     13  O   UNL     1       7.414   5.518  15.040  0.00  0.00    +0.000 OA
BRANCH  12  14
ATOM     14  O   UNL     1       7.750   4.676  17.106  0.00  0.00    +0.000 OA
ATOM     15  H   UNL     1       8.406   5.193  17.615  0.00  0.00    +0.000 HD
ENDBRANCH  12  14
ENDBRANCH  11  12
ENDBRANCH   7  11
TORSDOF 3
ENDMDL
MODEL 9
REMARK VINA RESULT:      -6.3      1.234      1.320
REMARK  Name = 
REMARK  4 active torsions:
REMARK  status: ('A' for Active; 'I' for Inactive)
REMARK    1  A    between atoms: C_1  and  C_2
REMARK    2  A    between atoms: C_7  and  C_8
REMARK    3  A    between atoms: C_8  and  C_9
REMARK    4  A    between atoms: C_9  and  O_11
REMARK                            x       y       z     vdW  Elec       q    Type
REMARK                         _______ _______ _______ _____ _____    ______ ____
ROOT
ATOM      1  C   UNL     1       0.559   2.142  19.157  0.00  0.00    +0.000 C 
ATOM      2  C   UNL     1       1.827   2.967  19.007  0.00  0.00    +0.000 C 
ATOM      3  C   UNL     1       1.554   4.484  19.031  0.00  0.00    +0.000 C 
ATOM      4  C   UNL     1       2.719   5.004  18.245  0.00  0.00    +0.000 A 
ATOM      5  C   UNL     1       3.180   6.305  18.171  0.00  0.00    +0.000 A 
ATOM      6  C   UNL     1       4.251   6.586  17.318  0.00  0.00    +0.000 A 
ATOM      7  C   UNL     1       4.860   5.569  16.550  0.00  0.00    +0.000 A 
ATOM      8  C   UNL     1       4.359   4.257  16.626  0.00  0.00    +0.000 A 
ATOM      9  C   UNL     1       3.300   3.989  17.481  0.00  0.00    +0.000 A 
ATOM     10  C   UNL     1       2.578   2.691  17.685  0.00  0.00    +0.000 C 
ENDROOT
BRANCH   7  11
ATOM     11  C   UNL     1       5.967   5.881  15.565  0.00  0.00    +0.000 C 
BRANCH  11  12
ATOM     12  C   UNL     1       6.902   4.738  15.238  0.00  0.00    +0.000 C 
ATOM     13  O   UNL     1       6.801   4.036  14.243  0.00  0.00    +0.000 OA
BRANCH  12  14
ATOM     14  O   UNL     1       7.852   4.516  16.181  0.00  0.00    +0.000 OA
ATOM     15  H   UNL     1       8.761   4.660  15.848  0.00  0.00    +0.000 HD
ENDBRANCH  12  14
ENDBRANCH  11  12
ENDBRANCH   7  11
TORSDOF 3
ENDMDL
