MODEL 1
REMARK VINA RESULT:      -8.3      0.000      0.000
REMARK  Name = 
REMARK  8 active torsions:
REMARK  status: ('A' for Active; 'I' for Inactive)
REMARK    1  A    between atoms: C_1  and  C_2
REMARK    2  A    between atoms: C_2  and  C_3
REMARK    3  A    between atoms: C_2  and  N_4
REMARK    4  A    between atoms: C_6  and  C_7
REMARK    5  A    between atoms: C_7  and  C_9
REMARK    6  A    between atoms: C_11  and  N_12
REMARK    7  A    between atoms: C_13  and  C_15
REMARK    8  A    between atoms: C_15  and  C_16
REMARK                            x       y       z     vdW  Elec       q    Type
REMARK                         _______ _______ _______ _____ _____    ______ ____
ROOT
ATOM      1  C   UNL     1       1.840   8.375  19.220  0.00  0.00    +0.000 A 
ATOM      2  C   UNL     1       1.171   9.592  19.209  0.00  0.00    +0.000 A 
ATOM      3  C   UNL     1       0.466   9.989  20.341  0.00  0.00    +0.000 A 
ATOM      4  C   UNL     1       0.447   9.139  21.445  0.00  0.00    +0.000 A 
ATOM      5  C   UNL     1       1.163   7.952  21.380  0.00  0.00    +0.000 A 
ATOM      6  N   UNL     1       1.856   7.547  20.295  0.00  0.00    +0.000 NA
ENDROOT
BRANCH   3   7
ATOM      7  N   UNL     1      -0.234  11.216  20.410  0.00  0.00    +0.000 N 
ATOM      8  C   UNL     1      -1.398  11.518  19.708  0.00  0.00    +0.000 C 
ATOM      9  O   UNL     1      -1.956  10.783  18.898  0.00  0.00    +0.000 OA
ATOM     10  H   UNL     1       0.196  11.960  20.943  0.00  0.00    +0.000 HD
BRANCH   8  11
ATOM     11  C   UNL     1      -1.955  12.899  19.992  0.00  0.00    +0.000 C 
BRANCH  11  12
ATOM     12  C   UNL     1      -3.038  12.901  21.042  0.00  0.00    +0.000 A 
ATOM     13  C   UNL     1      -4.387  12.973  20.663  0.00  0.00    +0.000 A 
ATOM     14  C   UNL     1      -5.396  12.914  21.628  0.00  0.00    +0.000 A 
ATOM     15  C   UNL     1      -5.065  12.783  22.974  0.00  0.00    +0.000 A 
ATOM     16 CL   UNL     1      -6.313  12.686  24.153  0.00  0.00    +0.000 Cl
ATOM     17  C   UNL     1      -3.731  12.719  23.368  0.00  0.00    +0.000 A 
ATOM     18  C   UNL     1      -2.720  12.777  22.403  0.00  0.00    +0.000 A 
ENDBRANCH  11  12
ENDBRANCH   8  11
ENDBRANCH   3   7
BRANCH   1  19
ATOM     19  C   UNL     1       2.593   7.993  17.991  0.00  0.00    +0.000 C 
ATOM     20  O   UNL     1       2.493   8.722  17.004  0.00  0.00    +0.000 OA
BRANCH  19  23
ATOM     21  N   UNL     1       5.038   5.247  17.930  0.00  0.00    +0.000 N 
ATOM     22  C   UNL     1       4.737   6.588  17.977  0.00  0.00    +0.000 A 
ATOM     23  C   UNL     1       3.364   6.751  17.929  0.00  0.00    +0.000 A 
ATOM     24  C   UNL     1       2.809   5.427  17.859  0.00  0.00    +0.000 A 
ATOM     25  C   UNL     1       1.491   4.932  17.820  0.00  0.00    +0.000 A 
ATOM     26  N   UNL     1       1.246   3.598  17.763  0.00  0.00    +0.000 NA
ATOM     27  C   UNL     1       2.296   2.752  17.739  0.00  0.00    +0.000 A 
ATOM     28  C   UNL     1       3.622   3.145  17.775  0.00  0.00    +0.000 A 
ATOM     29  F   UNL     1       4.602   2.230  17.746  0.00  0.00    +0.000 F 
ATOM     30  C   UNL     1       3.873   4.516  17.847  0.00  0.00    +0.000 A 
BRANCH  21  32
ATOM     31  C   UNL     1       7.045   4.510  16.662  0.00  0.00    +0.000 C 
ATOM     32  C   UNL     1       6.396   4.707  18.033  0.00  0.00    +0.000 C 
ATOM     33  C   UNL     1       7.262   5.573  18.949  0.00  0.00    +0.000 C 
ENDBRANCH  21  32
ENDBRANCH  19  23
ENDBRANCH   1  19
TORSDOF 6
ENDMDL
MODEL 2
REMARK VINA RESULT:      -8.2      1.669      2.920
REMARK  Name = 
REMARK  8 active torsions:
REMARK  status: ('A' for Active; 'I' for Inactive)
REMARK    1  A    between atoms: C_1  and  C_2
REMARK    2  A    between atoms: C_2  and  C_3
REMARK    3  A    between atoms: C_2  and  N_4
REMARK    4  A    between atoms: C_6  and  C_7
REMARK    5  A    between atoms: C_7  and  C_9
REMARK    6  A    between atoms: C_11  and  N_12
REMARK    7  A    between atoms: C_13  and  C_15
REMARK    8  A    between atoms: C_15  and  C_16
REMARK                            x       y       z     vdW  Elec       q    Type
REMARK                         _______ _______ _______ _____ _____    ______ ____
ROOT
ATOM      1  C   UNL     1       1.509   8.518  19.574  0.00  0.00    +0.000 A 
ATOM      2  C   UNL     1       0.596   9.401  19.011  0.00  0.00    +0.000 A 
ATOM      3  C   UNL     1      -0.313  10.056  19.836  0.00  0.00    +0.000 A 
ATOM      4  C   UNL     1      -0.281   9.790  21.203  0.00  0.00    +0.000 A 
ATOM      5  C   UNL     1       0.680   8.912  21.685  0.00  0.00    +0.000 A 
ATOM      6  N   UNL     1       1.573   8.268  20.905  0.00  0.00    +0.000 NA
ENDROOT
BRANCH   3   7
ATOM      7  N   UNL     1      -1.267  10.973  19.340  0.00  0.00    +0.000 N 
ATOM      8  C   UNL     1      -2.276  10.671  18.430  0.00  0.00    +0.000 C 
ATOM      9  O   UNL     1      -2.453   9.580  17.894  0.00  0.00    +0.000 OA
ATOM     10  H   UNL     1      -1.150  11.944  19.601  0.00  0.00    +0.000 HD
BRANCH   8  11
ATOM     11  C   UNL     1      -3.179  11.841  18.090  0.00  0.00    +0.000 C 
BRANCH  11  12
ATOM     12  C   UNL     1      -4.378  11.951  18.999  0.00  0.00    +0.000 A 
ATOM     13  C   UNL     1      -5.564  11.268  18.688  0.00  0.00    +0.000 A 
ATOM     14  C   UNL     1      -6.657  11.318  19.556  0.00  0.00    +0.000 A 
ATOM     15  C   UNL     1      -6.573  12.049  20.739  0.00  0.00    +0.000 A 
ATOM     16 CL   UNL     1      -7.914  12.084  21.815  0.00  0.00    +0.000 Cl
ATOM     17  C   UNL     1      -5.407  12.739  21.059  0.00  0.00    +0.000 A 
ATOM     18  C   UNL     1      -4.312  12.689  20.191  0.00  0.00    +0.000 A 
ENDBRANCH  11  12
ENDBRANCH   8  11
ENDBRANCH   3   7
BRANCH   1  19
ATOM     19  C   UNL     1       2.472   7.847  18.654  0.00  0.00    +0.000 C 
ATOM     20  O   UNL     1       3.063   8.544  17.829  0.00  0.00    +0.000 OA
BRANCH  19  23
ATOM     21  N   UNL     1       2.433   4.198  19.109  0.00  0.00    +0.000 N 
ATOM     22  C   UNL     1       1.974   5.455  19.429  0.00  0.00    +0.000 A 
ATOM     23  C   UNL     1       2.654   6.395  18.676  0.00  0.00    +0.000 A 
ATOM     24  C   UNL     1       3.568   5.656  17.848  0.00  0.00    +0.000 A 
ATOM     25  C   UNL     1       4.497   6.033  16.859  0.00  0.00    +0.000 A 
ATOM     26  N   UNL     1       5.245   5.103  16.211  0.00  0.00    +0.000 NA
ATOM     27  C   UNL     1       5.082   3.806  16.539  0.00  0.00    +0.000 A 
ATOM     28  C   UNL     1       4.194   3.342  17.494  0.00  0.00    +0.000 A 
ATOM     29  F   UNL     1       4.102   2.030  17.754  0.00  0.00    +0.000 F 
ATOM     30  C   UNL     1       3.418   4.297  18.150  0.00  0.00    +0.000 A 
BRANCH  21  32
ATOM     31  C   UNL     1       1.412   3.131  21.109  0.00  0.00    +0.000 C 
ATOM     32  C   UNL     1       1.884   2.958  19.665  0.00  0.00    +0.000 C 
ATOM     33  C   UNL     1       0.775   2.402  18.771  0.00  0.00    +0.000 C 
ENDBRANCH  21  32
ENDBRANCH  19  23
ENDBRANCH   1  19
TORSDOF 6
ENDMDL
MODEL 3
REMARK VINA RESULT:      -8.1      4.189      9.696
REMARK  Name = 
REMARK  8 active torsions:
REMARK  status: ('A' for Active; 'I' for Inactive)
REMARK    1  A    between atoms: C_1  and  C_2
REMARK    2  A    between atoms: C_2  and  C_3
REMARK    3  A    between atoms: C_2  and  N_4
REMARK    4  A    between atoms: C_6  and  C_7
REMARK    5  A    between atoms: C_7  and  C_9
REMARK    6  A    between atoms: C_11  and  N_12
REMARK    7  A    between atoms: C_13  and  C_15
REMARK    8  A    between atoms: C_15  and  C_16
REMARK                            x       y       z     vdW  Elec       q    Type
REMARK                         _______ _______ _______ _____ _____    ______ ____
ROOT
ATOM      1  C   UNL     1      -0.274  10.988  20.697  0.00  0.00    +0.000 A 
ATOM      2  C   UNL     1       0.510  10.192  19.872  0.00  0.00    +0.000 A 
ATOM      3  C   UNL     1       1.114   9.055  20.401  0.00  0.00    +0.000 A 
ATOM      4  C   UNL     1       0.918   8.764  21.749  0.00  0.00    +0.000 A 
ATOM      5  C   UNL     1       0.100   9.601  22.496  0.00  0.00    +0.000 A 
ATOM      6  N   UNL     1      -0.498  10.706  22.005  0.00  0.00    +0.000 NA
ENDROOT
BRANCH   3   7
ATOM      7  N   UNL     1       1.920   8.191  19.625  0.00  0.00    +0.000 N 
ATOM      8  C   UNL     1       2.313   8.423  18.310  0.00  0.00    +0.000 C 
ATOM      9  O   UNL     1       1.982   9.386  17.623  0.00  0.00    +0.000 OA
ATOM     10  H   UNL     1       2.152   7.293  20.030  0.00  0.00    +0.000 HD
BRANCH   8  11
ATOM     11  C   UNL     1       3.202   7.342  17.726  0.00  0.00    +0.000 C 
BRANCH  11  12
ATOM     12  C   UNL     1       2.872   5.961  18.234  0.00  0.00    +0.000 A 
ATOM     13  C   UNL     1       1.789   5.251  17.695  0.00  0.00    +0.000 A 
ATOM     14  C   UNL     1       1.515   3.948  18.119  0.00  0.00    +0.000 A 
ATOM     15  C   UNL     1       2.321   3.347  19.083  0.00  0.00    +0.000 A 
ATOM     16 CL   UNL     1       1.994   1.734  19.581  0.00  0.00    +0.000 Cl
ATOM     17  C   UNL     1       3.396   4.040  19.634  0.00  0.00    +0.000 A 
ATOM     18  C   UNL     1       3.670   5.344  19.210  0.00  0.00    +0.000 A 
ENDBRANCH  11  12
ENDBRANCH   8  11
ENDBRANCH   3   7
BRANCH   1  19
ATOM     19  C   UNL     1      -0.911  12.191  20.087  0.00  0.00    +0.000 C 
ATOM     20  O   UNL     1      -0.245  13.224  20.017  0.00  0.00    +0.000 OA
BRANCH  19  23
ATOM     21  N   UNL     1      -4.541  12.446  19.554  0.00  0.00    +0.000 N 
ATOM     22  C   UNL     1      -3.427  12.612  20.344  0.00  0.00    +0.000 A 
ATOM     23  C   UNL     1      -2.310  12.171  19.657  0.00  0.00    +0.000 A 
ATOM     24  C   UNL     1      -2.782  11.721  18.376  0.00  0.00    +0.000 A 
ATOM     25  C   UNL     1      -2.139  11.200  17.236  0.00  0.00    +0.000 A 
ATOM     26  N   UNL     1      -2.846  10.856  16.129  0.00  0.00    +0.000 NA
ATOM     27  C   UNL     1      -4.184  11.021  16.145  0.00  0.00    +0.000 A 
ATOM     28  C   UNL     1      -4.901  11.527  17.215  0.00  0.00    +0.000 A 
ATOM     29  F   UNL     1      -6.234  11.654  17.139  0.00  0.00    +0.000 F 
ATOM     30  C   UNL     1      -4.173  11.891  18.348  0.00  0.00    +0.000 A 
BRANCH  21  32
ATOM     31  C   UNL     1      -6.702  11.736  20.557  0.00  0.00    +0.000 C 
ATOM     32  C   UNL     1      -5.889  12.873  19.937  0.00  0.00    +0.000 C 
ATOM     33  C   UNL     1      -5.836  14.096  20.855  0.00  0.00    +0.000 C 
ENDBRANCH  21  32
ENDBRANCH  19  23
ENDBRANCH   1  19
TORSDOF 6
ENDMDL
MODEL 4
REMARK VINA RESULT:      -8.1      1.567      1.962
REMARK  Name = 
REMARK  8 active torsions:
REMARK  status: ('A' for Active; 'I' for Inactive)
REMARK    1  A    between atoms: C_1  and  C_2
REMARK    2  A    between atoms: C_2  and  C_3
REMARK    3  A    between atoms: C_2  and  N_4
REMARK    4  A    between atoms: C_6  and  C_7
REMARK    5  A    between atoms: C_7  and  C_9
REMARK    6  A    between atoms: C_11  and  N_12
REMARK    7  A    between atoms: C_13  and  C_15
REMARK    8  A    between atoms: C_15  and  C_16
REMARK                            x       y       z     vdW  Elec       q    Type
REMARK                         _______ _______ _______ _____ _____    ______ ____
ROOT
ATOM      1  C   UNL     1       1.828   8.324  19.261  0.00  0.00    +0.000 A 
ATOM      2  C   UNL     1       0.969   9.415  19.231  0.00  0.00    +0.000 A 
ATOM      3  C   UNL     1       0.250   9.744  20.376  0.00  0.00    +0.000 A 
ATOM      4  C   UNL     1       0.409   8.954  21.512  0.00  0.00    +0.000 A 
ATOM      5  C   UNL     1       1.306   7.896  21.462  0.00  0.00    +0.000 A 
ATOM      6  N   UNL     1       2.016   7.559  20.366  0.00  0.00    +0.000 NA
ENDROOT
BRANCH   3   7
ATOM      7  N   UNL     1      -0.637  10.844  20.427  0.00  0.00    +0.000 N 
ATOM      8  C   UNL     1      -0.300  12.164  20.142  0.00  0.00    +0.000 C 
ATOM      9  O   UNL     1       0.823  12.568  19.851  0.00  0.00    +0.000 OA
ATOM     10  H   UNL     1      -1.567  10.667  20.785  0.00  0.00    +0.000 HD
BRANCH   8  11
ATOM     11  C   UNL     1      -1.456  13.139  20.247  0.00  0.00    +0.000 C 
BRANCH  11  12
ATOM     12  C   UNL     1      -2.764  12.568  19.757  0.00  0.00    +0.000 A 
ATOM     13  C   UNL     1      -3.940  12.764  20.496  0.00  0.00    +0.000 A 
ATOM     14  C   UNL     1      -5.164  12.290  20.016  0.00  0.00    +0.000 A 
ATOM     15  C   UNL     1      -5.220  11.619  18.798  0.00  0.00    +0.000 A 
ATOM     16 CL   UNL     1      -6.733  11.061  18.202  0.00  0.00    +0.000 Cl
ATOM     17  C   UNL     1      -4.060  11.409  18.055  0.00  0.00    +0.000 A 
ATOM     18  C   UNL     1      -2.836  11.883  18.534  0.00  0.00    +0.000 A 
ENDBRANCH  11  12
ENDBRANCH   8  11
ENDBRANCH   3   7
BRANCH   1  19
ATOM     19  C   UNL     1       2.588   8.013  18.016  0.00  0.00    +0.000 C 
ATOM     20  O   UNL     1       2.503   8.803  17.076  0.00  0.00    +0.000 OA
BRANCH  19  23
ATOM     21  N   UNL     1       5.015   5.264  17.746  0.00  0.00    +0.000 N 
ATOM     22  C   UNL     1       4.722   6.605  17.832  0.00  0.00    +0.000 A 
ATOM     23  C   UNL     1       3.350   6.770  17.883  0.00  0.00    +0.000 A 
ATOM     24  C   UNL     1       2.787   5.448  17.834  0.00  0.00    +0.000 A 
ATOM     25  C   UNL     1       1.468   4.956  17.881  0.00  0.00    +0.000 A 
ATOM     26  N   UNL     1       1.217   3.623  17.822  0.00  0.00    +0.000 NA
ATOM     27  C   UNL     1       2.260   2.777  17.712  0.00  0.00    +0.000 A 
ATOM     28  C   UNL     1       3.587   3.167  17.661  0.00  0.00    +0.000 A 
ATOM     29  F   UNL     1       4.560   2.251  17.551  0.00  0.00    +0.000 F 
ATOM     30  C   UNL     1       3.845   4.536  17.734  0.00  0.00    +0.000 A 
BRANCH  21  32
ATOM     31  C   UNL     1       6.899   4.471  16.330  0.00  0.00    +0.000 C 
ATOM     32  C   UNL     1       6.375   4.720  17.746  0.00  0.00    +0.000 C 
ATOM     33  C   UNL     1       7.323   5.613  18.549  0.00  0.00    +0.000 C 
ENDBRANCH  21  32
ENDBRANCH  19  23
ENDBRANCH   1  19
TORSDOF 6
ENDMDL
MODEL 5
REMARK VINA RESULT:      -8.1      1.392      2.704
REMARK  Name = 
REMARK  8 active torsions:
REMARK  status: ('A' for Active; 'I' for Inactive)
REMARK    1  A    between atoms: C_1  and  C_2
REMARK    2  A    between atoms: C_2  and  C_3
REMARK    3  A    between atoms: C_2  and  N_4
REMARK    4  A    between atoms: C_6  and  C_7
REMARK    5  A    between atoms: C_7  and  C_9
REMARK    6  A    between atoms: C_11  and  N_12
REMARK    7  A    between atoms: C_13  and  C_15
REMARK    8  A    between atoms: C_15  and  C_16
REMARK                            x       y       z     vdW  Elec       q    Type
REMARK                         _______ _______ _______ _____ _____    ______ ____
ROOT
ATOM      1  C   UNL     1       1.596   8.521  19.453  0.00  0.00    +0.000 A 
ATOM      2  C   UNL     1       0.806   9.661  19.387  0.00  0.00    +0.000 A 
ATOM      3  C   UNL     1       0.144  10.095  20.531  0.00  0.00    +0.000 A 
ATOM      4  C   UNL     1       0.289   9.357  21.703  0.00  0.00    +0.000 A 
ATOM      5  C   UNL     1       1.116   8.243  21.687  0.00  0.00    +0.000 A 
ATOM      6  N   UNL     1       1.771   7.805  20.592  0.00  0.00    +0.000 NA
ENDROOT
BRANCH   3   7
ATOM      7  N   UNL     1      -0.673  11.249  20.546  0.00  0.00    +0.000 N 
ATOM      8  C   UNL     1      -0.302  12.490  21.057  0.00  0.00    +0.000 C 
ATOM      9  O   UNL     1       0.766  12.747  21.608  0.00  0.00    +0.000 OA
ATOM     10  H   UNL     1      -1.631  11.138  20.242  0.00  0.00    +0.000 HD
BRANCH   8  11
ATOM     11  C   UNL     1      -1.364  13.563  20.919  0.00  0.00    +0.000 C 
BRANCH  11  12
ATOM     12  C   UNL     1      -2.610  13.275  21.719  0.00  0.00    +0.000 A 
ATOM     13  C   UNL     1      -2.522  13.035  23.099  0.00  0.00    +0.000 A 
ATOM     14  C   UNL     1      -3.678  12.828  23.856  0.00  0.00    +0.000 A 
ATOM     15  C   UNL     1      -4.927  12.859  23.240  0.00  0.00    +0.000 A 
ATOM     16 CL   UNL     1      -6.347  12.629  24.182  0.00  0.00    +0.000 Cl
ATOM     17  C   UNL     1      -5.032  13.089  21.870  0.00  0.00    +0.000 A 
ATOM     18  C   UNL     1      -3.875  13.296  21.113  0.00  0.00    +0.000 A 
ENDBRANCH  11  12
ENDBRANCH   8  11
ENDBRANCH   3   7
BRANCH   1  19
ATOM     19  C   UNL     1       2.297   8.098  18.206  0.00  0.00    +0.000 C 
ATOM     20  O   UNL     1       2.413   8.924  17.301  0.00  0.00    +0.000 OA
BRANCH  19  23
ATOM     21  N   UNL     1       2.937   4.480  18.068  0.00  0.00    +0.000 N 
ATOM     22  C   UNL     1       2.194   5.554  18.499  0.00  0.00    +0.000 A 
ATOM     23  C   UNL     1       2.765   6.722  18.029  0.00  0.00    +0.000 A 
ATOM     24  C   UNL     1       3.914   6.325  17.262  0.00  0.00    +0.000 A 
ATOM     25  C   UNL     1       4.873   7.037  16.517  0.00  0.00    +0.000 A 
ATOM     26  N   UNL     1       5.875   6.391  15.866  0.00  0.00    +0.000 NA
ATOM     27  C   UNL     1       5.935   5.047  15.954  0.00  0.00    +0.000 A 
ATOM     28  C   UNL     1       5.039   4.264  16.659  0.00  0.00    +0.000 A 
ATOM     29  F   UNL     1       5.180   2.931  16.690  0.00  0.00    +0.000 F 
ATOM     30  C   UNL     1       4.003   4.927  17.317  0.00  0.00    +0.000 A 
BRANCH  21  32
ATOM     31  C   UNL     1       3.385   2.478  19.473  0.00  0.00    +0.000 C 
ATOM     32  C   UNL     1       2.581   3.081  18.320  0.00  0.00    +0.000 C 
ATOM     33  C   UNL     1       1.075   2.931  18.543  0.00  0.00    +0.000 C 
ENDBRANCH  21  32
ENDBRANCH  19  23
ENDBRANCH   1  19
TORSDOF 6
ENDMDL
MODEL 6
REMARK VINA RESULT:      -8.0      4.675     10.281
REMARK  Name = 
REMARK  8 active torsions:
REMARK  status: ('A' for Active; 'I' for Inactive)
REMARK    1  A    between atoms: C_1  and  C_2
REMARK    2  A    between atoms: C_2  and  C_3
REMARK    3  A    between atoms: C_2  and  N_4
REMARK    4  A    between atoms: C_6  and  C_7
REMARK    5  A    between atoms: C_7  and  C_9
REMARK    6  A    between atoms: C_11  and  N_12
REMARK    7  A    between atoms: C_13  and  C_15
REMARK    8  A    between atoms: C_15  and  C_16
REMARK                            x       y       z     vdW  Elec       q    Type
REMARK                         _______ _______ _______ _____ _____    ______ ____
ROOT
ATOM      1  C   UNL     1       1.564   8.718  19.271  0.00  0.00    +0.000 A 
ATOM      2  C   UNL     1       2.192   7.706  18.556  0.00  0.00    +0.000 A 
ATOM      3  C   UNL     1       2.426   6.483  19.175  0.00  0.00    +0.000 A 
ATOM      4  C   UNL     1       2.031   6.322  20.502  0.00  0.00    +0.000 A 
ATOM      5  C   UNL     1       1.389   7.378  21.134  0.00  0.00    +0.000 A 
ATOM      6  N   UNL     1       1.148   8.572  20.554  0.00  0.00    +0.000 NA
ENDROOT
BRANCH   3   7
ATOM      7  N   UNL     1       3.052   5.402  18.513  0.00  0.00    +0.000 N 
ATOM      8  C   UNL     1       4.370   4.996  18.704  0.00  0.00    +0.000 C 
ATOM      9  O   UNL     1       5.188   5.545  19.438  0.00  0.00    +0.000 OA
ATOM     10  H   UNL     1       2.525   4.946  17.779  0.00  0.00    +0.000 HD
BRANCH   8  11
ATOM     11  C   UNL     1       4.774   3.788  17.883  0.00  0.00    +0.000 C 
BRANCH  11  12
ATOM     12  C   UNL     1       5.565   4.143  16.648  0.00  0.00    +0.000 A 
ATOM     13  C   UNL     1       4.968   4.066  15.382  0.00  0.00    +0.000 A 
ATOM     14  C   UNL     1       5.677   4.451  14.241  0.00  0.00    +0.000 A 
ATOM     15  C   UNL     1       6.984   4.916  14.358  0.00  0.00    +0.000 A 
ATOM     16 CL   UNL     1       7.841   5.413  12.952  0.00  0.00    +0.000 Cl
ATOM     17  C   UNL     1       7.595   4.991  15.607  0.00  0.00    +0.000 A 
ATOM     18  C   UNL     1       6.886   4.606  16.749  0.00  0.00    +0.000 A 
ENDBRANCH  11  12
ENDBRANCH   8  11
ENDBRANCH   3   7
BRANCH   1  19
ATOM     19  C   UNL     1       1.322  10.010  18.565  0.00  0.00    +0.000 C 
ATOM     20  O   UNL     1       2.192  10.419  17.797  0.00  0.00    +0.000 OA
BRANCH  19  23
ATOM     21  N   UNL     1      -1.300  12.373  19.596  0.00  0.00    +0.000 N 
ATOM     22  C   UNL     1      -0.012  11.897  19.674  0.00  0.00    +0.000 A 
ATOM     23  C   UNL     1       0.124  10.807  18.833  0.00  0.00    +0.000 A 
ATOM     24  C   UNL     1      -1.157  10.625  18.207  0.00  0.00    +0.000 A 
ATOM     25  C   UNL     1      -1.643   9.719  17.244  0.00  0.00    +0.000 A 
ATOM     26  N   UNL     1      -2.929   9.779  16.812  0.00  0.00    +0.000 NA
ATOM     27  C   UNL     1      -3.737  10.725  17.332  0.00  0.00    +0.000 A 
ATOM     28  C   UNL     1      -3.348  11.657  18.278  0.00  0.00    +0.000 A 
ATOM     29  F   UNL     1      -4.225  12.562  18.738  0.00  0.00    +0.000 F 
ATOM     30  C   UNL     1      -2.024  11.603  18.711  0.00  0.00    +0.000 A 
BRANCH  21  32
ATOM     31  C   UNL     1      -2.434  13.222  21.638  0.00  0.00    +0.000 C 
ATOM     32  C   UNL     1      -1.778  13.565  20.300  0.00  0.00    +0.000 C 
ATOM     33  C   UNL     1      -0.654  14.589  20.468  0.00  0.00    +0.000 C 
ENDBRANCH  21  32
ENDBRANCH  19  23
ENDBRANCH   1  19
TORSDOF 6
ENDMDL
MODEL 7
REMARK VINA RESULT:      -8.0      4.726     10.450
REMARK  Name = 
REMARK  8 active torsions:
REMARK  status: ('A' for Active; 'I' for Inactive)
REMARK    1  A    between atoms: C_1  and  C_2
REMARK    2  A    between atoms: C_2  and  C_3
REMARK    3  A    between atoms: C_2  and  N_4
REMARK    4  A    between atoms: C_6  and  C_7
REMARK    5  A    between atoms: C_7  and  C_9
REMARK    6  A    between atoms: C_11  and  N_12
REMARK    7  A    between atoms: C_13  and  C_15
REMARK    8  A    between atoms: C_15  and  C_16
REMARK                            x       y       z     vdW  Elec       q    Type
REMARK                         _______ _______ _______ _____ _____    ______ ____
ROOT
ATOM      1  C   UNL     1       1.626   8.566  19.040  0.00  0.00    +0.000 A 
ATOM      2  C   UNL     1       2.269   7.558  18.333  0.00  0.00    +0.000 A 
ATOM      3  C   UNL     1       2.534   6.348  18.967  0.00  0.00    +0.000 A 
ATOM      4  C   UNL     1       2.156   6.198  20.299  0.00  0.00    +0.000 A 
ATOM      5  C   UNL     1       1.497   7.248  20.923  0.00  0.00    +0.000 A 
ATOM      6  N   UNL     1       1.226   8.429  20.329  0.00  0.00    +0.000 NA
ENDROOT
BRANCH   3   7
ATOM      7  N   UNL     1       3.178   5.272  18.313  0.00  0.00    +0.000 N 
ATOM      8  C   UNL     1       4.482   4.850  18.552  0.00  0.00    +0.000 C 
ATOM      9  O   UNL     1       5.274   5.378  19.329  0.00  0.00    +0.000 OA
ATOM     10  H   UNL     1       2.678   4.833  17.550  0.00  0.00    +0.000 HD
BRANCH   8  11
ATOM     11  C   UNL     1       4.909   3.651  17.729  0.00  0.00    +0.000 C 
BRANCH  11  12
ATOM     12  C   UNL     1       5.666   4.025  16.479  0.00  0.00    +0.000 A 
ATOM     13  C   UNL     1       5.064   3.880  15.220  0.00  0.00    +0.000 A 
ATOM     14  C   UNL     1       5.737   4.282  14.063  0.00  0.00    +0.000 A 
ATOM     15  C   UNL     1       7.014   4.829  14.157  0.00  0.00    +0.000 A 
ATOM     16 CL   UNL     1       7.827   5.344  12.731  0.00  0.00    +0.000 Cl
ATOM     17  C   UNL     1       7.630   4.972  15.398  0.00  0.00    +0.000 A 
ATOM     18  C   UNL     1       6.957   4.571  16.555  0.00  0.00    +0.000 A 
ENDBRANCH  11  12
ENDBRANCH   8  11
ENDBRANCH   3   7
BRANCH   1  19
ATOM     19  C   UNL     1       1.350   9.842  18.319  0.00  0.00    +0.000 C 
ATOM     20  O   UNL     1       2.283  10.383  17.725  0.00  0.00    +0.000 OA
BRANCH  19  23
ATOM     21  N   UNL     1      -2.097  11.071  17.962  0.00  0.00    +0.000 N 
ATOM     22  C   UNL     1      -1.035  10.323  17.512  0.00  0.00    +0.000 A 
ATOM     23  C   UNL     1       0.032  10.476  18.378  0.00  0.00    +0.000 A 
ATOM     24  C   UNL     1      -0.421  11.363  19.415  0.00  0.00    +0.000 A 
ATOM     25  C   UNL     1       0.179  11.872  20.583  0.00  0.00    +0.000 A 
ATOM     26  N   UNL     1      -0.499  12.707  21.411  0.00  0.00    +0.000 NA
ATOM     27  C   UNL     1      -1.763  13.045  21.088  0.00  0.00    +0.000 A 
ATOM     28  C   UNL     1      -2.435  12.594  19.965  0.00  0.00    +0.000 A 
ATOM     29  F   UNL     1      -3.694  12.987  19.725  0.00  0.00    +0.000 F 
ATOM     30  C   UNL     1      -1.742  11.727  19.121  0.00  0.00    +0.000 A 
BRANCH  21  32
ATOM     31  C   UNL     1      -3.328  10.969  15.805  0.00  0.00    +0.000 C 
ATOM     32  C   UNL     1      -3.418  11.088  17.327  0.00  0.00    +0.000 C 
ATOM     33  C   UNL     1      -4.327  10.013  17.925  0.00  0.00    +0.000 C 
ENDBRANCH  21  32
ENDBRANCH  19  23
ENDBRANCH   1  19
TORSDOF 6
ENDMDL
MODEL 8
REMARK VINA RESULT:      -8.0      1.019      1.023
REMARK  Name = 
REMARK  8 active torsions:
REMARK  status: ('A' for Active; 'I' for Inactive)
REMARK    1  A    between atoms: C_1  and  C_2
REMARK    2  A    between atoms: C_2  and  C_3
REMARK    3  A    between atoms: C_2  and  N_4
REMARK    4  A    between atoms: C_6  and  C_7
REMARK    5  A    between atoms: C_7  and  C_9
REMARK    6  A    between atoms: C_11  and  N_12
REMARK    7  A    between atoms: C_13  and  C_15
REMARK    8  A    between atoms: C_15  and  C_16
REMARK                            x       y       z     vdW  Elec       q    Type
REMARK                         _______ _______ _______ _____ _____    ______ ____
ROOT
ATOM      1  C   UNL     1       1.638   8.598  19.242  0.00  0.00    +0.000 A 
ATOM      2  C   UNL     1       0.883   9.764  19.236  0.00  0.00    +0.000 A 
ATOM      3  C   UNL     1       0.185  10.126  20.383  0.00  0.00    +0.000 A 
ATOM      4  C   UNL     1       0.258   9.293  21.497  0.00  0.00    +0.000 A 
ATOM      5  C   UNL     1       1.055   8.159  21.426  0.00  0.00    +0.000 A 
ATOM      6  N   UNL     1       1.744   7.789  20.326  0.00  0.00    +0.000 NA
ENDROOT
BRANCH   3   7
ATOM      7  N   UNL     1      -0.600  11.300  20.457  0.00  0.00    +0.000 N 
ATOM      8  C   UNL     1      -0.197  12.500  21.035  0.00  0.00    +0.000 C 
ATOM      9  O   UNL     1       0.875  12.698  21.602  0.00  0.00    +0.000 OA
ATOM     10  H   UNL     1      -1.559  11.232  20.144  0.00  0.00    +0.000 HD
BRANCH   8  11
ATOM     11  C   UNL     1      -1.228  13.609  20.951  0.00  0.00    +0.000 C 
BRANCH  11  12
ATOM     12  C   UNL     1      -2.443  13.360  21.811  0.00  0.00    +0.000 A 
ATOM     13  C   UNL     1      -3.729  13.467  21.262  0.00  0.00    +0.000 A 
ATOM     14  C   UNL     1      -4.855  13.179  22.037  0.00  0.00    +0.000 A 
ATOM     15  C   UNL     1      -4.703  12.783  23.364  0.00  0.00    +0.000 A 
ATOM     16 CL   UNL     1      -6.092  12.405  24.304  0.00  0.00    +0.000 Cl
ATOM     17  C   UNL     1      -3.434  12.679  23.927  0.00  0.00    +0.000 A 
ATOM     18  C   UNL     1      -2.307  12.967  23.151  0.00  0.00    +0.000 A 
ENDBRANCH  11  12
ENDBRANCH   8  11
ENDBRANCH   3   7
BRANCH   1  19
ATOM     19  C   UNL     1       2.381   8.253  17.996  0.00  0.00    +0.000 C 
ATOM     20  O   UNL     1       2.225   8.978  17.012  0.00  0.00    +0.000 OA
BRANCH  19  23
ATOM     21  N   UNL     1       4.952   5.627  17.875  0.00  0.00    +0.000 N 
ATOM     22  C   UNL     1       4.589   6.953  17.929  0.00  0.00    +0.000 A 
ATOM     23  C   UNL     1       3.209   7.049  17.915  0.00  0.00    +0.000 A 
ATOM     24  C   UNL     1       2.716   5.700  17.859  0.00  0.00    +0.000 A 
ATOM     25  C   UNL     1       1.423   5.143  17.853  0.00  0.00    +0.000 A 
ATOM     26  N   UNL     1       1.241   3.798  17.801  0.00  0.00    +0.000 NA
ATOM     27  C   UNL     1       2.329   3.004  17.751  0.00  0.00    +0.000 A 
ATOM     28  C   UNL     1       3.635   3.460  17.755  0.00  0.00    +0.000 A 
ATOM     29  F   UNL     1       4.657   2.593  17.701  0.00  0.00    +0.000 F 
ATOM     30  C   UNL     1       3.822   4.841  17.820  0.00  0.00    +0.000 A 
BRANCH  21  32
ATOM     31  C   UNL     1       7.215   5.772  16.856  0.00  0.00    +0.000 C 
ATOM     32  C   UNL     1       6.336   5.153  17.944  0.00  0.00    +0.000 C 
ATOM     33  C   UNL     1       6.923   5.376  19.339  0.00  0.00    +0.000 C 
ENDBRANCH  21  32
ENDBRANCH  19  23
ENDBRANCH   1  19
TORSDOF 6
ENDMDL
MODEL 9
REMARK VINA RESULT:      -7.8      1.384      1.746
REMARK  Name = 
REMARK  8 active torsions:
REMARK  status: ('A' for Active; 'I' for Inactive)
REMARK    1  A    between atoms: C_1  and  C_2
REMARK    2  A    between atoms: C_2  and  C_3
REMARK    3  A    between atoms: C_2  and  N_4
REMARK    4  A    between atoms: C_6  and  C_7
REMARK    5  A    between atoms: C_7  and  C_9
REMARK    6  A    between atoms: C_11  and  N_12
REMARK    7  A    between atoms: C_13  and  C_15
REMARK    8  A    between atoms: C_15  and  C_16
REMARK                            x       y       z     vdW  Elec       q    Type
REMARK                         _______ _______ _______ _____ _____    ______ ____
ROOT
ATOM      1  C   UNL     1       1.867   8.290  19.186  0.00  0.00    +0.000 A 
ATOM      2  C   UNL     1       1.060   9.419  19.148  0.00  0.00    +0.000 A 
ATOM      3  C   UNL     1       0.314   9.758  20.272  0.00  0.00    +0.000 A 
ATOM      4  C   UNL     1       0.396   8.939  21.396  0.00  0.00    +0.000 A 
ATOM      5  C   UNL     1       1.246   7.843  21.357  0.00  0.00    +0.000 A 
ATOM      6  N   UNL     1       1.981   7.496  20.280  0.00  0.00    +0.000 NA
ENDROOT
BRANCH   3   7
ATOM      7  N   UNL     1      -0.525  10.896  20.314  0.00  0.00    +0.000 N 
ATOM      8  C   UNL     1      -0.106  12.211  20.137  0.00  0.00    +0.000 C 
ATOM      9  O   UNL     1       1.055  12.575  19.965  0.00  0.00    +0.000 OA
ATOM     10  H   UNL     1      -1.489  10.745  20.582  0.00  0.00    +0.000 HD
BRANCH   8  11
ATOM     11  C   UNL     1      -1.222  13.235  20.204  0.00  0.00    +0.000 C 
BRANCH  11  12
ATOM     12  C   UNL     1      -1.604  13.608  21.615  0.00  0.00    +0.000 A 
ATOM     13  C   UNL     1      -0.726  14.362  22.407  0.00  0.00    +0.000 A 
ATOM     14  C   UNL     1      -1.099  14.762  23.693  0.00  0.00    +0.000 A 
ATOM     15  C   UNL     1      -2.350  14.412  24.194  0.00  0.00    +0.000 A 
ATOM     16 CL   UNL     1      -2.814  14.930  25.767  0.00  0.00    +0.000 Cl
ATOM     17  C   UNL     1      -3.232  13.657  23.423  0.00  0.00    +0.000 A 
ATOM     18  C   UNL     1      -2.859  13.257  22.137  0.00  0.00    +0.000 A 
ENDBRANCH  11  12
ENDBRANCH   8  11
ENDBRANCH   3   7
BRANCH   1  19
ATOM     19  C   UNL     1       2.659   7.969  17.963  0.00  0.00    +0.000 C 
ATOM     20  O   UNL     1       2.602   8.755  17.017  0.00  0.00    +0.000 OA
BRANCH  19  23
ATOM     21  N   UNL     1       5.078   5.207  17.764  0.00  0.00    +0.000 N 
ATOM     22  C   UNL     1       4.789   6.550  17.833  0.00  0.00    +0.000 A 
ATOM     23  C   UNL     1       3.417   6.722  17.856  0.00  0.00    +0.000 A 
ATOM     24  C   UNL     1       2.850   5.402  17.808  0.00  0.00    +0.000 A 
ATOM     25  C   UNL     1       1.528   4.916  17.834  0.00  0.00    +0.000 A 
ATOM     26  N   UNL     1       1.271   3.583  17.783  0.00  0.00    +0.000 NA
ATOM     27  C   UNL     1       2.313   2.732  17.701  0.00  0.00    +0.000 A 
ATOM     28  C   UNL     1       3.642   3.116  17.672  0.00  0.00    +0.000 A 
ATOM     29  F   UNL     1       4.613   2.194  17.588  0.00  0.00    +0.000 F 
ATOM     30  C   UNL     1       3.905   4.484  17.737  0.00  0.00    +0.000 A 
BRANCH  21  32
ATOM     31  C   UNL     1       7.003   4.439  16.392  0.00  0.00    +0.000 C 
ATOM     32  C   UNL     1       6.436   4.657  17.795  0.00  0.00    +0.000 C 
ATOM     33  C   UNL     1       7.360   5.527  18.649  0.00  0.00    +0.000 C 
ENDBRANCH  21  32
ENDBRANCH  19  23
ENDBRANCH   1  19
TORSDOF 6
ENDMDL
