MODEL 1
REMARK VINA RESULT:      -8.3      0.000      0.000
REMARK  Name = 
REMARK  4 active torsions:
REMARK  status: ('A' for Active; 'I' for Inactive)
REMARK    1  A    between atoms: C_4  and  C_5
REMARK    2  A    between atoms: C_15  and  O_16
REMARK    3  A    between atoms: O_16  and  C_17
REMARK    4  A    between atoms: C_17  and  C_18
REMARK                            x       y       z     vdW  Elec       q    Type
REMARK                         _______ _______ _______ _____ _____    ______ ____
ROOT
ATOM      1  C   UNL     1       5.375   5.595  17.442  0.00  0.00    +0.000 A 
ATOM      2  N   UNL     1       5.302   4.771  16.404  0.00  0.00    +0.000 NA
ATOM      3  N   UNL     1       4.198   3.964  16.553  0.00  0.00    +0.000 NA
ATOM      4  C   UNL     1       3.592   4.340  17.655  0.00  0.00    +0.000 A 
ATOM      5  C   UNL     1       2.459   3.780  18.350  0.00  0.00    +0.000 A 
ATOM      6  C   UNL     1       1.979   2.493  18.087  0.00  0.00    +0.000 A 
ATOM      7  C   UNL     1       0.978   1.956  18.894  0.00  0.00    +0.000 A 
ATOM      8  C   UNL     1       0.449   2.701  19.951  0.00  0.00    +0.000 A 
ATOM      9  C   UNL     1       0.907   4.004  20.198  0.00  0.00    +0.000 A 
ATOM     10  C   UNL     1       1.918   4.543  19.395  0.00  0.00    +0.000 A 
ATOM     11  C   UNL     1       2.582   5.857  19.655  0.00  0.00    +0.000 A 
ATOM     12  N   UNL     1       3.718   6.257  19.175  0.00  0.00    +0.000 NA
ATOM     13  N   UNL     1       4.217   5.448  18.182  0.00  0.00    +0.000 N 
ENDROOT
BRANCH   1  17
ATOM     14  C   UNL     1       8.593   8.182  18.546  0.00  0.00    +0.000 A 
ATOM     15  C   UNL     1       8.453   6.926  19.135  0.00  0.00    +0.000 A 
ATOM     16  C   UNL     1       7.420   6.079  18.744  0.00  0.00    +0.000 A 
ATOM     17  C   UNL     1       6.505   6.470  17.754  0.00  0.00    +0.000 A 
ATOM     18  C   UNL     1       6.656   7.735  17.166  0.00  0.00    +0.000 A 
ATOM     19  C   UNL     1       7.693   8.585  17.560  0.00  0.00    +0.000 A 
ENDBRANCH   1  17
BRANCH  11  20
ATOM     20  O   UNL     1       1.818   6.663  20.426  0.00  0.00    +0.000 OA
BRANCH  20  21
ATOM     21  C   UNL     1       1.807   8.083  20.155  0.00  0.00    +0.000 C 
BRANCH  21  22
ATOM     22  C   UNL     1       0.891   9.039  20.885  0.00  0.00    +0.000 A 
ATOM     23  C   UNL     1       0.129  10.037  20.290  0.00  0.00    +0.000 A 
ATOM     24  N   UNL     1      -0.639  10.911  21.000  0.00  0.00    +0.000 NA
ATOM     25  C   UNL     1      -0.622  10.754  22.339  0.00  0.00    +0.000 A 
ATOM     26  C   UNL     1       0.120   9.765  22.949  0.00  0.00    +0.000 A 
ATOM     27  N   UNL     1       0.882   8.895  22.245  0.00  0.00    +0.000 NA
ENDBRANCH  21  22
ENDBRANCH  20  21
ENDBRANCH  11  20
TORSDOF 4
ENDMDL
MODEL 2
REMARK VINA RESULT:      -8.1      0.550      1.314
REMARK  Name = 
REMARK  4 active torsions:
REMARK  status: ('A' for Active; 'I' for Inactive)
REMARK    1  A    between atoms: C_4  and  C_5
REMARK    2  A    between atoms: C_15  and  O_16
REMARK    3  A    between atoms: O_16  and  C_17
REMARK    4  A    between atoms: C_17  and  C_18
REMARK                            x       y       z     vdW  Elec       q    Type
REMARK                         _______ _______ _______ _____ _____    ______ ____
ROOT
ATOM      1  C   UNL     1       5.387   5.639  17.549  0.00  0.00    +0.000 A 
ATOM      2  N   UNL     1       5.392   4.810  16.512  0.00  0.00    +0.000 NA
ATOM      3  N   UNL     1       4.312   3.965  16.613  0.00  0.00    +0.000 NA
ATOM      4  C   UNL     1       3.642   4.322  17.684  0.00  0.00    +0.000 A 
ATOM      5  C   UNL     1       2.499   3.723  18.328  0.00  0.00    +0.000 A 
ATOM      6  C   UNL     1       2.078   2.420  18.049  0.00  0.00    +0.000 A 
ATOM      7  C   UNL     1       1.060   1.849  18.811  0.00  0.00    +0.000 A 
ATOM      8  C   UNL     1       0.456   2.577  19.838  0.00  0.00    +0.000 A 
ATOM      9  C   UNL     1       0.855   3.897  20.101  0.00  0.00    +0.000 A 
ATOM     10  C   UNL     1       1.882   4.469  19.343  0.00  0.00    +0.000 A 
ATOM     11  C   UNL     1       2.486   5.807  19.629  0.00  0.00    +0.000 A 
ATOM     12  N   UNL     1       3.629   6.246  19.200  0.00  0.00    +0.000 NA
ATOM     13  N   UNL     1       4.202   5.453  18.235  0.00  0.00    +0.000 N 
ENDROOT
BRANCH   1  17
ATOM     14  C   UNL     1       8.629   8.288  18.407  0.00  0.00    +0.000 A 
ATOM     15  C   UNL     1       7.636   8.648  17.498  0.00  0.00    +0.000 A 
ATOM     16  C   UNL     1       6.568   7.791  17.251  0.00  0.00    +0.000 A 
ATOM     17  C   UNL     1       6.470   6.556  17.910  0.00  0.00    +0.000 A 
ATOM     18  C   UNL     1       7.473   6.204  18.824  0.00  0.00    +0.000 A 
ATOM     19  C   UNL     1       8.547   7.065  19.071  0.00  0.00    +0.000 A 
ENDBRANCH   1  17
BRANCH  11  20
ATOM     20  O   UNL     1       1.659   6.587  20.360  0.00  0.00    +0.000 OA
BRANCH  20  21
ATOM     21  C   UNL     1       1.776   8.024  20.248  0.00  0.00    +0.000 C 
BRANCH  21  22
ATOM     22  C   UNL     1       1.008   8.970  21.144  0.00  0.00    +0.000 A 
ATOM     23  C   UNL     1       1.133   9.050  22.525  0.00  0.00    +0.000 A 
ATOM     24  N   UNL     1       0.375   9.882  23.295  0.00  0.00    +0.000 NA
ATOM     25  C   UNL     1      -0.522  10.641  22.633  0.00  0.00    +0.000 A 
ATOM     26  C   UNL     1      -0.656  10.582  21.262  0.00  0.00    +0.000 A 
ATOM     27  N   UNL     1       0.097   9.758  20.496  0.00  0.00    +0.000 NA
ENDBRANCH  21  22
ENDBRANCH  20  21
ENDBRANCH  11  20
TORSDOF 4
ENDMDL
MODEL 3
REMARK VINA RESULT:      -7.9      0.941      1.423
REMARK  Name = 
REMARK  4 active torsions:
REMARK  status: ('A' for Active; 'I' for Inactive)
REMARK    1  A    between atoms: C_4  and  C_5
REMARK    2  A    between atoms: C_15  and  O_16
REMARK    3  A    between atoms: O_16  and  C_17
REMARK    4  A    between atoms: C_17  and  C_18
REMARK                            x       y       z     vdW  Elec       q    Type
REMARK                         _______ _______ _______ _____ _____    ______ ____
ROOT
ATOM      1  C   UNL     1       5.314   5.541  17.431  0.00  0.00    +0.000 A 
ATOM      2  N   UNL     1       5.228   4.728  16.385  0.00  0.00    +0.000 NA
ATOM      3  N   UNL     1       4.121   3.926  16.536  0.00  0.00    +0.000 NA
ATOM      4  C   UNL     1       3.526   4.293  17.646  0.00  0.00    +0.000 A 
ATOM      5  C   UNL     1       2.397   3.732  18.346  0.00  0.00    +0.000 A 
ATOM      6  C   UNL     1       1.908   2.451  18.074  0.00  0.00    +0.000 A 
ATOM      7  C   UNL     1       0.910   1.910  18.884  0.00  0.00    +0.000 A 
ATOM      8  C   UNL     1       0.395   2.647  19.953  0.00  0.00    +0.000 A 
ATOM      9  C   UNL     1       0.862   3.945  20.209  0.00  0.00    +0.000 A 
ATOM     10  C   UNL     1       1.868   4.487  19.403  0.00  0.00    +0.000 A 
ATOM     11  C   UNL     1       2.542   5.794  19.671  0.00  0.00    +0.000 A 
ATOM     12  N   UNL     1       3.676   6.194  19.185  0.00  0.00    +0.000 NA
ATOM     13  N   UNL     1       4.162   5.393  18.180  0.00  0.00    +0.000 N 
ENDROOT
BRANCH   1  17
ATOM     14  C   UNL     1       8.555   8.100  18.534  0.00  0.00    +0.000 A 
ATOM     15  C   UNL     1       8.411   6.841  19.114  0.00  0.00    +0.000 A 
ATOM     16  C   UNL     1       7.370   6.004  18.724  0.00  0.00    +0.000 A 
ATOM     17  C   UNL     1       6.452   6.407  17.742  0.00  0.00    +0.000 A 
ATOM     18  C   UNL     1       6.607   7.675  17.163  0.00  0.00    +0.000 A 
ATOM     19  C   UNL     1       7.652   8.516  17.556  0.00  0.00    +0.000 A 
ENDBRANCH   1  17
BRANCH  11  20
ATOM     20  O   UNL     1       1.789   6.596  20.457  0.00  0.00    +0.000 OA
BRANCH  20  21
ATOM     21  C   UNL     1       2.044   8.020  20.449  0.00  0.00    +0.000 C 
BRANCH  21  22
ATOM     22  C   UNL     1       1.055   9.015  19.884  0.00  0.00    +0.000 A 
ATOM     23  C   UNL     1       0.049   9.647  20.603  0.00  0.00    +0.000 A 
ATOM     24  N   UNL     1      -0.854  10.495  20.034  0.00  0.00    +0.000 NA
ATOM     25  C   UNL     1      -0.718  10.694  18.707  0.00  0.00    +0.000 A 
ATOM     26  C   UNL     1       0.278  10.083  17.976  0.00  0.00    +0.000 A 
ATOM     27  N   UNL     1       1.177   9.242  18.541  0.00  0.00    +0.000 NA
ENDBRANCH  21  22
ENDBRANCH  20  21
ENDBRANCH  11  20
TORSDOF 4
ENDMDL
MODEL 4
REMARK VINA RESULT:      -7.9      2.201      7.267
REMARK  Name = 
REMARK  4 active torsions:
REMARK  status: ('A' for Active; 'I' for Inactive)
REMARK    1  A    between atoms: C_4  and  C_5
REMARK    2  A    between atoms: C_15  and  O_16
REMARK    3  A    between atoms: O_16  and  C_17
REMARK    4  A    between atoms: C_17  and  C_18
REMARK                            x       y       z     vdW  Elec       q    Type
REMARK                         _______ _______ _______ _____ _____    ______ ____
ROOT
ATOM      1  C   UNL     1       0.959   9.774  20.229  0.00  0.00    +0.000 A 
ATOM      2  N   UNL     1       0.800   9.450  21.506  0.00  0.00    +0.000 NA
ATOM      3  N   UNL     1       1.137   8.127  21.674  0.00  0.00    +0.000 NA
ATOM      4  C   UNL     1       1.539   7.681  20.507  0.00  0.00    +0.000 A 
ATOM      5  C   UNL     1       1.902   6.353  20.075  0.00  0.00    +0.000 A 
ATOM      6  C   UNL     1       1.585   5.211  20.815  0.00  0.00    +0.000 A 
ATOM      7  C   UNL     1       1.831   3.950  20.274  0.00  0.00    +0.000 A 
ATOM      8  C   UNL     1       2.401   3.829  19.004  0.00  0.00    +0.000 A 
ATOM      9  C   UNL     1       2.749   4.973  18.271  0.00  0.00    +0.000 A 
ATOM     10  C   UNL     1       2.495   6.240  18.809  0.00  0.00    +0.000 A 
ATOM     11  C   UNL     1       2.687   7.520  18.061  0.00  0.00    +0.000 A 
ATOM     12  N   UNL     1       2.173   8.673  18.358  0.00  0.00    +0.000 NA
ATOM     13  N   UNL     1       1.572   8.711  19.594  0.00  0.00    +0.000 N 
ENDROOT
BRANCH   1  17
ATOM     14  C   UNL     1      -0.301  13.338  18.233  0.00  0.00    +0.000 A 
ATOM     15  C   UNL     1      -1.124  12.214  18.272  0.00  0.00    +0.000 A 
ATOM     16  C   UNL     1      -0.717  11.070  18.953  0.00  0.00    +0.000 A 
ATOM     17  C   UNL     1       0.523  11.027  19.610  0.00  0.00    +0.000 A 
ATOM     18  C   UNL     1       1.342  12.164  19.567  0.00  0.00    +0.000 A 
ATOM     19  C   UNL     1       0.933  13.313  18.882  0.00  0.00    +0.000 A 
ENDBRANCH   1  17
BRANCH  11  20
ATOM     20  O   UNL     1       3.547   7.376  17.028  0.00  0.00    +0.000 OA
BRANCH  20  21
ATOM     21  C   UNL     1       4.951   7.174  17.312  0.00  0.00    +0.000 C 
BRANCH  21  22
ATOM     22  C   UNL     1       5.789   6.161  16.564  0.00  0.00    +0.000 A 
ATOM     23  C   UNL     1       6.915   5.521  17.066  0.00  0.00    +0.000 A 
ATOM     24  N   UNL     1       7.670   4.656  16.331  0.00  0.00    +0.000 NA
ATOM     25  C   UNL     1       7.258   4.448  15.063  0.00  0.00    +0.000 A 
ATOM     26  C   UNL     1       6.139   5.066  14.549  0.00  0.00    +0.000 A 
ATOM     27  N   UNL     1       5.387   5.924  15.279  0.00  0.00    +0.000 NA
ENDBRANCH  21  22
ENDBRANCH  20  21
ENDBRANCH  11  20
TORSDOF 4
ENDMDL
MODEL 5
REMARK VINA RESULT:      -7.9      2.115      6.996
REMARK  Name = 
REMARK  4 active torsions:
REMARK  status: ('A' for Active; 'I' for Inactive)
REMARK    1  A    between atoms: C_4  and  C_5
REMARK    2  A    between atoms: C_15  and  O_16
REMARK    3  A    between atoms: O_16  and  C_17
REMARK    4  A    between atoms: C_17  and  C_18
REMARK                            x       y       z     vdW  Elec       q    Type
REMARK                         _______ _______ _______ _____ _____    ______ ____
ROOT
ATOM      1  C   UNL     1       0.994   9.656  20.000  0.00  0.00    +0.000 A 
ATOM      2  N   UNL     1       0.886   9.420  21.301  0.00  0.00    +0.000 NA
ATOM      3  N   UNL     1       1.267   8.122  21.551  0.00  0.00    +0.000 NA
ATOM      4  C   UNL     1       1.644   7.604  20.406  0.00  0.00    +0.000 A 
ATOM      5  C   UNL     1       2.031   6.259  20.058  0.00  0.00    +0.000 A 
ATOM      6  C   UNL     1       1.772   5.165  20.888  0.00  0.00    +0.000 A 
ATOM      7  C   UNL     1       2.038   3.876  20.430  0.00  0.00    +0.000 A 
ATOM      8  C   UNL     1       2.570   3.679  19.153  0.00  0.00    +0.000 A 
ATOM      9  C   UNL     1       2.860   4.776  18.329  0.00  0.00    +0.000 A 
ATOM     10  C   UNL     1       2.587   6.071  18.784  0.00  0.00    +0.000 A 
ATOM     11  C   UNL     1       2.717   7.298  17.941  0.00  0.00    +0.000 A 
ATOM     12  N   UNL     1       2.179   8.455  18.172  0.00  0.00    +0.000 NA
ATOM     13  N   UNL     1       1.617   8.567  19.421  0.00  0.00    +0.000 N 
ENDROOT
BRANCH   1  17
ATOM     14  C   UNL     1      -0.438  13.242  18.167  0.00  0.00    +0.000 A 
ATOM     15  C   UNL     1       0.871  13.155  18.638  0.00  0.00    +0.000 A 
ATOM     16  C   UNL     1       1.336  11.972  19.203  0.00  0.00    +0.000 A 
ATOM     17  C   UNL     1       0.501  10.848  19.309  0.00  0.00    +0.000 A 
ATOM     18  C   UNL     1      -0.813  10.945  18.830  0.00  0.00    +0.000 A 
ATOM     19  C   UNL     1      -1.280  12.135  18.263  0.00  0.00    +0.000 A 
ENDBRANCH   1  17
BRANCH  11  20
ATOM     20  O   UNL     1       3.547   7.103  16.892  0.00  0.00    +0.000 OA
BRANCH  20  21
ATOM     21  C   UNL     1       4.947   7.435  17.038  0.00  0.00    +0.000 C 
BRANCH  21  22
ATOM     22  C   UNL     1       6.018   6.377  17.187  0.00  0.00    +0.000 A 
ATOM     23  C   UNL     1       6.549   5.618  16.153  0.00  0.00    +0.000 A 
ATOM     24  N   UNL     1       7.474   4.636  16.348  0.00  0.00    +0.000 NA
ATOM     25  C   UNL     1       7.856   4.435  17.626  0.00  0.00    +0.000 A 
ATOM     26  C   UNL     1       7.348   5.182  18.666  0.00  0.00    +0.000 A 
ATOM     27  N   UNL     1       6.430   6.160  18.473  0.00  0.00    +0.000 NA
ENDBRANCH  21  22
ENDBRANCH  20  21
ENDBRANCH  11  20
TORSDOF 4
ENDMDL
MODEL 6
REMARK VINA RESULT:      -7.6      0.834      1.012
REMARK  Name = 
REMARK  4 active torsions:
REMARK  status: ('A' for Active; 'I' for Inactive)
REMARK    1  A    between atoms: C_4  and  C_5
REMARK    2  A    between atoms: C_15  and  O_16
REMARK    3  A    between atoms: O_16  and  C_17
REMARK    4  A    between atoms: C_17  and  C_18
REMARK                            x       y       z     vdW  Elec       q    Type
REMARK                         _______ _______ _______ _____ _____    ______ ____
ROOT
ATOM      1  C   UNL     1       5.607   5.483  17.342  0.00  0.00    +0.000 A 
ATOM      2  N   UNL     1       5.700   4.564  16.389  0.00  0.00    +0.000 NA
ATOM      3  N   UNL     1       4.631   3.704  16.495  0.00  0.00    +0.000 NA
ATOM      4  C   UNL     1       3.883   4.139  17.482  0.00  0.00    +0.000 A 
ATOM      5  C   UNL     1       2.710   3.573  18.101  0.00  0.00    +0.000 A 
ATOM      6  C   UNL     1       2.334   2.240  17.916  0.00  0.00    +0.000 A 
ATOM      7  C   UNL     1       1.277   1.714  18.657  0.00  0.00    +0.000 A 
ATOM      8  C   UNL     1       0.591   2.517  19.571  0.00  0.00    +0.000 A 
ATOM      9  C   UNL     1       0.945   3.865  19.737  0.00  0.00    +0.000 A 
ATOM     10  C   UNL     1       2.011   4.392  18.999  0.00  0.00    +0.000 A 
ATOM     11  C   UNL     1       2.568   5.765  19.200  0.00  0.00    +0.000 A 
ATOM     12  N   UNL     1       3.729   6.192  18.810  0.00  0.00    +0.000 NA
ATOM     13  N   UNL     1       4.382   5.330  17.962  0.00  0.00    +0.000 N 
ENDROOT
BRANCH   1  17
ATOM     14  C   UNL     1       8.549   8.342  18.544  0.00  0.00    +0.000 A 
ATOM     15  C   UNL     1       8.514   7.071  19.115  0.00  0.00    +0.000 A 
ATOM     16  C   UNL     1       7.572   6.137  18.693  0.00  0.00    +0.000 A 
ATOM     17  C   UNL     1       6.645   6.455  17.688  0.00  0.00    +0.000 A 
ATOM     18  C   UNL     1       6.690   7.735  17.118  0.00  0.00    +0.000 A 
ATOM     19  C   UNL     1       7.636   8.673  17.543  0.00  0.00    +0.000 A 
ENDBRANCH   1  17
BRANCH  11  20
ATOM     20  O   UNL     1       1.679   6.587  19.800  0.00  0.00    +0.000 OA
BRANCH  20  21
ATOM     21  C   UNL     1       2.102   7.917  20.179  0.00  0.00    +0.000 C 
BRANCH  21  22
ATOM     22  C   UNL     1       1.227   9.133  19.974  0.00  0.00    +0.000 A 
ATOM     23  C   UNL     1       0.802   9.621  18.746  0.00  0.00    +0.000 A 
ATOM     24  N   UNL     1       0.059  10.757  18.612  0.00  0.00    +0.000 NA
ATOM     25  C   UNL     1      -0.249  11.396  19.759  0.00  0.00    +0.000 A 
ATOM     26  C   UNL     1       0.156  10.924  20.989  0.00  0.00    +0.000 A 
ATOM     27  N   UNL     1       0.892   9.795  21.123  0.00  0.00    +0.000 NA
ENDBRANCH  21  22
ENDBRANCH  20  21
ENDBRANCH  11  20
TORSDOF 4
ENDMDL
MODEL 7
REMARK VINA RESULT:      -7.6      7.148     10.626
REMARK  Name = 
REMARK  4 active torsions:
REMARK  status: ('A' for Active; 'I' for Inactive)
REMARK    1  A    between atoms: C_4  and  C_5
REMARK    2  A    between atoms: C_15  and  O_16
REMARK    3  A    between atoms: O_16  and  C_17
REMARK    4  A    between atoms: C_17  and  C_18
REMARK                            x       y       z     vdW  Elec       q    Type
REMARK                         _______ _______ _______ _____ _____    ______ ____
ROOT
ATOM      1  C   UNL     1      -5.349  11.454  18.209  0.00  0.00    +0.000 A 
ATOM      2  N   UNL     1      -6.654  11.391  17.969  0.00  0.00    +0.000 NA
ATOM      3  N   UNL     1      -7.333  11.753  19.109  0.00  0.00    +0.000 NA
ATOM      4  C   UNL     1      -6.434  12.074  20.008  0.00  0.00    +0.000 A 
ATOM      5  C   UNL     1      -6.571  12.418  21.402  0.00  0.00    +0.000 A 
ATOM      6  C   UNL     1      -7.740  12.168  22.126  0.00  0.00    +0.000 A 
ATOM      7  C   UNL     1      -7.758  12.387  23.502  0.00  0.00    +0.000 A 
ATOM      8  C   UNL     1      -6.618  12.866  24.153  0.00  0.00    +0.000 A 
ATOM      9  C   UNL     1      -5.452  13.148  23.425  0.00  0.00    +0.000 A 
ATOM     10  C   UNL     1      -5.430  12.920  22.045  0.00  0.00    +0.000 A 
ATOM     11  C   UNL     1      -4.205  13.045  21.197  0.00  0.00    +0.000 A 
ATOM     12  N   UNL     1      -4.029  12.541  20.015  0.00  0.00    +0.000 NA
ATOM     13  N   UNL     1      -5.174  12.030  19.453  0.00  0.00    +0.000 N 
ENDROOT
BRANCH   1  17
ATOM     14  C   UNL     1      -2.420   9.887  15.520  0.00  0.00    +0.000 A 
ATOM     15  C   UNL     1      -3.456  10.693  15.054  0.00  0.00    +0.000 A 
ATOM     16  C   UNL     1      -4.386  11.225  15.943  0.00  0.00    +0.000 A 
ATOM     17  C   UNL     1      -4.297  10.961  17.319  0.00  0.00    +0.000 A 
ATOM     18  C   UNL     1      -3.249  10.151  17.778  0.00  0.00    +0.000 A 
ATOM     19  C   UNL     1      -2.316   9.616  16.884  0.00  0.00    +0.000 A 
ENDBRANCH   1  17
BRANCH  11  20
ATOM     20  O   UNL     1      -3.269  13.830  21.776  0.00  0.00    +0.000 OA
BRANCH  20  21
ATOM     21  C   UNL     1      -1.872  13.509  21.582  0.00  0.00    +0.000 C 
BRANCH  21  22
ATOM     22  C   UNL     1      -1.308  12.138  21.878  0.00  0.00    +0.000 A 
ATOM     23  C   UNL     1      -1.303  11.521  23.123  0.00  0.00    +0.000 A 
ATOM     24  N   UNL     1      -0.731  10.305  23.349  0.00  0.00    +0.000 NA
ATOM     25  C   UNL     1      -0.157   9.717  22.279  0.00  0.00    +0.000 A 
ATOM     26  C   UNL     1      -0.159  10.308  21.034  0.00  0.00    +0.000 A 
ATOM     27  N   UNL     1      -0.728  11.515  20.807  0.00  0.00    +0.000 NA
ENDBRANCH  21  22
ENDBRANCH  20  21
ENDBRANCH  11  20
TORSDOF 4
ENDMDL
MODEL 8
REMARK VINA RESULT:      -7.6      0.773      1.524
REMARK  Name = 
REMARK  4 active torsions:
REMARK  status: ('A' for Active; 'I' for Inactive)
REMARK    1  A    between atoms: C_4  and  C_5
REMARK    2  A    between atoms: C_15  and  O_16
REMARK    3  A    between atoms: O_16  and  C_17
REMARK    4  A    between atoms: C_17  and  C_18
REMARK                            x       y       z     vdW  Elec       q    Type
REMARK                         _______ _______ _______ _____ _____    ______ ____
ROOT
ATOM      1  C   UNL     1       5.428   5.586  17.513  0.00  0.00    +0.000 A 
ATOM      2  N   UNL     1       5.472   4.749  16.484  0.00  0.00    +0.000 NA
ATOM      3  N   UNL     1       4.403   3.887  16.566  0.00  0.00    +0.000 NA
ATOM      4  C   UNL     1       3.702   4.241  17.617  0.00  0.00    +0.000 A 
ATOM      5  C   UNL     1       2.553   3.629  18.239  0.00  0.00    +0.000 A 
ATOM      6  C   UNL     1       2.161   2.317  17.960  0.00  0.00    +0.000 A 
ATOM      7  C   UNL     1       1.134   1.735  18.702  0.00  0.00    +0.000 A 
ATOM      8  C   UNL     1       0.494   2.461  19.708  0.00  0.00    +0.000 A 
ATOM      9  C   UNL     1       0.865   3.789  19.970  0.00  0.00    +0.000 A 
ATOM     10  C   UNL     1       1.900   4.373  19.232  0.00  0.00    +0.000 A 
ATOM     11  C   UNL     1       2.475   5.722  19.521  0.00  0.00    +0.000 A 
ATOM     12  N   UNL     1       3.620   6.177  19.116  0.00  0.00    +0.000 NA
ATOM     13  N   UNL     1       4.230   5.386  18.172  0.00  0.00    +0.000 N 
ENDROOT
BRANCH   1  17
ATOM     14  C   UNL     1       8.604   8.297  18.426  0.00  0.00    +0.000 A 
ATOM     15  C   UNL     1       7.622   8.636  17.498  0.00  0.00    +0.000 A 
ATOM     16  C   UNL     1       6.574   7.759  17.232  0.00  0.00    +0.000 A 
ATOM     17  C   UNL     1       6.486   6.523  17.892  0.00  0.00    +0.000 A 
ATOM     18  C   UNL     1       7.478   6.192  18.826  0.00  0.00    +0.000 A 
ATOM     19  C   UNL     1       8.531   7.074  19.092  0.00  0.00    +0.000 A 
ENDBRANCH   1  17
BRANCH  11  20
ATOM     20  O   UNL     1       1.618   6.495  20.225  0.00  0.00    +0.000 OA
BRANCH  20  21
ATOM     21  C   UNL     1       1.982   7.866  20.505  0.00  0.00    +0.000 C 
BRANCH  21  22
ATOM     22  C   UNL     1       1.034   9.019  20.266  0.00  0.00    +0.000 A 
ATOM     23  C   UNL     1       0.195   9.582  21.219  0.00  0.00    +0.000 A 
ATOM     24  N   UNL     1      -0.684  10.586  20.939  0.00  0.00    +0.000 NA
ATOM     25  C   UNL     1      -0.697  11.014  19.660  0.00  0.00    +0.000 A 
ATOM     26  C   UNL     1       0.132  10.475  18.701  0.00  0.00    +0.000 A 
ATOM     27  N   UNL     1       1.007   9.479  18.978  0.00  0.00    +0.000 NA
ENDBRANCH  21  22
ENDBRANCH  20  21
ENDBRANCH  11  20
TORSDOF 4
ENDMDL
MODEL 9
REMARK VINA RESULT:      -7.5      2.288      7.255
REMARK  Name = 
REMARK  4 active torsions:
REMARK  status: ('A' for Active; 'I' for Inactive)
REMARK    1  A    between atoms: C_4  and  C_5
REMARK    2  A    between atoms: C_15  and  O_16
REMARK    3  A    between atoms: O_16  and  C_17
REMARK    4  A    between atoms: C_17  and  C_18
REMARK                            x       y       z     vdW  Elec       q    Type
REMARK                         _______ _______ _______ _____ _____    ______ ____
ROOT
ATOM      1  C   UNL     1       0.614   9.675  19.602  0.00  0.00    +0.000 A 
ATOM      2  N   UNL     1       0.657  10.135  18.357  0.00  0.00    +0.000 NA
ATOM      3  N   UNL     1       1.565   9.392  17.639  0.00  0.00    +0.000 NA
ATOM      4  C   UNL     1       2.027   8.465  18.445  0.00  0.00    +0.000 A 
ATOM      5  C   UNL     1       3.071   7.487  18.262  0.00  0.00    +0.000 A 
ATOM      6  C   UNL     1       4.007   7.573  17.227  0.00  0.00    +0.000 A 
ATOM      7  C   UNL     1       5.078   6.682  17.192  0.00  0.00    +0.000 A 
ATOM      8  C   UNL     1       5.210   5.701  18.178  0.00  0.00    +0.000 A 
ATOM      9  C   UNL     1       4.256   5.592  19.201  0.00  0.00    +0.000 A 
ATOM     10  C   UNL     1       3.184   6.491  19.243  0.00  0.00    +0.000 A 
ATOM     11  C   UNL     1       2.195   6.562  20.362  0.00  0.00    +0.000 A 
ATOM     12  N   UNL     1       1.404   7.553  20.632  0.00  0.00    +0.000 NA
ATOM     13  N   UNL     1       1.365   8.516  19.652  0.00  0.00    +0.000 N 
ENDROOT
BRANCH   1  17
ATOM     14  C   UNL     1      -1.250  11.687  22.879  0.00  0.00    +0.000 A 
ATOM     15  C   UNL     1      -1.165  12.292  21.627  0.00  0.00    +0.000 A 
ATOM     16  C   UNL     1      -0.585  11.614  20.559  0.00  0.00    +0.000 A 
ATOM     17  C   UNL     1      -0.078  10.315  20.721  0.00  0.00    +0.000 A 
ATOM     18  C   UNL     1      -0.170   9.715  21.985  0.00  0.00    +0.000 A 
ATOM     19  C   UNL     1      -0.752  10.397  23.058  0.00  0.00    +0.000 A 
ENDBRANCH   1  17
BRANCH  11  20
ATOM     20  O   UNL     1       2.149   5.409  21.067  0.00  0.00    +0.000 OA
BRANCH  20  21
ATOM     21  C   UNL     1       1.475   4.266  20.493  0.00  0.00    +0.000 C 
BRANCH  21  22
ATOM     22  C   UNL     1       2.206   3.218  19.684  0.00  0.00    +0.000 A 
ATOM     23  C   UNL     1       3.259   2.437  20.143  0.00  0.00    +0.000 A 
ATOM     24  N   UNL     1       3.923   1.544  19.356  0.00  0.00    +0.000 NA
ATOM     25  C   UNL     1       3.496   1.455  18.080  0.00  0.00    +0.000 A 
ATOM     26  C   UNL     1       2.448   2.215  17.606  0.00  0.00    +0.000 A 
ATOM     27  N   UNL     1       1.786   3.101  18.388  0.00  0.00    +0.000 NA
ENDBRANCH  21  22
ENDBRANCH  20  21
ENDBRANCH  11  20
TORSDOF 4
ENDMDL
