MODEL 1
REMARK VINA RESULT:      -6.2      0.000      0.000
REMARK  Name = 
REMARK  3 active torsions:
REMARK  status: ('A' for Active; 'I' for Inactive)
REMARK    1  A    between atoms: C_2  and  O_3
REMARK    2  A    between atoms: C_2  and  C_4
REMARK    3  A    between atoms: N_6  and  C_7
REMARK                            x       y       z     vdW  Elec       q    Type
REMARK                         _______ _______ _______ _____ _____    ______ ____
ROOT
ATOM      1  C   UNL     1       6.073   4.411  18.038  0.00  0.00    +0.000 C 
ATOM      2  O   UNL     1       6.084   4.669  19.237  0.00  0.00    +0.000 OA
ATOM      3  N   UNL     1       5.084   3.854  17.259  0.00  0.00    +0.000 N 
ATOM      4  H   UNL     1       5.349   3.623  16.305  0.00  0.00    +0.000 HD
ENDROOT
BRANCH   3   5
ATOM      5  C   UNL     1       3.787   3.510  17.688  0.00  0.00    +0.000 A 
ATOM      6  C   UNL     1       2.704   4.388  17.601  0.00  0.00    +0.000 A 
ATOM      7  C   UNL     1       1.443   4.006  18.062  0.00  0.00    +0.000 A 
ATOM      8  C   UNL     1       1.253   2.744  18.615  0.00  0.00    +0.000 A 
ATOM      9  C   UNL     1       2.323   1.854  18.692  0.00  0.00    +0.000 A 
ATOM     10  C   UNL     1       3.584   2.231  18.216  0.00  0.00    +0.000 A 
ENDBRANCH   3   5
BRANCH   1  12
ATOM     11  O   UNL     1       7.433   5.452  16.328  0.00  0.00    +0.000 OA
ATOM     12  C   UNL     1       7.378   4.697  17.278  0.00  0.00    +0.000 C 
BRANCH  12  13
ATOM     13  O   UNL     1       8.397   3.996  17.808  0.00  0.00    +0.000 OA
ATOM     14  H   UNL     1       8.796   3.440  17.095  0.00  0.00    +0.000 HD
ENDBRANCH  12  13
ENDBRANCH   1  12
TORSDOF 3
ENDMDL
MODEL 2
REMARK VINA RESULT:      -6.1      0.392      1.438
REMARK  Name = 
REMARK  3 active torsions:
REMARK  status: ('A' for Active; 'I' for Inactive)
REMARK    1  A    between atoms: C_2  and  O_3
REMARK    2  A    between atoms: C_2  and  C_4
REMARK    3  A    between atoms: N_6  and  C_7
REMARK                            x       y       z     vdW  Elec       q    Type
REMARK                         _______ _______ _______ _____ _____    ______ ____
ROOT
ATOM      1  C   UNL     1       6.000   4.586  17.718  0.00  0.00    +0.000 C 
ATOM      2  O   UNL     1       5.841   5.410  18.612  0.00  0.00    +0.000 OA
ATOM      3  N   UNL     1       5.160   3.592  17.269  0.00  0.00    +0.000 N 
ATOM      4  H   UNL     1       5.560   2.948  16.591  0.00  0.00    +0.000 HD
ENDROOT
BRANCH   3   5
ATOM      5  C   UNL     1       3.849   3.347  17.721  0.00  0.00    +0.000 A 
ATOM      6  C   UNL     1       3.477   2.160  18.356  0.00  0.00    +0.000 A 
ATOM      7  C   UNL     1       2.157   1.958  18.765  0.00  0.00    +0.000 A 
ATOM      8  C   UNL     1       1.197   2.940  18.540  0.00  0.00    +0.000 A 
ATOM      9  C   UNL     1       1.562   4.135  17.922  0.00  0.00    +0.000 A 
ATOM     10  C   UNL     1       2.887   4.344  17.526  0.00  0.00    +0.000 A 
ENDBRANCH   3   5
BRANCH   1  12
ATOM     11  O   UNL     1       7.528   5.111  15.916  0.00  0.00    +0.000 OA
ATOM     12  C   UNL     1       7.365   4.615  17.014  0.00  0.00    +0.000 C 
BRANCH  12  13
ATOM     13  O   UNL     1       8.303   4.019  17.773  0.00  0.00    +0.000 OA
ATOM     14  H   UNL     1       8.043   4.115  18.721  0.00  0.00    +0.000 HD
ENDBRANCH  12  13
ENDBRANCH   1  12
TORSDOF 3
ENDMDL
MODEL 3
REMARK VINA RESULT:      -6.0      1.089      1.976
REMARK  Name = 
REMARK  3 active torsions:
REMARK  status: ('A' for Active; 'I' for Inactive)
REMARK    1  A    between atoms: C_2  and  O_3
REMARK    2  A    between atoms: C_2  and  C_4
REMARK    3  A    between atoms: N_6  and  C_7
REMARK                            x       y       z     vdW  Elec       q    Type
REMARK                         _______ _______ _______ _____ _____    ______ ____
ROOT
ATOM      1  C   UNL     1       5.774   4.226  16.277  0.00  0.00    +0.000 C 
ATOM      2  O   UNL     1       5.238   4.064  15.186  0.00  0.00    +0.000 OA
ATOM      3  N   UNL     1       5.263   4.079  17.547  0.00  0.00    +0.000 N 
ATOM      4  H   UNL     1       5.866   4.388  18.305  0.00  0.00    +0.000 HD
ENDROOT
BRANCH   3   5
ATOM      5  C   UNL     1       3.972   3.622  17.873  0.00  0.00    +0.000 A 
ATOM      6  C   UNL     1       3.724   2.334  18.353  0.00  0.00    +0.000 A 
ATOM      7  C   UNL     1       2.421   1.922  18.640  0.00  0.00    +0.000 A 
ATOM      8  C   UNL     1       1.354   2.793  18.446  0.00  0.00    +0.000 A 
ATOM      9  C   UNL     1       1.591   4.085  17.982  0.00  0.00    +0.000 A 
ATOM     10  C   UNL     1       2.898   4.504  17.709  0.00  0.00    +0.000 A 
ENDBRANCH   3   5
BRANCH   1  12
ATOM     11  O   UNL     1       7.618   5.559  15.453  0.00  0.00    +0.000 OA
ATOM     12  C   UNL     1       7.227   4.724  16.244  0.00  0.00    +0.000 C 
BRANCH  12  13
ATOM     13  O   UNL     1       7.963   4.102  17.184  0.00  0.00    +0.000 OA
ATOM     14  H   UNL     1       7.494   3.273  17.447  0.00  0.00    +0.000 HD
ENDBRANCH  12  13
ENDBRANCH   1  12
TORSDOF 3
ENDMDL
MODEL 4
REMARK VINA RESULT:      -5.9      1.199      1.750
REMARK  Name = 
REMARK  3 active torsions:
REMARK  status: ('A' for Active; 'I' for Inactive)
REMARK    1  A    between atoms: C_2  and  O_3
REMARK    2  A    between atoms: C_2  and  C_4
REMARK    3  A    between atoms: N_6  and  C_7
REMARK                            x       y       z     vdW  Elec       q    Type
REMARK                         _______ _______ _______ _____ _____    ______ ____
ROOT
ATOM      1  C   UNL     1       5.744   4.284  16.122  0.00  0.00    +0.000 C 
ATOM      2  O   UNL     1       5.172   4.323  15.037  0.00  0.00    +0.000 OA
ATOM      3  N   UNL     1       5.244   4.029  17.379  0.00  0.00    +0.000 N 
ATOM      4  H   UNL     1       5.892   4.171  18.150  0.00  0.00    +0.000 HD
ENDROOT
BRANCH   3   5
ATOM      5  C   UNL     1       3.917   3.674  17.687  0.00  0.00    +0.000 A 
ATOM      6  C   UNL     1       2.873   4.602  17.716  0.00  0.00    +0.000 A 
ATOM      7  C   UNL     1       1.577   4.202  18.050  0.00  0.00    +0.000 A 
ATOM      8  C   UNL     1       1.315   2.871  18.361  0.00  0.00    +0.000 A 
ATOM      9  C   UNL     1       2.346   1.935  18.320  0.00  0.00    +0.000 A 
ATOM     10  C   UNL     1       3.641   2.332  17.970  0.00  0.00    +0.000 A 
ENDBRANCH   3   5
BRANCH   1  12
ATOM     11  O   UNL     1       7.991   4.342  17.017  0.00  0.00    +0.000 OA
ATOM     12  C   UNL     1       7.242   4.624  16.103  0.00  0.00    +0.000 C 
BRANCH  12  13
ATOM     13  O   UNL     1       7.568   5.265  14.965  0.00  0.00    +0.000 OA
ATOM     14  H   UNL     1       7.373   4.666  14.204  0.00  0.00    +0.000 HD
ENDBRANCH  12  13
ENDBRANCH   1  12
TORSDOF 3
ENDMDL
MODEL 5
REMARK VINA RESULT:      -5.8      1.797      2.264
REMARK  Name = 
REMARK  3 active torsions:
REMARK  status: ('A' for Active; 'I' for Inactive)
REMARK    1  A    between atoms: C_2  and  O_3
REMARK    2  A    between atoms: C_2  and  C_4
REMARK    3  A    between atoms: N_6  and  C_7
REMARK                            x       y       z     vdW  Elec       q    Type
REMARK                         _______ _______ _______ _____ _____    ______ ____
ROOT
ATOM      1  C   UNL     1       6.309   4.835  18.752  0.00  0.00    +0.000 C 
ATOM      2  O   UNL     1       6.772   5.261  19.804  0.00  0.00    +0.000 OA
ATOM      3  N   UNL     1       5.086   4.259  18.490  0.00  0.00    +0.000 N 
ATOM      4  H   UNL     1       4.971   3.870  17.558  0.00  0.00    +0.000 HD
ENDROOT
BRANCH   3   5
ATOM      5  C   UNL     1       4.033   4.096  19.410  0.00  0.00    +0.000 A 
ATOM      6  C   UNL     1       3.760   2.879  20.040  0.00  0.00    +0.000 A 
ATOM      7  C   UNL     1       2.689   2.764  20.928  0.00  0.00    +0.000 A 
ATOM      8  C   UNL     1       1.879   3.863  21.192  0.00  0.00    +0.000 A 
ATOM      9  C   UNL     1       2.152   5.086  20.582  0.00  0.00    +0.000 A 
ATOM     10  C   UNL     1       3.235   5.206  19.704  0.00  0.00    +0.000 A 
ENDBRANCH   3   5
BRANCH   1  12
ATOM     11  O   UNL     1       7.041   5.620  16.583  0.00  0.00    +0.000 OA
ATOM     12  C   UNL     1       7.245   4.892  17.535  0.00  0.00    +0.000 C 
BRANCH  12  13
ATOM     13  O   UNL     1       8.272   4.036  17.686  0.00  0.00    +0.000 OA
ATOM     14  H   UNL     1       8.355   3.817  18.646  0.00  0.00    +0.000 HD
ENDBRANCH  12  13
ENDBRANCH   1  12
TORSDOF 3
ENDMDL
MODEL 6
REMARK VINA RESULT:      -5.8      1.278      1.729
REMARK  Name = 
REMARK  3 active torsions:
REMARK  status: ('A' for Active; 'I' for Inactive)
REMARK    1  A    between atoms: C_2  and  O_3
REMARK    2  A    between atoms: C_2  and  C_4
REMARK    3  A    between atoms: N_6  and  C_7
REMARK                            x       y       z     vdW  Elec       q    Type
REMARK                         _______ _______ _______ _____ _____    ______ ____
ROOT
ATOM      1  C   UNL     1       5.554   4.466  17.054  0.00  0.00    +0.000 C 
ATOM      2  O   UNL     1       4.897   5.145  16.271  0.00  0.00    +0.000 OA
ATOM      3  N   UNL     1       5.146   3.700  18.122  0.00  0.00    +0.000 N 
ATOM      4  H   UNL     1       5.888   3.321  18.704  0.00  0.00    +0.000 HD
ENDROOT
BRANCH   3   5
ATOM      5  C   UNL     1       3.814   3.469  18.515  0.00  0.00    +0.000 A 
ATOM      6  C   UNL     1       3.047   2.416  18.009  0.00  0.00    +0.000 A 
ATOM      7  C   UNL     1       1.722   2.244  18.415  0.00  0.00    +0.000 A 
ATOM      8  C   UNL     1       1.151   3.125  19.328  0.00  0.00    +0.000 A 
ATOM      9  C   UNL     1       1.911   4.169  19.851  0.00  0.00    +0.000 A 
ATOM     10  C   UNL     1       3.244   4.333  19.457  0.00  0.00    +0.000 A 
ENDBRANCH   3   5
BRANCH   1  12
ATOM     11  O   UNL     1       7.600   4.761  15.795  0.00  0.00    +0.000 OA
ATOM     12  C   UNL     1       7.078   4.509  16.863  0.00  0.00    +0.000 C 
BRANCH  12  13
ATOM     13  O   UNL     1       7.708   4.224  18.018  0.00  0.00    +0.000 OA
ATOM     14  H   UNL     1       7.795   5.059  18.539  0.00  0.00    +0.000 HD
ENDBRANCH  12  13
ENDBRANCH   1  12
TORSDOF 3
ENDMDL
MODEL 7
REMARK VINA RESULT:      -5.8      1.401      1.602
REMARK  Name = 
REMARK  3 active torsions:
REMARK  status: ('A' for Active; 'I' for Inactive)
REMARK    1  A    between atoms: C_2  and  O_3
REMARK    2  A    between atoms: C_2  and  C_4
REMARK    3  A    between atoms: N_6  and  C_7
REMARK                            x       y       z     vdW  Elec       q    Type
REMARK                         _______ _______ _______ _____ _____    ______ ____
ROOT
ATOM      1  C   UNL     1       5.872   4.537  17.832  0.00  0.00    +0.000 C 
ATOM      2  O   UNL     1       5.290   5.220  16.996  0.00  0.00    +0.000 OA
ATOM      3  N   UNL     1       5.367   3.740  18.834  0.00  0.00    +0.000 N 
ATOM      4  H   UNL     1       6.050   3.361  19.486  0.00  0.00    +0.000 HD
ENDROOT
BRANCH   3   5
ATOM      5  C   UNL     1       4.005   3.475  19.075  0.00  0.00    +0.000 A 
ATOM      6  C   UNL     1       3.205   4.295  19.876  0.00  0.00    +0.000 A 
ATOM      7  C   UNL     1       1.865   3.976  20.102  0.00  0.00    +0.000 A 
ATOM      8  C   UNL     1       1.313   2.833  19.533  0.00  0.00    +0.000 A 
ATOM      9  C   UNL     1       2.097   2.017  18.719  0.00  0.00    +0.000 A 
ATOM     10  C   UNL     1       3.436   2.345  18.480  0.00  0.00    +0.000 A 
ENDBRANCH   3   5
BRANCH   1  12
ATOM     11  O   UNL     1       8.071   4.791  18.811  0.00  0.00    +0.000 OA
ATOM     12  C   UNL     1       7.407   4.612  17.809  0.00  0.00    +0.000 C 
BRANCH  12  13
ATOM     13  O   UNL     1       7.869   4.465  16.554  0.00  0.00    +0.000 OA
ATOM     14  H   UNL     1       8.793   4.814  16.520  0.00  0.00    +0.000 HD
ENDBRANCH  12  13
ENDBRANCH   1  12
TORSDOF 3
ENDMDL
MODEL 8
REMARK VINA RESULT:      -5.8      1.375      1.789
REMARK  Name = 
REMARK  3 active torsions:
REMARK  status: ('A' for Active; 'I' for Inactive)
REMARK    1  A    between atoms: C_2  and  O_3
REMARK    2  A    between atoms: C_2  and  C_4
REMARK    3  A    between atoms: N_6  and  C_7
REMARK                            x       y       z     vdW  Elec       q    Type
REMARK                         _______ _______ _______ _____ _____    ______ ____
ROOT
ATOM      1  C   UNL     1       5.915   4.660  17.965  0.00  0.00    +0.000 C 
ATOM      2  O   UNL     1       5.371   5.529  17.292  0.00  0.00    +0.000 OA
ATOM      3  N   UNL     1       5.365   3.656  18.729  0.00  0.00    +0.000 N 
ATOM      4  H   UNL     1       6.019   3.125  19.299  0.00  0.00    +0.000 HD
ENDROOT
BRANCH   3   5
ATOM      5  C   UNL     1       3.993   3.362  18.848  0.00  0.00    +0.000 A 
ATOM      6  C   UNL     1       3.347   2.427  18.035  0.00  0.00    +0.000 A 
ATOM      7  C   UNL     1       1.979   2.188  18.178  0.00  0.00    +0.000 A 
ATOM      8  C   UNL     1       1.244   2.884  19.133  0.00  0.00    +0.000 A 
ATOM      9  C   UNL     1       1.882   3.807  19.959  0.00  0.00    +0.000 A 
ATOM     10  C   UNL     1       3.256   4.035  19.827  0.00  0.00    +0.000 A 
ENDBRANCH   3   5
BRANCH   1  12
ATOM     11  O   UNL     1       8.060   5.028  19.024  0.00  0.00    +0.000 OA
ATOM     12  C   UNL     1       7.449   4.717  18.020  0.00  0.00    +0.000 C 
BRANCH  12  13
ATOM     13  O   UNL     1       7.979   4.393  16.826  0.00  0.00    +0.000 OA
ATOM     14  H   UNL     1       7.253   4.387  16.155  0.00  0.00    +0.000 HD
ENDBRANCH  12  13
ENDBRANCH   1  12
TORSDOF 3
ENDMDL
MODEL 9
REMARK VINA RESULT:      -5.8      1.336      1.660
REMARK  Name = 
REMARK  3 active torsions:
REMARK  status: ('A' for Active; 'I' for Inactive)
REMARK    1  A    between atoms: C_2  and  O_3
REMARK    2  A    between atoms: C_2  and  C_4
REMARK    3  A    between atoms: N_6  and  C_7
REMARK                            x       y       z     vdW  Elec       q    Type
REMARK                         _______ _______ _______ _____ _____    ______ ____
ROOT
ATOM      1  C   UNL     1       5.928   4.691  18.193  0.00  0.00    +0.000 C 
ATOM      2  O   UNL     1       5.351   5.751  17.974  0.00  0.00    +0.000 OA
ATOM      3  N   UNL     1       5.432   3.489  18.645  0.00  0.00    +0.000 N 
ATOM      4  H   UNL     1       6.126   2.780  18.867  0.00  0.00    +0.000 HD
ENDROOT
BRANCH   3   5
ATOM      5  C   UNL     1       4.079   3.193  18.897  0.00  0.00    +0.000 A 
ATOM      6  C   UNL     1       3.583   2.955  20.181  0.00  0.00    +0.000 A 
ATOM      7  C   UNL     1       2.236   2.642  20.375  0.00  0.00    +0.000 A 
ATOM      8  C   UNL     1       1.373   2.562  19.286  0.00  0.00    +0.000 A 
ATOM      9  C   UNL     1       1.854   2.814  18.003  0.00  0.00    +0.000 A 
ATOM     10  C   UNL     1       3.200   3.142  17.809  0.00  0.00    +0.000 A 
ENDBRANCH   3   5
BRANCH   1  12
ATOM     11  O   UNL     1       7.974   4.405  16.933  0.00  0.00    +0.000 OA
ATOM     12  C   UNL     1       7.450   4.701  17.989  0.00  0.00    +0.000 C 
BRANCH  12  13
ATOM     13  O   UNL     1       8.078   5.062  19.124  0.00  0.00    +0.000 OA
ATOM     14  H   UNL     1       9.044   5.141  18.933  0.00  0.00    +0.000 HD
ENDBRANCH  12  13
ENDBRANCH   1  12
TORSDOF 3
ENDMDL
