MODEL 1
REMARK VINA RESULT:      -7.2      0.000      0.000
REMARK  Name = 
REMARK  16 active torsions:
REMARK  status: ('A' for Active; 'I' for Inactive)
REMARK    1  A    between atoms: C_1  and  C_2
REMARK    2  A    between atoms: C_2  and  C_3
REMARK    3  A    between atoms: C_4  and  C_5
REMARK    4  A    between atoms: C_5  and  C_6
REMARK    5  A    between atoms: C_6  and  C_7
REMARK    6  A    between atoms: C_7  and  C_8
REMARK    7  A    between atoms: C_9  and  C_10
REMARK    8  A    between atoms: C_10  and  C_11
REMARK    9  A    between atoms: C_11  and  C_12
REMARK   10  A    between atoms: C_12  and  C_13
REMARK   11  A    between atoms: C_14  and  C_15
REMARK   12  A    between atoms: C_15  and  C_16
REMARK   13  A    between atoms: C_16  and  C_17
REMARK   14  A    between atoms: C_17  and  C_18
REMARK   15  A    between atoms: C_18  and  P_19
REMARK   16  A    between atoms: P_19  and  C_22
REMARK                            x       y       z     vdW  Elec       q    Type
REMARK                         _______ _______ _______ _____ _____    ______ ____
ROOT
ATOM      1  C   UNL     1       1.810   6.064  20.453  0.00  0.00    +0.000 C 
ATOM      2  C   UNL     1       1.558   4.605  20.748  0.00  0.00    +0.000 C 
ATOM      3  C   UNL     1       2.817   6.421  19.626  0.00  0.00    +0.000 C 
ENDROOT
BRANCH   1   4
ATOM      4  C   UNL     1       0.934   7.156  21.010  0.00  0.00    +0.000 C 
BRANCH   4   5
ATOM      5  C   UNL     1       1.497   8.557  20.800  0.00  0.00    +0.000 C 
BRANCH   5   8
ATOM      6  C   UNL     1       0.420   9.906  18.992  0.00  0.00    +0.000 C 
ATOM      7  C   UNL     1       1.455   9.416  17.995  0.00  0.00    +0.000 C 
ATOM      8  C   UNL     1       0.488   9.530  20.277  0.00  0.00    +0.000 C 
BRANCH   6   9
ATOM      9  C   UNL     1      -0.681  10.846  18.568  0.00  0.00    +0.000 C 
BRANCH   9  10
ATOM     10  C   UNL     1      -1.980  10.144  18.183  0.00  0.00    +0.000 C 
BRANCH  10  14
ATOM     11  C   UNL     1      -3.219  10.157  14.507  0.00  0.00    +0.000 C 
ATOM     12  C   UNL     1      -3.130  10.443  15.979  0.00  0.00    +0.000 C 
ATOM     13  C   UNL     1      -4.270  11.202  16.624  0.00  0.00    +0.000 C 
ATOM     14  C   UNL     1      -2.119   9.926  16.708  0.00  0.00    +0.000 C 
ENDBRANCH  10  14
ENDBRANCH   9  10
ENDBRANCH   6   9
ENDBRANCH   5   8
ENDBRANCH   4   5
ENDBRANCH   1   4
BRANCH   3  15
ATOM     15  C   UNL     1       3.742   5.427  19.005  0.00  0.00    +0.000 C 
BRANCH  15  16
ATOM     16  C   UNL     1       3.205   4.948  17.661  0.00  0.00    +0.000 C 
BRANCH  16  17
ATOM     17  C   UNL     1       4.197   3.956  17.099  0.00  0.00    +0.000 C 
BRANCH  17  18
ATOM     18  C   UNL     1       5.611   4.476  17.238  0.00  0.00    +0.000 C 
BRANCH  18  19
ATOM     19  P   UNL     1       6.403   4.641  15.596  0.00  0.00    +0.000 P 
ATOM     20  O   UNL     1       5.764   6.052  15.500  0.00  0.00    +0.000 OA
ATOM     21  O   UNL     1       7.775   4.457  16.301  0.00  0.00    +0.000 OA
BRANCH  19  22
ATOM     22  C   UNL     1       7.197   4.806  13.956  0.00  0.00    +0.000 C 
ATOM     23  O   UNL     1       6.694   4.055  13.019  0.00  0.00    +0.000 OA
ATOM     24  O   UNL     1       8.090   5.690  13.643  0.00  0.00    +0.000 OA
ENDBRANCH  19  22
ENDBRANCH  18  19
ENDBRANCH  17  18
ENDBRANCH  16  17
ENDBRANCH  15  16
ENDBRANCH   3  15
TORSDOF 12
ENDMDL
MODEL 2
REMARK VINA RESULT:      -6.9      1.710      2.754
REMARK  Name = 
REMARK  16 active torsions:
REMARK  status: ('A' for Active; 'I' for Inactive)
REMARK    1  A    between atoms: C_1  and  C_2
REMARK    2  A    between atoms: C_2  and  C_3
REMARK    3  A    between atoms: C_4  and  C_5
REMARK    4  A    between atoms: C_5  and  C_6
REMARK    5  A    between atoms: C_6  and  C_7
REMARK    6  A    between atoms: C_7  and  C_8
REMARK    7  A    between atoms: C_9  and  C_10
REMARK    8  A    between atoms: C_10  and  C_11
REMARK    9  A    between atoms: C_11  and  C_12
REMARK   10  A    between atoms: C_12  and  C_13
REMARK   11  A    between atoms: C_14  and  C_15
REMARK   12  A    between atoms: C_15  and  C_16
REMARK   13  A    between atoms: C_16  and  C_17
REMARK   14  A    between atoms: C_17  and  C_18
REMARK   15  A    between atoms: C_18  and  P_19
REMARK   16  A    between atoms: P_19  and  C_22
REMARK                            x       y       z     vdW  Elec       q    Type
REMARK                         _______ _______ _______ _____ _____    ______ ____
ROOT
ATOM      1  C   UNL     1       1.537   3.706  20.322  0.00  0.00    +0.000 C 
ATOM      2  C   UNL     1       1.624   2.640  21.389  0.00  0.00    +0.000 C 
ATOM      3  C   UNL     1       1.685   3.372  19.022  0.00  0.00    +0.000 C 
ENDROOT
BRANCH   1   4
ATOM      4  C   UNL     1       1.232   5.144  20.651  0.00  0.00    +0.000 C 
BRANCH   4   5
ATOM      5  C   UNL     1       2.432   6.071  20.506  0.00  0.00    +0.000 C 
BRANCH   5   8
ATOM      6  C   UNL     1       1.756   8.240  19.462  0.00  0.00    +0.000 C 
ATOM      7  C   UNL     1       1.121   8.683  20.767  0.00  0.00    +0.000 C 
ATOM      8  C   UNL     1       2.312   7.024  19.359  0.00  0.00    +0.000 C 
BRANCH   6   9
ATOM      9  C   UNL     1       1.748   9.139  18.252  0.00  0.00    +0.000 C 
BRANCH   9  10
ATOM     10  C   UNL     1       0.693  10.241  18.305  0.00  0.00    +0.000 C 
BRANCH  10  14
ATOM     11  C   UNL     1      -3.098   9.856  17.580  0.00  0.00    +0.000 C 
ATOM     12  C   UNL     1      -1.804  10.354  18.157  0.00  0.00    +0.000 C 
ATOM     13  C   UNL     1      -1.871  11.363  19.283  0.00  0.00    +0.000 C 
ATOM     14  C   UNL     1      -0.633   9.816  17.755  0.00  0.00    +0.000 C 
ENDBRANCH  10  14
ENDBRANCH   9  10
ENDBRANCH   6   9
ENDBRANCH   5   8
ENDBRANCH   4   5
ENDBRANCH   1   4
BRANCH   3  15
ATOM     15  C   UNL     1       1.978   1.977  18.575  0.00  0.00    +0.000 C 
BRANCH  15  16
ATOM     16  C   UNL     1       3.451   1.817  18.218  0.00  0.00    +0.000 C 
BRANCH  16  17
ATOM     17  C   UNL     1       3.932   3.135  17.658  0.00  0.00    +0.000 C 
BRANCH  17  18
ATOM     18  C   UNL     1       5.024   3.719  18.526  0.00  0.00    +0.000 C 
BRANCH  18  19
ATOM     19  P   UNL     1       6.039   4.909  17.575  0.00  0.00    +0.000 P 
ATOM     20  O   UNL     1       5.295   6.046  18.326  0.00  0.00    +0.000 OA
ATOM     21  O   UNL     1       7.298   4.257  18.208  0.00  0.00    +0.000 OA
BRANCH  19  22
ATOM     22  C   UNL     1       7.054   6.098  16.626  0.00  0.00    +0.000 C 
ATOM     23  O   UNL     1       7.603   5.620  15.547  0.00  0.00    +0.000 OA
ATOM     24  O   UNL     1       7.139   7.369  16.866  0.00  0.00    +0.000 OA
ENDBRANCH  19  22
ENDBRANCH  18  19
ENDBRANCH  17  18
ENDBRANCH  16  17
ENDBRANCH  15  16
ENDBRANCH   3  15
TORSDOF 12
ENDMDL
MODEL 3
REMARK VINA RESULT:      -6.7      2.713      3.873
REMARK  Name = 
REMARK  16 active torsions:
REMARK  status: ('A' for Active; 'I' for Inactive)
REMARK    1  A    between atoms: C_1  and  C_2
REMARK    2  A    between atoms: C_2  and  C_3
REMARK    3  A    between atoms: C_4  and  C_5
REMARK    4  A    between atoms: C_5  and  C_6
REMARK    5  A    between atoms: C_6  and  C_7
REMARK    6  A    between atoms: C_7  and  C_8
REMARK    7  A    between atoms: C_9  and  C_10
REMARK    8  A    between atoms: C_10  and  C_11
REMARK    9  A    between atoms: C_11  and  C_12
REMARK   10  A    between atoms: C_12  and  C_13
REMARK   11  A    between atoms: C_14  and  C_15
REMARK   12  A    between atoms: C_15  and  C_16
REMARK   13  A    between atoms: C_16  and  C_17
REMARK   14  A    between atoms: C_17  and  C_18
REMARK   15  A    between atoms: C_18  and  P_19
REMARK   16  A    between atoms: P_19  and  C_22
REMARK                            x       y       z     vdW  Elec       q    Type
REMARK                         _______ _______ _______ _____ _____    ______ ____
ROOT
ATOM      1  C   UNL     1       1.577   4.316  20.024  0.00  0.00    +0.000 C 
ATOM      2  C   UNL     1       1.502   3.080  20.890  0.00  0.00    +0.000 C 
ATOM      3  C   UNL     1       1.841   4.199  18.704  0.00  0.00    +0.000 C 
ENDROOT
BRANCH   1   4
ATOM      4  C   UNL     1       1.309   5.693  20.571  0.00  0.00    +0.000 C 
BRANCH   4   5
ATOM      5  C   UNL     1       2.215   6.770  19.983  0.00  0.00    +0.000 C 
BRANCH   5   8
ATOM      6  C   UNL     1       1.477   8.983  19.083  0.00  0.00    +0.000 C 
ATOM      7  C   UNL     1       1.927   8.578  17.691  0.00  0.00    +0.000 C 
ATOM      8  C   UNL     1       1.659   8.152  20.119  0.00  0.00    +0.000 C 
BRANCH   6   9
ATOM      9  C   UNL     1       0.849  10.330  19.333  0.00  0.00    +0.000 C 
BRANCH   9  10
ATOM     10  C   UNL     1       0.046  10.409  20.629  0.00  0.00    +0.000 C 
BRANCH  10  14
ATOM     11  C   UNL     1      -0.827  13.522  22.772  0.00  0.00    +0.000 C 
ATOM     12  C   UNL     1      -0.701  12.094  22.323  0.00  0.00    +0.000 C 
ATOM     13  C   UNL     1      -1.393  11.028  23.146  0.00  0.00    +0.000 C 
ATOM     14  C   UNL     1      -0.091  11.805  21.155  0.00  0.00    +0.000 C 
ENDBRANCH  10  14
ENDBRANCH   9  10
ENDBRANCH   6   9
ENDBRANCH   5   8
ENDBRANCH   4   5
ENDBRANCH   1   4
BRANCH   3  15
ATOM     15  C   UNL     1       2.110   2.885  18.048  0.00  0.00    +0.000 C 
BRANCH  15  16
ATOM     16  C   UNL     1       3.558   2.795  17.580  0.00  0.00    +0.000 C 
BRANCH  16  17
ATOM     17  C   UNL     1       3.964   4.163  17.082  0.00  0.00    +0.000 C 
BRANCH  17  18
ATOM     18  C   UNL     1       5.334   4.116  16.444  0.00  0.00    +0.000 C 
BRANCH  18  19
ATOM     19  P   UNL     1       6.392   5.465  17.086  0.00  0.00    +0.000 P 
ATOM     20  O   UNL     1       6.727   5.817  15.612  0.00  0.00    +0.000 OA
ATOM     21  O   UNL     1       5.127   6.063  17.759  0.00  0.00    +0.000 OA
BRANCH  19  22
ATOM     22  C   UNL     1       7.448   6.814  17.727  0.00  0.00    +0.000 C 
ATOM     23  O   UNL     1       8.077   6.547  18.835  0.00  0.00    +0.000 OA
ATOM     24  O   UNL     1       7.717   7.916  17.101  0.00  0.00    +0.000 OA
ENDBRANCH  19  22
ENDBRANCH  18  19
ENDBRANCH  17  18
ENDBRANCH  16  17
ENDBRANCH  15  16
ENDBRANCH   3  15
TORSDOF 12
ENDMDL
MODEL 4
REMARK VINA RESULT:      -6.5      5.528      8.825
REMARK  Name = 
REMARK  16 active torsions:
REMARK  status: ('A' for Active; 'I' for Inactive)
REMARK    1  A    between atoms: C_1  and  C_2
REMARK    2  A    between atoms: C_2  and  C_3
REMARK    3  A    between atoms: C_4  and  C_5
REMARK    4  A    between atoms: C_5  and  C_6
REMARK    5  A    between atoms: C_6  and  C_7
REMARK    6  A    between atoms: C_7  and  C_8
REMARK    7  A    between atoms: C_9  and  C_10
REMARK    8  A    between atoms: C_10  and  C_11
REMARK    9  A    between atoms: C_11  and  C_12
REMARK   10  A    between atoms: C_12  and  C_13
REMARK   11  A    between atoms: C_14  and  C_15
REMARK   12  A    between atoms: C_15  and  C_16
REMARK   13  A    between atoms: C_16  and  C_17
REMARK   14  A    between atoms: C_17  and  C_18
REMARK   15  A    between atoms: C_18  and  P_19
REMARK   16  A    between atoms: P_19  and  C_22
REMARK                            x       y       z     vdW  Elec       q    Type
REMARK                         _______ _______ _______ _____ _____    ______ ____
ROOT
ATOM      1  C   UNL     1       4.414   6.558  17.837  0.00  0.00    +0.000 C 
ATOM      2  C   UNL     1       4.826   6.732  16.394  0.00  0.00    +0.000 C 
ATOM      3  C   UNL     1       3.284   7.142  18.290  0.00  0.00    +0.000 C 
ENDROOT
BRANCH   1   4
ATOM      4  C   UNL     1       5.197   5.698  18.794  0.00  0.00    +0.000 C 
BRANCH   4   5
ATOM      5  C   UNL     1       5.458   4.289  18.276  0.00  0.00    +0.000 C 
BRANCH   5   8
ATOM      6  C   UNL     1       3.435   2.835  18.061  0.00  0.00    +0.000 C 
ATOM      7  C   UNL     1       3.144   3.424  16.692  0.00  0.00    +0.000 C 
ATOM      8  C   UNL     1       4.475   3.280  18.780  0.00  0.00    +0.000 C 
BRANCH   6   9
ATOM      9  C   UNL     1       2.546   1.769  18.650  0.00  0.00    +0.000 C 
BRANCH   9  10
ATOM     10  C   UNL     1       1.170   2.273  19.073  0.00  0.00    +0.000 C 
BRANCH  10  14
ATOM     11  C   UNL     1       1.509   5.676  20.903  0.00  0.00    +0.000 C 
ATOM     12  C   UNL     1       1.580   4.204  20.612  0.00  0.00    +0.000 C 
ATOM     13  C   UNL     1       2.007   3.280  21.733  0.00  0.00    +0.000 C 
ATOM     14  C   UNL     1       1.155   3.729  19.423  0.00  0.00    +0.000 C 
ENDBRANCH  10  14
ENDBRANCH   9  10
ENDBRANCH   6   9
ENDBRANCH   5   8
ENDBRANCH   4   5
ENDBRANCH   1   4
BRANCH   3  15
ATOM     15  C   UNL     1       2.420   8.006  17.431  0.00  0.00    +0.000 C 
BRANCH  15  16
ATOM     16  C   UNL     1       2.214   9.375  18.067  0.00  0.00    +0.000 C 
BRANCH  16  17
ATOM     17  C   UNL     1       1.188   9.220  19.165  0.00  0.00    +0.000 C 
BRANCH  17  18
ATOM     18  C   UNL     1       0.213  10.376  19.154  0.00  0.00    +0.000 C 
BRANCH  18  19
ATOM     19  P   UNL     1      -0.200  10.889  20.862  0.00  0.00    +0.000 P 
ATOM     20  O   UNL     1       1.130  11.689  20.875  0.00  0.00    +0.000 OA
ATOM     21  O   UNL     1      -1.492  11.540  20.296  0.00  0.00    +0.000 OA
BRANCH  19  22
ATOM     22  C   UNL     1      -0.613  11.403  22.568  0.00  0.00    +0.000 C 
ATOM     23  O   UNL     1      -0.781  10.429  23.415  0.00  0.00    +0.000 OA
ATOM     24  O   UNL     1      -0.605  12.623  23.005  0.00  0.00    +0.000 OA
ENDBRANCH  19  22
ENDBRANCH  18  19
ENDBRANCH  17  18
ENDBRANCH  16  17
ENDBRANCH  15  16
ENDBRANCH   3  15
TORSDOF 12
ENDMDL
MODEL 5
REMARK VINA RESULT:      -6.5      6.031      9.486
REMARK  Name = 
REMARK  16 active torsions:
REMARK  status: ('A' for Active; 'I' for Inactive)
REMARK    1  A    between atoms: C_1  and  C_2
REMARK    2  A    between atoms: C_2  and  C_3
REMARK    3  A    between atoms: C_4  and  C_5
REMARK    4  A    between atoms: C_5  and  C_6
REMARK    5  A    between atoms: C_6  and  C_7
REMARK    6  A    between atoms: C_7  and  C_8
REMARK    7  A    between atoms: C_9  and  C_10
REMARK    8  A    between atoms: C_10  and  C_11
REMARK    9  A    between atoms: C_11  and  C_12
REMARK   10  A    between atoms: C_12  and  C_13
REMARK   11  A    between atoms: C_14  and  C_15
REMARK   12  A    between atoms: C_15  and  C_16
REMARK   13  A    between atoms: C_16  and  C_17
REMARK   14  A    between atoms: C_17  and  C_18
REMARK   15  A    between atoms: C_18  and  P_19
REMARK   16  A    between atoms: P_19  and  C_22
REMARK                            x       y       z     vdW  Elec       q    Type
REMARK                         _______ _______ _______ _____ _____    ______ ____
ROOT
ATOM      1  C   UNL     1       3.076   5.510  17.816  0.00  0.00    +0.000 C 
ATOM      2  C   UNL     1       1.994   4.703  18.494  0.00  0.00    +0.000 C 
ATOM      3  C   UNL     1       3.040   6.860  17.864  0.00  0.00    +0.000 C 
ENDROOT
BRANCH   1   4
ATOM      4  C   UNL     1       4.245   4.860  17.124  0.00  0.00    +0.000 C 
BRANCH   4   5
ATOM      5  C   UNL     1       5.576   5.089  17.830  0.00  0.00    +0.000 C 
BRANCH   5   8
ATOM      6  C   UNL     1       7.383   6.810  17.983  0.00  0.00    +0.000 C 
ATOM      7  C   UNL     1       7.981   6.091  19.179  0.00  0.00    +0.000 C 
ATOM      8  C   UNL     1       6.260   6.353  17.413  0.00  0.00    +0.000 C 
BRANCH   6   9
ATOM      9  C   UNL     1       8.018   8.063  17.436  0.00  0.00    +0.000 C 
BRANCH   9  10
ATOM     10  C   UNL     1       8.492   9.038  18.510  0.00  0.00    +0.000 C 
BRANCH  10  14
ATOM     11  C   UNL     1       9.760  12.674  18.043  0.00  0.00    +0.000 C 
ATOM     12  C   UNL     1       9.553  11.303  18.621  0.00  0.00    +0.000 C 
ATOM     13  C   UNL     1      10.135  11.014  19.988  0.00  0.00    +0.000 C 
ATOM     14  C   UNL     1       8.767  10.412  17.982  0.00  0.00    +0.000 C 
ENDBRANCH  10  14
ENDBRANCH   9  10
ENDBRANCH   6   9
ENDBRANCH   5   8
ENDBRANCH   4   5
ENDBRANCH   1   4
BRANCH   3  15
ATOM     15  C   UNL     1       1.938   7.615  18.532  0.00  0.00    +0.000 C 
BRANCH  15  16
ATOM     16  C   UNL     1       1.927   9.073  18.084  0.00  0.00    +0.000 C 
BRANCH  16  17
ATOM     17  C   UNL     1       0.672   9.711  18.634  0.00  0.00    +0.000 C 
BRANCH  17  18
ATOM     18  C   UNL     1       1.016  10.862  19.554  0.00  0.00    +0.000 C 
BRANCH  18  19
ATOM     19  P   UNL     1       0.283  10.606  21.211  0.00  0.00    +0.000 P 
ATOM     20  O   UNL     1       1.240   9.396  21.377  0.00  0.00    +0.000 OA
ATOM     21  O   UNL     1       0.765  12.034  21.585  0.00  0.00    +0.000 OA
BRANCH  19  22
ATOM     22  C   UNL     1      -0.450  10.351  22.868  0.00  0.00    +0.000 C 
ATOM     23  O   UNL     1       0.325   9.762  23.732  0.00  0.00    +0.000 OA
ATOM     24  O   UNL     1      -1.586  10.831  23.265  0.00  0.00    +0.000 OA
ENDBRANCH  19  22
ENDBRANCH  18  19
ENDBRANCH  17  18
ENDBRANCH  16  17
ENDBRANCH  15  16
ENDBRANCH   3  15
TORSDOF 12
ENDMDL
MODEL 6
REMARK VINA RESULT:      -6.5      5.061      8.719
REMARK  Name = 
REMARK  16 active torsions:
REMARK  status: ('A' for Active; 'I' for Inactive)
REMARK    1  A    between atoms: C_1  and  C_2
REMARK    2  A    between atoms: C_2  and  C_3
REMARK    3  A    between atoms: C_4  and  C_5
REMARK    4  A    between atoms: C_5  and  C_6
REMARK    5  A    between atoms: C_6  and  C_7
REMARK    6  A    between atoms: C_7  and  C_8
REMARK    7  A    between atoms: C_9  and  C_10
REMARK    8  A    between atoms: C_10  and  C_11
REMARK    9  A    between atoms: C_11  and  C_12
REMARK   10  A    between atoms: C_12  and  C_13
REMARK   11  A    between atoms: C_14  and  C_15
REMARK   12  A    between atoms: C_15  and  C_16
REMARK   13  A    between atoms: C_16  and  C_17
REMARK   14  A    between atoms: C_17  and  C_18
REMARK   15  A    between atoms: C_18  and  P_19
REMARK   16  A    between atoms: P_19  and  C_22
REMARK                            x       y       z     vdW  Elec       q    Type
REMARK                         _______ _______ _______ _____ _____    ______ ____
ROOT
ATOM      1  C   UNL     1       4.384   6.460  17.946  0.00  0.00    +0.000 C 
ATOM      2  C   UNL     1       4.919   6.649  16.546  0.00  0.00    +0.000 C 
ATOM      3  C   UNL     1       3.233   7.064  18.315  0.00  0.00    +0.000 C 
ENDROOT
BRANCH   1   4
ATOM      4  C   UNL     1       5.063   5.563  18.947  0.00  0.00    +0.000 C 
BRANCH   4   5
ATOM      5  C   UNL     1       5.359   4.166  18.413  0.00  0.00    +0.000 C 
BRANCH   5   8
ATOM      6  C   UNL     1       3.321   2.774  18.009  0.00  0.00    +0.000 C 
ATOM      7  C   UNL     1       3.111   3.452  16.667  0.00  0.00    +0.000 C 
ATOM      8  C   UNL     1       4.332   3.150  18.805  0.00  0.00    +0.000 C 
BRANCH   6   9
ATOM      9  C   UNL     1       2.384   1.694  18.487  0.00  0.00    +0.000 C 
BRANCH   9  10
ATOM     10  C   UNL     1       1.064   2.220  19.044  0.00  0.00    +0.000 C 
BRANCH  10  14
ATOM     11  C   UNL     1       1.522   5.585  20.918  0.00  0.00    +0.000 C 
ATOM     12  C   UNL     1       1.527   4.114  20.614  0.00  0.00    +0.000 C 
ATOM     13  C   UNL     1       1.874   3.160  21.737  0.00  0.00    +0.000 C 
ATOM     14  C   UNL     1       1.113   3.672  19.408  0.00  0.00    +0.000 C 
ENDBRANCH  10  14
ENDBRANCH   9  10
ENDBRANCH   6   9
ENDBRANCH   5   8
ENDBRANCH   4   5
ENDBRANCH   1   4
BRANCH   3  15
ATOM     15  C   UNL     1       2.466   7.966  17.405  0.00  0.00    +0.000 C 
BRANCH  15  16
ATOM     16  C   UNL     1       2.080   9.258  18.115  0.00  0.00    +0.000 C 
BRANCH  16  17
ATOM     17  C   UNL     1       0.580   9.406  18.013  0.00  0.00    +0.000 C 
BRANCH  17  18
ATOM     18  C   UNL     1       0.120  10.675  18.695  0.00  0.00    +0.000 C 
BRANCH  18  19
ATOM     19  P   UNL     1      -1.619  11.047  18.261  0.00  0.00    +0.000 P 
ATOM     20  O   UNL     1      -1.161  12.494  17.936  0.00  0.00    +0.000 OA
ATOM     21  O   UNL     1      -1.527   9.942  17.174  0.00  0.00    +0.000 OA
BRANCH  19  22
ATOM     22  C   UNL     1      -3.357  11.419  17.826  0.00  0.00    +0.000 C 
ATOM     23  O   UNL     1      -4.100  11.828  18.813  0.00  0.00    +0.000 OA
ATOM     24  O   UNL     1      -3.838  11.442  16.623  0.00  0.00    +0.000 OA
ENDBRANCH  19  22
ENDBRANCH  18  19
ENDBRANCH  17  18
ENDBRANCH  16  17
ENDBRANCH  15  16
ENDBRANCH   3  15
TORSDOF 12
ENDMDL
MODEL 7
REMARK VINA RESULT:      -6.4      2.690      3.787
REMARK  Name = 
REMARK  16 active torsions:
REMARK  status: ('A' for Active; 'I' for Inactive)
REMARK    1  A    between atoms: C_1  and  C_2
REMARK    2  A    between atoms: C_2  and  C_3
REMARK    3  A    between atoms: C_4  and  C_5
REMARK    4  A    between atoms: C_5  and  C_6
REMARK    5  A    between atoms: C_6  and  C_7
REMARK    6  A    between atoms: C_7  and  C_8
REMARK    7  A    between atoms: C_9  and  C_10
REMARK    8  A    between atoms: C_10  and  C_11
REMARK    9  A    between atoms: C_11  and  C_12
REMARK   10  A    between atoms: C_12  and  C_13
REMARK   11  A    between atoms: C_14  and  C_15
REMARK   12  A    between atoms: C_15  and  C_16
REMARK   13  A    between atoms: C_16  and  C_17
REMARK   14  A    between atoms: C_17  and  C_18
REMARK   15  A    between atoms: C_18  and  P_19
REMARK   16  A    between atoms: P_19  and  C_22
REMARK                            x       y       z     vdW  Elec       q    Type
REMARK                         _______ _______ _______ _____ _____    ______ ____
ROOT
ATOM      1  C   UNL     1       1.443   3.958  20.299  0.00  0.00    +0.000 C 
ATOM      2  C   UNL     1       1.654   2.965  21.418  0.00  0.00    +0.000 C 
ATOM      3  C   UNL     1       1.654   3.584  19.018  0.00  0.00    +0.000 C 
ENDROOT
BRANCH   1   4
ATOM      4  C   UNL     1       0.945   5.356  20.553  0.00  0.00    +0.000 C 
BRANCH   4   5
ATOM      5  C   UNL     1       2.039   6.415  20.487  0.00  0.00    +0.000 C 
BRANCH   5   8
ATOM      6  C   UNL     1       1.495   8.622  19.445  0.00  0.00    +0.000 C 
ATOM      7  C   UNL     1       2.113   8.168  18.135  0.00  0.00    +0.000 C 
ATOM      8  C   UNL     1       1.512   7.816  20.515  0.00  0.00    +0.000 C 
BRANCH   6   9
ATOM      9  C   UNL     1       0.880   9.993  19.577  0.00  0.00    +0.000 C 
BRANCH   9  10
ATOM     10  C   UNL     1       1.163  10.672  20.915  0.00  0.00    +0.000 C 
BRANCH  10  14
ATOM     11  C   UNL     1      -1.896  11.513  23.147  0.00  0.00    +0.000 C 
ATOM     12  C   UNL     1      -0.668  10.831  22.615  0.00  0.00    +0.000 C 
ATOM     13  C   UNL     1      -0.244   9.529  23.262  0.00  0.00    +0.000 C 
ATOM     14  C   UNL     1      -0.048  11.314  21.518  0.00  0.00    +0.000 C 
ENDBRANCH  10  14
ENDBRANCH   9  10
ENDBRANCH   6   9
ENDBRANCH   5   8
ENDBRANCH   4   5
ENDBRANCH   1   4
BRANCH   3  15
ATOM     15  C   UNL     1       2.135   2.221  18.643  0.00  0.00    +0.000 C 
BRANCH  15  16
ATOM     16  C   UNL     1       3.658   2.150  18.685  0.00  0.00    +0.000 C 
BRANCH  16  17
ATOM     17  C   UNL     1       4.192   3.450  18.131  0.00  0.00    +0.000 C 
BRANCH  17  18
ATOM     18  C   UNL     1       4.448   3.334  16.645  0.00  0.00    +0.000 C 
BRANCH  18  19
ATOM     19  P   UNL     1       5.816   4.438  16.137  0.00  0.00    +0.000 P 
ATOM     20  O   UNL     1       5.919   3.605  14.832  0.00  0.00    +0.000 OA
ATOM     21  O   UNL     1       4.817   5.625  16.223  0.00  0.00    +0.000 OA
BRANCH  19  22
ATOM     22  C   UNL     1       7.182   5.543  15.629  0.00  0.00    +0.000 C 
ATOM     23  O   UNL     1       7.578   6.388  16.536  0.00  0.00    +0.000 OA
ATOM     24  O   UNL     1       7.852   5.445  14.524  0.00  0.00    +0.000 OA
ENDBRANCH  19  22
ENDBRANCH  18  19
ENDBRANCH  17  18
ENDBRANCH  16  17
ENDBRANCH  15  16
ENDBRANCH   3  15
TORSDOF 12
ENDMDL
MODEL 8
REMARK VINA RESULT:      -6.4      5.362      8.454
REMARK  Name = 
REMARK  16 active torsions:
REMARK  status: ('A' for Active; 'I' for Inactive)
REMARK    1  A    between atoms: C_1  and  C_2
REMARK    2  A    between atoms: C_2  and  C_3
REMARK    3  A    between atoms: C_4  and  C_5
REMARK    4  A    between atoms: C_5  and  C_6
REMARK    5  A    between atoms: C_6  and  C_7
REMARK    6  A    between atoms: C_7  and  C_8
REMARK    7  A    between atoms: C_9  and  C_10
REMARK    8  A    between atoms: C_10  and  C_11
REMARK    9  A    between atoms: C_11  and  C_12
REMARK   10  A    between atoms: C_12  and  C_13
REMARK   11  A    between atoms: C_14  and  C_15
REMARK   12  A    between atoms: C_15  and  C_16
REMARK   13  A    between atoms: C_16  and  C_17
REMARK   14  A    between atoms: C_17  and  C_18
REMARK   15  A    between atoms: C_18  and  P_19
REMARK   16  A    between atoms: P_19  and  C_22
REMARK                            x       y       z     vdW  Elec       q    Type
REMARK                         _______ _______ _______ _____ _____    ______ ____
ROOT
ATOM      1  C   UNL     1       4.243   5.801  16.970  0.00  0.00    +0.000 C 
ATOM      2  C   UNL     1       3.598   4.445  17.132  0.00  0.00    +0.000 C 
ATOM      3  C   UNL     1       3.807   6.847  17.706  0.00  0.00    +0.000 C 
ENDROOT
BRANCH   1   4
ATOM      4  C   UNL     1       5.410   6.026  16.046  0.00  0.00    +0.000 C 
BRANCH   4   5
ATOM      5  C   UNL     1       6.745   6.158  16.770  0.00  0.00    +0.000 C 
BRANCH   5   8
ATOM      6  C   UNL     1       7.948   8.001  17.957  0.00  0.00    +0.000 C 
ATOM      7  C   UNL     1       8.314   7.051  19.083  0.00  0.00    +0.000 C 
ATOM      8  C   UNL     1       7.195   7.576  16.933  0.00  0.00    +0.000 C 
BRANCH   6   9
ATOM      9  C   UNL     1       8.395   9.441  17.982  0.00  0.00    +0.000 C 
BRANCH   9  10
ATOM     10  C   UNL     1       9.239   9.807  19.200  0.00  0.00    +0.000 C 
BRANCH  10  14
ATOM     11  C   UNL     1      10.413  13.502  19.296  0.00  0.00    +0.000 C 
ATOM     12  C   UNL     1      10.373  12.030  19.002  0.00  0.00    +0.000 C 
ATOM     13  C   UNL     1      11.584  11.405  18.342  0.00  0.00    +0.000 C 
ATOM     14  C   UNL     1       9.334  11.283  19.430  0.00  0.00    +0.000 C 
ENDBRANCH  10  14
ENDBRANCH   9  10
ENDBRANCH   6   9
ENDBRANCH   5   8
ENDBRANCH   4   5
ENDBRANCH   1   4
BRANCH   3  15
ATOM     15  C   UNL     1       2.666   6.741  18.664  0.00  0.00    +0.000 C 
BRANCH  15  16
ATOM     16  C   UNL     1       2.942   5.681  19.724  0.00  0.00    +0.000 C 
BRANCH  16  17
ATOM     17  C   UNL     1       1.716   5.581  20.601  0.00  0.00    +0.000 C 
BRANCH  17  18
ATOM     18  C   UNL     1       1.341   4.134  20.834  0.00  0.00    +0.000 C 
BRANCH  18  19
ATOM     19  P   UNL     1       2.726   3.027  20.379  0.00  0.00    +0.000 P 
ATOM     20  O   UNL     1       2.829   2.646  21.880  0.00  0.00    +0.000 OA
ATOM     21  O   UNL     1       1.740   2.266  19.451  0.00  0.00    +0.000 OA
BRANCH  19  22
ATOM     22  C   UNL     1       4.109   1.920  19.924  0.00  0.00    +0.000 C 
ATOM     23  O   UNL     1       3.992   1.333  18.768  0.00  0.00    +0.000 OA
ATOM     24  O   UNL     1       5.219   1.800  20.582  0.00  0.00    +0.000 OA
ENDBRANCH  19  22
ENDBRANCH  18  19
ENDBRANCH  17  18
ENDBRANCH  16  17
ENDBRANCH  15  16
ENDBRANCH   3  15
TORSDOF 12
ENDMDL
MODEL 9
REMARK VINA RESULT:      -6.4      5.437      8.788
REMARK  Name = 
REMARK  16 active torsions:
REMARK  status: ('A' for Active; 'I' for Inactive)
REMARK    1  A    between atoms: C_1  and  C_2
REMARK    2  A    between atoms: C_2  and  C_3
REMARK    3  A    between atoms: C_4  and  C_5
REMARK    4  A    between atoms: C_5  and  C_6
REMARK    5  A    between atoms: C_6  and  C_7
REMARK    6  A    between atoms: C_7  and  C_8
REMARK    7  A    between atoms: C_9  and  C_10
REMARK    8  A    between atoms: C_10  and  C_11
REMARK    9  A    between atoms: C_11  and  C_12
REMARK   10  A    between atoms: C_12  and  C_13
REMARK   11  A    between atoms: C_14  and  C_15
REMARK   12  A    between atoms: C_15  and  C_16
REMARK   13  A    between atoms: C_16  and  C_17
REMARK   14  A    between atoms: C_17  and  C_18
REMARK   15  A    between atoms: C_18  and  P_19
REMARK   16  A    between atoms: P_19  and  C_22
REMARK                            x       y       z     vdW  Elec       q    Type
REMARK                         _______ _______ _______ _____ _____    ______ ____
ROOT
ATOM      1  C   UNL     1       4.612   6.471  17.702  0.00  0.00    +0.000 C 
ATOM      2  C   UNL     1       4.973   6.674  16.249  0.00  0.00    +0.000 C 
ATOM      3  C   UNL     1       3.495   7.040  18.205  0.00  0.00    +0.000 C 
ENDROOT
BRANCH   1   4
ATOM      4  C   UNL     1       5.433   5.598  18.615  0.00  0.00    +0.000 C 
BRANCH   4   5
ATOM      5  C   UNL     1       5.277   4.108  18.338  0.00  0.00    +0.000 C 
BRANCH   5   8
ATOM      6  C   UNL     1       3.364   2.528  18.024  0.00  0.00    +0.000 C 
ATOM      7  C   UNL     1       4.158   1.418  18.689  0.00  0.00    +0.000 C 
ATOM      8  C   UNL     1       3.916   3.736  17.839  0.00  0.00    +0.000 C 
BRANCH   6   9
ATOM      9  C   UNL     1       1.959   2.288  17.532  0.00  0.00    +0.000 C 
BRANCH   9  10
ATOM     10  C   UNL     1       0.880   2.580  18.571  0.00  0.00    +0.000 C 
BRANCH  10  14
ATOM     11  C   UNL     1       2.068   3.218  22.208  0.00  0.00    +0.000 C 
ATOM     12  C   UNL     1       1.559   3.458  20.815  0.00  0.00    +0.000 C 
ATOM     13  C   UNL     1       1.416   4.891  20.349  0.00  0.00    +0.000 C 
ATOM     14  C   UNL     1       1.358   2.417  19.981  0.00  0.00    +0.000 C 
ENDBRANCH  10  14
ENDBRANCH   9  10
ENDBRANCH   6   9
ENDBRANCH   5   8
ENDBRANCH   4   5
ENDBRANCH   1   4
BRANCH   3  15
ATOM     15  C   UNL     1       2.598   7.914  17.392  0.00  0.00    +0.000 C 
BRANCH  15  16
ATOM     16  C   UNL     1       2.296   9.216  18.124  0.00  0.00    +0.000 C 
BRANCH  16  17
ATOM     17  C   UNL     1       1.419   8.883  19.309  0.00  0.00    +0.000 C 
BRANCH  17  18
ATOM     18  C   UNL     1       0.294   9.885  19.441  0.00  0.00    +0.000 C 
BRANCH  18  19
ATOM     19  P   UNL     1      -0.190  10.085  21.195  0.00  0.00    +0.000 P 
ATOM     20  O   UNL     1      -0.342   8.543  21.262  0.00  0.00    +0.000 OA
ATOM     21  O   UNL     1       1.196  10.740  21.446  0.00  0.00    +0.000 OA
BRANCH  19  22
ATOM     22  C   UNL     1      -0.673  10.286  22.948  0.00  0.00    +0.000 C 
ATOM     23  O   UNL     1       0.150   9.766  23.812  0.00  0.00    +0.000 OA
ATOM     24  O   UNL     1      -1.660  11.008  23.374  0.00  0.00    +0.000 OA
ENDBRANCH  19  22
ENDBRANCH  18  19
ENDBRANCH  17  18
ENDBRANCH  16  17
ENDBRANCH  15  16
ENDBRANCH   3  15
TORSDOF 12
ENDMDL
