MODEL 1
REMARK VINA RESULT:      -8.0      0.000      0.000
REMARK  Name = 
REMARK  6 active torsions:
REMARK  status: ('A' for Active; 'I' for Inactive)
REMARK    1  A    between atoms: N_1  and  C_2
REMARK    2  A    between atoms: C_4  and  C_5
REMARK    3  A    between atoms: C_14  and  C_15
REMARK    4  A    between atoms: N_17  and  C_18
REMARK    5  A    between atoms: C_23  and  C_24
REMARK    6  A    between atoms: C_28  and  N_29
REMARK                            x       y       z     vdW  Elec       q    Type
REMARK                         _______ _______ _______ _____ _____    ______ ____
ROOT
ATOM      1  C   UNL     1       1.497   6.745  20.575  0.00  0.00    +0.000 C 
ATOM      2  O   UNL     1       0.379   6.283  20.817  0.00  0.00    +0.000 OA
ATOM      3  N   UNL     1       1.773   8.108  20.772  0.00  0.00    +0.000 N 
ATOM      4  H   UNL     1       2.677   8.450  20.447  0.00  0.00    +0.000 HD
ENDROOT
BRANCH   3   5
ATOM      5  C   UNL     1       0.840   9.062  21.323  0.00  0.00    +0.000 A 
ATOM      6  C   UNL     1       0.717   9.093  22.723  0.00  0.00    +0.000 A 
ATOM      7  N   UNL     1       0.016  10.005  23.447  0.00  0.00    +0.000 NA
ATOM      8  C   UNL     1      -0.618  10.960  22.747  0.00  0.00    +0.000 A 
ATOM      9  C   UNL     1      -0.584  11.028  21.368  0.00  0.00    +0.000 A 
ATOM     10  C   UNL     1       0.138  10.073  20.600  0.00  0.00    +0.000 A 
BRANCH  10  11
ATOM     11  C   UNL     1      -0.081  10.270  19.088  0.00  0.00    +0.000 C 
ATOM     12  C   UNL     1       0.812   9.449  18.160  0.00  0.00    +0.000 C 
ATOM     13  C   UNL     1       2.218   9.998  18.094  0.00  0.00    +0.000 C 
ATOM     14  C   UNL     1       2.292  11.532  17.969  0.00  0.00    +0.000 C 
ATOM     15  C   UNL     1       1.174  12.417  18.581  0.00  0.00    +0.000 C 
ATOM     16  C   UNL     1      -0.168  11.708  18.568  0.00  0.00    +0.000 C 
BRANCH  15  17
ATOM     17  N   UNL     1       1.474  12.920  19.930  0.00  0.00    +0.000 NA
ATOM     18  H   UNL     1       0.943  12.397  20.635  0.00  0.00    +0.000 HD
ATOM     19  H   UNL     1       1.066  13.855  20.026  0.00  0.00    +0.000 HD
ENDBRANCH  15  17
ENDBRANCH  10  11
ENDBRANCH   3   5
BRANCH   1  24
ATOM     20  C   UNL     1       2.810   4.577  20.461  0.00  0.00    +0.000 A 
ATOM     21  S   UNL     1       4.029   3.808  19.550  0.00  0.00    +0.000 S 
ATOM     22  C   UNL     1       4.182   5.190  18.539  0.00  0.00    +0.000 A 
ATOM     23  N   UNL     1       3.378   6.194  18.858  0.00  0.00    +0.000 NA
ATOM     24  C   UNL     1       2.563   5.862  19.974  0.00  0.00    +0.000 A 
BRANCH  22  25
ATOM     25  C   UNL     1       5.120   5.112  17.378  0.00  0.00    +0.000 A 
ATOM     26  C   UNL     1       4.803   4.346  16.253  0.00  0.00    +0.000 A 
ATOM     27  F   UNL     1       3.670   3.634  16.208  0.00  0.00    +0.000 F 
ATOM     28  C   UNL     1       5.672   4.233  15.155  0.00  0.00    +0.000 A 
ATOM     29  C   UNL     1       6.905   4.887  15.156  0.00  0.00    +0.000 A 
ATOM     30  C   UNL     1       7.259   5.639  16.265  0.00  0.00    +0.000 A 
ATOM     31  C   UNL     1       6.379   5.747  17.353  0.00  0.00    +0.000 A 
ATOM     32  F   UNL     1       6.802   6.494  18.383  0.00  0.00    +0.000 F 
ENDBRANCH  22  25
BRANCH  20  33
ATOM     33  N   UNL     1       2.239   3.897  21.485  0.00  0.00    +0.000 N 
ATOM     34  H   UNL     1       1.770   4.410  22.225  0.00  0.00    +0.000 HD
ATOM     35  H   UNL     1       2.666   3.016  21.784  0.00  0.00    +0.000 HD
ENDBRANCH  20  33
ENDBRANCH   1  24
TORSDOF 6
ENDMDL
MODEL 2
REMARK VINA RESULT:      -8.0      3.469      8.483
REMARK  Name = 
REMARK  6 active torsions:
REMARK  status: ('A' for Active; 'I' for Inactive)
REMARK    1  A    between atoms: N_1  and  C_2
REMARK    2  A    between atoms: C_4  and  C_5
REMARK    3  A    between atoms: C_14  and  C_15
REMARK    4  A    between atoms: N_17  and  C_18
REMARK    5  A    between atoms: C_23  and  C_24
REMARK    6  A    between atoms: C_28  and  N_29
REMARK                            x       y       z     vdW  Elec       q    Type
REMARK                         _______ _______ _______ _____ _____    ______ ____
ROOT
ATOM      1  C   UNL     1       2.576   7.974  18.079  0.00  0.00    +0.000 C 
ATOM      2  O   UNL     1       2.821   8.552  17.016  0.00  0.00    +0.000 OA
ATOM      3  N   UNL     1       3.119   6.708  18.353  0.00  0.00    +0.000 N 
ATOM      4  H   UNL     1       2.789   6.235  19.194  0.00  0.00    +0.000 HD
ENDROOT
BRANCH   3   5
ATOM      5  C   UNL     1       4.037   6.006  17.490  0.00  0.00    +0.000 A 
ATOM      6  C   UNL     1       5.189   6.704  17.087  0.00  0.00    +0.000 A 
ATOM      7  N   UNL     1       6.245   6.187  16.406  0.00  0.00    +0.000 NA
ATOM      8  C   UNL     1       6.167   4.884  16.089  0.00  0.00    +0.000 A 
ATOM      9  C   UNL     1       5.083   4.094  16.418  0.00  0.00    +0.000 A 
ATOM     10  C   UNL     1       3.968   4.628  17.122  0.00  0.00    +0.000 A 
BRANCH  10  11
ATOM     11  C   UNL     1       2.828   3.601  17.254  0.00  0.00    +0.000 C 
ATOM     12  C   UNL     1       1.558   4.082  17.951  0.00  0.00    +0.000 C 
ATOM     13  C   UNL     1       1.734   4.177  19.449  0.00  0.00    +0.000 C 
ATOM     14  C   UNL     1       2.470   2.977  20.075  0.00  0.00    +0.000 C 
ATOM     15  C   UNL     1       3.524   2.194  19.249  0.00  0.00    +0.000 C 
ATOM     16  C   UNL     1       3.191   2.204  17.768  0.00  0.00    +0.000 C 
BRANCH  15  17
ATOM     17  N   UNL     1       4.911   2.637  19.464  0.00  0.00    +0.000 NA
ATOM     18  H   UNL     1       4.929   3.519  19.985  0.00  0.00    +0.000 HD
ATOM     19  H   UNL     1       5.302   2.928  18.563  0.00  0.00    +0.000 HD
ENDBRANCH  15  17
ENDBRANCH  10  11
ENDBRANCH   3   5
BRANCH   1  24
ATOM     20  C   UNL     1       1.476   8.087  20.362  0.00  0.00    +0.000 A 
ATOM     21  S   UNL     1       0.356   9.014  21.253  0.00  0.00    +0.000 S 
ATOM     22  C   UNL     1       0.098  10.047  19.904  0.00  0.00    +0.000 A 
ATOM     23  N   UNL     1       0.796   9.724  18.825  0.00  0.00    +0.000 NA
ATOM     24  C   UNL     1       1.612   8.586  19.065  0.00  0.00    +0.000 A 
BRANCH  22  25
ATOM     25  C   UNL     1      -0.801  11.228  20.083  0.00  0.00    +0.000 A 
ATOM     26  C   UNL     1      -2.016  11.313  19.396  0.00  0.00    +0.000 A 
ATOM     27  F   UNL     1      -2.381  10.356  18.534  0.00  0.00    +0.000 F 
ATOM     28  C   UNL     1      -2.873  12.418  19.525  0.00  0.00    +0.000 A 
ATOM     29  C   UNL     1      -2.529  13.490  20.350  0.00  0.00    +0.000 A 
ATOM     30  C   UNL     1      -1.322  13.447  21.030  0.00  0.00    +0.000 A 
ATOM     31  C   UNL     1      -0.478  12.334  20.896  0.00  0.00    +0.000 A 
ATOM     32  F   UNL     1       0.670  12.376  21.589  0.00  0.00    +0.000 F 
ENDBRANCH  22  25
BRANCH  20  33
ATOM     33  N   UNL     1       2.084   7.041  20.973  0.00  0.00    +0.000 N 
ATOM     34  H   UNL     1       1.528   6.244  21.270  0.00  0.00    +0.000 HD
ATOM     35  H   UNL     1       2.906   7.226  21.555  0.00  0.00    +0.000 HD
ENDBRANCH  20  33
ENDBRANCH   1  24
TORSDOF 6
ENDMDL
MODEL 3
REMARK VINA RESULT:      -8.0      3.487      8.620
REMARK  Name = 
REMARK  6 active torsions:
REMARK  status: ('A' for Active; 'I' for Inactive)
REMARK    1  A    between atoms: N_1  and  C_2
REMARK    2  A    between atoms: C_4  and  C_5
REMARK    3  A    between atoms: C_14  and  C_15
REMARK    4  A    between atoms: N_17  and  C_18
REMARK    5  A    between atoms: C_23  and  C_24
REMARK    6  A    between atoms: C_28  and  N_29
REMARK                            x       y       z     vdW  Elec       q    Type
REMARK                         _______ _______ _______ _____ _____    ______ ____
ROOT
ATOM      1  C   UNL     1       2.538   8.037  18.119  0.00  0.00    +0.000 C 
ATOM      2  O   UNL     1       2.765   8.611  17.050  0.00  0.00    +0.000 OA
ATOM      3  N   UNL     1       3.125   6.793  18.409  0.00  0.00    +0.000 N 
ATOM      4  H   UNL     1       2.810   6.319  19.254  0.00  0.00    +0.000 HD
ENDROOT
BRANCH   3   5
ATOM      5  C   UNL     1       4.071   6.115  17.557  0.00  0.00    +0.000 A 
ATOM      6  C   UNL     1       5.225   6.831  17.193  0.00  0.00    +0.000 A 
ATOM      7  N   UNL     1       6.301   6.336  16.528  0.00  0.00    +0.000 NA
ATOM      8  C   UNL     1       6.244   5.037  16.188  0.00  0.00    +0.000 A 
ATOM      9  C   UNL     1       5.161   4.232  16.478  0.00  0.00    +0.000 A 
ATOM     10  C   UNL     1       4.024   4.743  17.164  0.00  0.00    +0.000 A 
BRANCH  10  11
ATOM     11  C   UNL     1       2.892   3.703  17.252  0.00  0.00    +0.000 C 
ATOM     12  C   UNL     1       1.603   4.157  17.934  0.00  0.00    +0.000 C 
ATOM     13  C   UNL     1       1.750   4.221  19.437  0.00  0.00    +0.000 C 
ATOM     14  C   UNL     1       2.485   3.015  20.051  0.00  0.00    +0.000 C 
ATOM     15  C   UNL     1       3.563   2.259  19.229  0.00  0.00    +0.000 C 
ATOM     16  C   UNL     1       3.258   2.298  17.743  0.00  0.00    +0.000 C 
BRANCH  15  17
ATOM     17  N   UNL     1       4.940   2.710  19.481  0.00  0.00    +0.000 NA
ATOM     18  H   UNL     1       5.573   2.353  18.758  0.00  0.00    +0.000 HD
ATOM     19  H   UNL     1       5.293   2.227  20.313  0.00  0.00    +0.000 HD
ENDBRANCH  15  17
ENDBRANCH  10  11
ENDBRANCH   3   5
BRANCH   1  24
ATOM     20  C   UNL     1       1.424   8.132  20.396  0.00  0.00    +0.000 A 
ATOM     21  S   UNL     1       0.270   9.030  21.274  0.00  0.00    +0.000 S 
ATOM     22  C   UNL     1      -0.016  10.042  19.914  0.00  0.00    +0.000 A 
ATOM     23  N   UNL     1       0.697   9.733  18.842  0.00  0.00    +0.000 NA
ATOM     24  C   UNL     1       1.550   8.625  19.095  0.00  0.00    +0.000 A 
BRANCH  22  25
ATOM     25  C   UNL     1      -0.954  11.193  20.080  0.00  0.00    +0.000 A 
ATOM     26  C   UNL     1      -0.717  12.177  21.045  0.00  0.00    +0.000 A 
ATOM     27  F   UNL     1       0.335  12.087  21.867  0.00  0.00    +0.000 F 
ATOM     28  C   UNL     1      -1.591  13.259  21.241  0.00  0.00    +0.000 A 
ATOM     29  C   UNL     1      -2.749  13.384  20.472  0.00  0.00    +0.000 A 
ATOM     30  C   UNL     1      -3.025  12.416  19.521  0.00  0.00    +0.000 A 
ATOM     31  C   UNL     1      -2.141  11.342  19.332  0.00  0.00    +0.000 A 
ATOM     32  F   UNL     1      -2.485  10.452  18.390  0.00  0.00    +0.000 F 
ENDBRANCH  22  25
BRANCH  20  33
ATOM     33  N   UNL     1       2.064   7.112  21.019  0.00  0.00    +0.000 N 
ATOM     34  H   UNL     1       1.668   6.720  21.869  0.00  0.00    +0.000 HD
ATOM     35  H   UNL     1       3.085   7.073  20.969  0.00  0.00    +0.000 HD
ENDBRANCH  20  33
ENDBRANCH   1  24
TORSDOF 6
ENDMDL
MODEL 4
REMARK VINA RESULT:      -8.0      0.061      1.508
REMARK  Name = 
REMARK  6 active torsions:
REMARK  status: ('A' for Active; 'I' for Inactive)
REMARK    1  A    between atoms: N_1  and  C_2
REMARK    2  A    between atoms: C_4  and  C_5
REMARK    3  A    between atoms: C_14  and  C_15
REMARK    4  A    between atoms: N_17  and  C_18
REMARK    5  A    between atoms: C_23  and  C_24
REMARK    6  A    between atoms: C_28  and  N_29
REMARK                            x       y       z     vdW  Elec       q    Type
REMARK                         _______ _______ _______ _____ _____    ______ ____
ROOT
ATOM      1  C   UNL     1       1.501   6.706  20.583  0.00  0.00    +0.000 C 
ATOM      2  O   UNL     1       0.381   6.251  20.831  0.00  0.00    +0.000 OA
ATOM      3  N   UNL     1       1.783   8.070  20.771  0.00  0.00    +0.000 N 
ATOM      4  H   UNL     1       2.688   8.405  20.441  0.00  0.00    +0.000 HD
ENDROOT
BRANCH   3   5
ATOM      5  C   UNL     1       0.856   9.031  21.317  0.00  0.00    +0.000 A 
ATOM      6  C   UNL     1       0.732   9.068  22.717  0.00  0.00    +0.000 A 
ATOM      7  N   UNL     1       0.036   9.986  23.438  0.00  0.00    +0.000 NA
ATOM      8  C   UNL     1      -0.592  10.943  22.733  0.00  0.00    +0.000 A 
ATOM      9  C   UNL     1      -0.555  11.007  21.354  0.00  0.00    +0.000 A 
ATOM     10  C   UNL     1       0.161  10.044  20.590  0.00  0.00    +0.000 A 
BRANCH  10  11
ATOM     11  C   UNL     1      -0.055  10.237  19.078  0.00  0.00    +0.000 C 
ATOM     12  C   UNL     1       0.843   9.418  18.153  0.00  0.00    +0.000 C 
ATOM     13  C   UNL     1       2.247   9.972  18.089  0.00  0.00    +0.000 C 
ATOM     14  C   UNL     1       2.316  11.505  17.961  0.00  0.00    +0.000 C 
ATOM     15  C   UNL     1       1.194  12.388  18.568  0.00  0.00    +0.000 C 
ATOM     16  C   UNL     1      -0.146  11.675  18.554  0.00  0.00    +0.000 C 
BRANCH  15  17
ATOM     17  N   UNL     1       1.488  12.895  19.918  0.00  0.00    +0.000 NA
ATOM     18  H   UNL     1       1.995  13.785  19.865  0.00  0.00    +0.000 HD
ATOM     19  H   UNL     1       2.194  12.287  20.346  0.00  0.00    +0.000 HD
ENDBRANCH  15  17
ENDBRANCH  10  11
ENDBRANCH   3   5
BRANCH   1  24
ATOM     20  C   UNL     1       2.804   4.532  20.481  0.00  0.00    +0.000 A 
ATOM     21  S   UNL     1       4.018   3.752  19.572  0.00  0.00    +0.000 S 
ATOM     22  C   UNL     1       4.173   5.126  18.551  0.00  0.00    +0.000 A 
ATOM     23  N   UNL     1       3.374   6.135  18.865  0.00  0.00    +0.000 NA
ATOM     24  C   UNL     1       2.562   5.815  19.985  0.00  0.00    +0.000 A 
BRANCH  22  25
ATOM     25  C   UNL     1       5.107   5.035  17.387  0.00  0.00    +0.000 A 
ATOM     26  C   UNL     1       6.313   5.742  17.382  0.00  0.00    +0.000 A 
ATOM     27  F   UNL     1       6.639   6.545  18.402  0.00  0.00    +0.000 F 
ATOM     28  C   UNL     1       7.202   5.698  16.295  0.00  0.00    +0.000 A 
ATOM     29  C   UNL     1       6.900   4.940  15.162  0.00  0.00    +0.000 A 
ATOM     30  C   UNL     1       5.703   4.243  15.127  0.00  0.00    +0.000 A 
ATOM     31  C   UNL     1       4.826   4.293  16.221  0.00  0.00    +0.000 A 
ATOM     32  F   UNL     1       3.691   3.589  16.102  0.00  0.00    +0.000 F 
ENDBRANCH  22  25
BRANCH  20  33
ATOM     33  N   UNL     1       2.234   3.862  21.512  0.00  0.00    +0.000 N 
ATOM     34  H   UNL     1       1.222   3.811  21.575  0.00  0.00    +0.000 HD
ATOM     35  H   UNL     1       2.717   3.852  22.415  0.00  0.00    +0.000 HD
ENDBRANCH  20  33
ENDBRANCH   1  24
TORSDOF 6
ENDMDL
MODEL 5
REMARK VINA RESULT:      -7.8      3.408      8.289
REMARK  Name = 
REMARK  6 active torsions:
REMARK  status: ('A' for Active; 'I' for Inactive)
REMARK    1  A    between atoms: N_1  and  C_2
REMARK    2  A    between atoms: C_4  and  C_5
REMARK    3  A    between atoms: C_14  and  C_15
REMARK    4  A    between atoms: N_17  and  C_18
REMARK    5  A    between atoms: C_23  and  C_24
REMARK    6  A    between atoms: C_28  and  N_29
REMARK                            x       y       z     vdW  Elec       q    Type
REMARK                         _______ _______ _______ _____ _____    ______ ____
ROOT
ATOM      1  C   UNL     1       2.189   7.768  18.150  0.00  0.00    +0.000 C 
ATOM      2  O   UNL     1       1.420   7.110  17.444  0.00  0.00    +0.000 OA
ATOM      3  N   UNL     1       3.530   7.382  18.312  0.00  0.00    +0.000 N 
ATOM      4  H   UNL     1       4.082   7.899  18.995  0.00  0.00    +0.000 HD
ENDROOT
BRANCH   3   5
ATOM      5  C   UNL     1       4.146   6.262  17.644  0.00  0.00    +0.000 A 
ATOM      6  C   UNL     1       4.748   6.518  16.399  0.00  0.00    +0.000 A 
ATOM      7  N   UNL     1       5.505   5.649  15.679  0.00  0.00    +0.000 NA
ATOM      8  C   UNL     1       5.685   4.431  16.216  0.00  0.00    +0.000 A 
ATOM      9  C   UNL     1       5.135   4.054  17.425  0.00  0.00    +0.000 A 
ATOM     10  C   UNL     1       4.332   4.952  18.182  0.00  0.00    +0.000 A 
BRANCH  10  11
ATOM     11  C   UNL     1       3.720   4.271  19.420  0.00  0.00    +0.000 C 
ATOM     12  C   UNL     1       4.162   2.835  19.693  0.00  0.00    +0.000 C 
ATOM     13  C   UNL     1       3.510   1.852  18.749  0.00  0.00    +0.000 C 
ATOM     14  C   UNL     1       2.005   2.096  18.524  0.00  0.00    +0.000 C 
ATOM     15  C   UNL     1       1.427   3.532  18.620  0.00  0.00    +0.000 C 
ATOM     16  C   UNL     1       2.204   4.380  19.611  0.00  0.00    +0.000 C 
BRANCH  15  17
ATOM     17  N   UNL     1       1.318   4.227  17.328  0.00  0.00    +0.000 NA
ATOM     18  H   UNL     1       1.387   3.559  16.554  0.00  0.00    +0.000 HD
ATOM     19  H   UNL     1       2.166   4.785  17.187  0.00  0.00    +0.000 HD
ENDBRANCH  15  17
ENDBRANCH  10  11
ENDBRANCH   3   5
BRANCH   1  24
ATOM     20  C   UNL     1       1.373   8.866  20.287  0.00  0.00    +0.000 A 
ATOM     21  S   UNL     1       0.861  10.375  20.894  0.00  0.00    +0.000 S 
ATOM     22  C   UNL     1       1.062  11.095  19.347  0.00  0.00    +0.000 A 
ATOM     23  N   UNL     1       1.478  10.262  18.405  0.00  0.00    +0.000 NA
ATOM     24  C   UNL     1       1.671   8.955  18.926  0.00  0.00    +0.000 A 
BRANCH  22  25
ATOM     25  C   UNL     1       0.834  12.567  19.221  0.00  0.00    +0.000 A 
ATOM     26  C   UNL     1      -0.438  13.113  19.417  0.00  0.00    +0.000 A 
ATOM     27  F   UNL     1      -1.486  12.325  19.684  0.00  0.00    +0.000 F 
ATOM     28  C   UNL     1      -0.690  14.489  19.284  0.00  0.00    +0.000 A 
ATOM     29  C   UNL     1       0.336  15.368  18.936  0.00  0.00    +0.000 A 
ATOM     30  C   UNL     1       1.604  14.857  18.714  0.00  0.00    +0.000 A 
ATOM     31  C   UNL     1       1.844  13.481  18.855  0.00  0.00    +0.000 A 
ATOM     32  F   UNL     1       3.100  13.073  18.622  0.00  0.00    +0.000 F 
ENDBRANCH  22  25
BRANCH  20  33
ATOM     33  N   UNL     1       1.442   7.813  21.139  0.00  0.00    +0.000 N 
ATOM     34  H   UNL     1       1.813   6.927  20.809  0.00  0.00    +0.000 HD
ATOM     35  H   UNL     1       0.731   7.730  21.870  0.00  0.00    +0.000 HD
ENDBRANCH  20  33
ENDBRANCH   1  24
TORSDOF 6
ENDMDL
MODEL 6
REMARK VINA RESULT:      -7.8      3.416      8.378
REMARK  Name = 
REMARK  6 active torsions:
REMARK  status: ('A' for Active; 'I' for Inactive)
REMARK    1  A    between atoms: N_1  and  C_2
REMARK    2  A    between atoms: C_4  and  C_5
REMARK    3  A    between atoms: C_14  and  C_15
REMARK    4  A    between atoms: N_17  and  C_18
REMARK    5  A    between atoms: C_23  and  C_24
REMARK    6  A    between atoms: C_28  and  N_29
REMARK                            x       y       z     vdW  Elec       q    Type
REMARK                         _______ _______ _______ _____ _____    ______ ____
ROOT
ATOM      1  C   UNL     1       2.174   7.764  18.141  0.00  0.00    +0.000 C 
ATOM      2  O   UNL     1       1.407   7.098  17.440  0.00  0.00    +0.000 OA
ATOM      3  N   UNL     1       3.519   7.387  18.299  0.00  0.00    +0.000 N 
ATOM      4  H   UNL     1       4.070   7.911  18.978  0.00  0.00    +0.000 HD
ENDROOT
BRANCH   3   5
ATOM      5  C   UNL     1       4.140   6.269  17.632  0.00  0.00    +0.000 A 
ATOM      6  C   UNL     1       4.740   6.526  16.386  0.00  0.00    +0.000 A 
ATOM      7  N   UNL     1       5.501   5.660  15.667  0.00  0.00    +0.000 NA
ATOM      8  C   UNL     1       5.687   4.444  16.206  0.00  0.00    +0.000 A 
ATOM      9  C   UNL     1       5.139   4.067  17.416  0.00  0.00    +0.000 A 
ATOM     10  C   UNL     1       4.333   4.962  18.172  0.00  0.00    +0.000 A 
BRANCH  10  11
ATOM     11  C   UNL     1       3.724   4.279  19.411  0.00  0.00    +0.000 C 
ATOM     12  C   UNL     1       4.172   2.845  19.686  0.00  0.00    +0.000 C 
ATOM     13  C   UNL     1       3.524   1.858  18.743  0.00  0.00    +0.000 C 
ATOM     14  C   UNL     1       2.019   2.095  18.519  0.00  0.00    +0.000 C 
ATOM     15  C   UNL     1       1.434   3.529  18.613  0.00  0.00    +0.000 C 
ATOM     16  C   UNL     1       2.207   4.382  19.602  0.00  0.00    +0.000 C 
BRANCH  15  17
ATOM     17  N   UNL     1       1.322   4.222  17.320  0.00  0.00    +0.000 NA
ATOM     18  H   UNL     1       1.556   3.586  16.550  0.00  0.00    +0.000 HD
ATOM     19  H   UNL     1       2.080   4.908  17.252  0.00  0.00    +0.000 HD
ENDBRANCH  15  17
ENDBRANCH  10  11
ENDBRANCH   3   5
BRANCH   1  24
ATOM     20  C   UNL     1       1.374   8.868  20.281  0.00  0.00    +0.000 A 
ATOM     21  S   UNL     1       0.851  10.375  20.883  0.00  0.00    +0.000 S 
ATOM     22  C   UNL     1       1.019  11.085  19.327  0.00  0.00    +0.000 A 
ATOM     23  N   UNL     1       1.432  10.250  18.385  0.00  0.00    +0.000 NA
ATOM     24  C   UNL     1       1.651   8.950  18.914  0.00  0.00    +0.000 A 
BRANCH  22  25
ATOM     25  C   UNL     1       0.768  12.552  19.192  0.00  0.00    +0.000 A 
ATOM     26  C   UNL     1       1.802  13.425  18.839  0.00  0.00    +0.000 A 
ATOM     27  F   UNL     1       3.046  12.969  18.650  0.00  0.00    +0.000 F 
ATOM     28  C   UNL     1       1.605  14.811  18.726  0.00  0.00    +0.000 A 
ATOM     29  C   UNL     1       0.352  15.373  18.978  0.00  0.00    +0.000 A 
ATOM     30  C   UNL     1      -0.689  14.539  19.350  0.00  0.00    +0.000 A 
ATOM     31  C   UNL     1      -0.480  13.155  19.454  0.00  0.00    +0.000 A 
ATOM     32  F   UNL     1      -1.542  12.422  19.820  0.00  0.00    +0.000 F 
ENDBRANCH  22  25
BRANCH  20  33
ATOM     33  N   UNL     1       1.471   7.824  21.140  0.00  0.00    +0.000 N 
ATOM     34  H   UNL     1       1.799   6.925  20.798  0.00  0.00    +0.000 HD
ATOM     35  H   UNL     1       0.805   7.767  21.915  0.00  0.00    +0.000 HD
ENDBRANCH  20  33
ENDBRANCH   1  24
TORSDOF 6
ENDMDL
MODEL 7
REMARK VINA RESULT:      -7.5      3.124      8.119
REMARK  Name = 
REMARK  6 active torsions:
REMARK  status: ('A' for Active; 'I' for Inactive)
REMARK    1  A    between atoms: N_1  and  C_2
REMARK    2  A    between atoms: C_4  and  C_5
REMARK    3  A    between atoms: C_14  and  C_15
REMARK    4  A    between atoms: N_17  and  C_18
REMARK    5  A    between atoms: C_23  and  C_24
REMARK    6  A    between atoms: C_28  and  N_29
REMARK                            x       y       z     vdW  Elec       q    Type
REMARK                         _______ _______ _______ _____ _____    ______ ____
ROOT
ATOM      1  C   UNL     1       3.354   6.737  18.846  0.00  0.00    +0.000 C 
ATOM      2  O   UNL     1       4.248   6.338  19.598  0.00  0.00    +0.000 OA
ATOM      3  N   UNL     1       3.376   6.433  17.474  0.00  0.00    +0.000 N 
ATOM      4  H   UNL     1       2.674   6.885  16.889  0.00  0.00    +0.000 HD
ENDROOT
BRANCH   3   5
ATOM      5  C   UNL     1       4.364   5.599  16.835  0.00  0.00    +0.000 A 
ATOM      6  C   UNL     1       5.542   6.231  16.400  0.00  0.00    +0.000 A 
ATOM      7  N   UNL     1       6.652   5.615  15.914  0.00  0.00    +0.000 NA
ATOM      8  C   UNL     1       6.605   4.274  15.844  0.00  0.00    +0.000 A 
ATOM      9  C   UNL     1       5.500   3.540  16.229  0.00  0.00    +0.000 A 
ATOM     10  C   UNL     1       4.330   4.175  16.729  0.00  0.00    +0.000 A 
BRANCH  10  11
ATOM     11  C   UNL     1       3.187   3.170  16.962  0.00  0.00    +0.000 C 
ATOM     12  C   UNL     1       1.855   3.752  17.430  0.00  0.00    +0.000 C 
ATOM     13  C   UNL     1       1.891   4.149  18.887  0.00  0.00    +0.000 C 
ATOM     14  C   UNL     1       2.570   3.116  19.807  0.00  0.00    +0.000 C 
ATOM     15  C   UNL     1       3.700   2.207  19.254  0.00  0.00    +0.000 C 
ATOM     16  C   UNL     1       3.506   1.913  17.778  0.00  0.00    +0.000 C 
BRANCH  15  17
ATOM     17  N   UNL     1       5.058   2.715  19.500  0.00  0.00    +0.000 NA
ATOM     18  H   UNL     1       5.754   2.119  19.040  0.00  0.00    +0.000 HD
ATOM     19  H   UNL     1       5.287   2.566  20.487  0.00  0.00    +0.000 HD
ENDBRANCH  15  17
ENDBRANCH  10  11
ENDBRANCH   3   5
BRANCH   1  24
ATOM     20  C   UNL     1       1.622   7.370  20.588  0.00  0.00    +0.000 A 
ATOM     21  S   UNL     1       0.485   8.588  20.950  0.00  0.00    +0.000 S 
ATOM     22  C   UNL     1       0.892   9.432  19.508  0.00  0.00    +0.000 A 
ATOM     23  N   UNL     1       1.820   8.842  18.771  0.00  0.00    +0.000 NA
ATOM     24  C   UNL     1       2.267   7.638  19.379  0.00  0.00    +0.000 A 
BRANCH  22  25
ATOM     25  C   UNL     1       0.241  10.754  19.260  0.00  0.00    +0.000 A 
ATOM     26  C   UNL     1      -0.801  10.876  18.336  0.00  0.00    +0.000 A 
ATOM     27  F   UNL     1      -1.212   9.819  17.626  0.00  0.00    +0.000 F 
ATOM     28  C   UNL     1      -1.419  12.108  18.062  0.00  0.00    +0.000 A 
ATOM     29  C   UNL     1      -0.998  13.272  18.709  0.00  0.00    +0.000 A 
ATOM     30  C   UNL     1       0.046  13.190  19.615  0.00  0.00    +0.000 A 
ATOM     31  C   UNL     1       0.651  11.951  19.883  0.00  0.00    +0.000 A 
ATOM     32  F   UNL     1       1.653  11.963  20.774  0.00  0.00    +0.000 F 
ENDBRANCH  22  25
BRANCH  20  33
ATOM     33  N   UNL     1       1.775   6.345  21.462  0.00  0.00    +0.000 N 
ATOM     34  H   UNL     1       1.121   5.568  21.440  0.00  0.00    +0.000 HD
ATOM     35  H   UNL     1       2.163   6.547  22.387  0.00  0.00    +0.000 HD
ENDBRANCH  20  33
ENDBRANCH   1  24
TORSDOF 6
ENDMDL
MODEL 8
REMARK VINA RESULT:      -7.5      3.148      8.255
REMARK  Name = 
REMARK  6 active torsions:
REMARK  status: ('A' for Active; 'I' for Inactive)
REMARK    1  A    between atoms: N_1  and  C_2
REMARK    2  A    between atoms: C_4  and  C_5
REMARK    3  A    between atoms: C_14  and  C_15
REMARK    4  A    between atoms: N_17  and  C_18
REMARK    5  A    between atoms: C_23  and  C_24
REMARK    6  A    between atoms: C_28  and  N_29
REMARK                            x       y       z     vdW  Elec       q    Type
REMARK                         _______ _______ _______ _____ _____    ______ ____
ROOT
ATOM      1  C   UNL     1       3.373   6.836  18.747  0.00  0.00    +0.000 C 
ATOM      2  O   UNL     1       4.196   6.395  19.555  0.00  0.00    +0.000 OA
ATOM      3  N   UNL     1       3.463   6.521  17.381  0.00  0.00    +0.000 N 
ATOM      4  H   UNL     1       2.824   7.005  16.751  0.00  0.00    +0.000 HD
ENDROOT
BRANCH   3   5
ATOM      5  C   UNL     1       4.442   5.630  16.808  0.00  0.00    +0.000 A 
ATOM      6  C   UNL     1       5.660   6.203  16.400  0.00  0.00    +0.000 A 
ATOM      7  N   UNL     1       6.763   5.531  15.978  0.00  0.00    +0.000 NA
ATOM      8  C   UNL     1       6.667   4.191  15.948  0.00  0.00    +0.000 A 
ATOM      9  C   UNL     1       5.521   3.512  16.312  0.00  0.00    +0.000 A 
ATOM     10  C   UNL     1       4.357   4.206  16.745  0.00  0.00    +0.000 A 
BRANCH  10  11
ATOM     11  C   UNL     1       3.169   3.252  16.964  0.00  0.00    +0.000 C 
ATOM     12  C   UNL     1       1.875   3.884  17.475  0.00  0.00    +0.000 C 
ATOM     13  C   UNL     1       1.954   4.228  18.944  0.00  0.00    +0.000 C 
ATOM     14  C   UNL     1       2.594   3.132  19.816  0.00  0.00    +0.000 C 
ATOM     15  C   UNL     1       3.668   2.187  19.214  0.00  0.00    +0.000 C 
ATOM     16  C   UNL     1       3.436   1.953  17.732  0.00  0.00    +0.000 C 
BRANCH  15  17
ATOM     17  N   UNL     1       5.054   2.617  19.453  0.00  0.00    +0.000 NA
ATOM     18  H   UNL     1       5.220   3.540  19.038  0.00  0.00    +0.000 HD
ATOM     19  H   UNL     1       5.678   2.030  18.890  0.00  0.00    +0.000 HD
ENDBRANCH  15  17
ENDBRANCH  10  11
ENDBRANCH   3   5
BRANCH   1  24
ATOM     20  C   UNL     1       1.640   7.625  20.424  0.00  0.00    +0.000 A 
ATOM     21  S   UNL     1       0.533   8.895  20.692  0.00  0.00    +0.000 S 
ATOM     22  C   UNL     1       0.978   9.633  19.205  0.00  0.00    +0.000 A 
ATOM     23  N   UNL     1       1.898   8.971  18.519  0.00  0.00    +0.000 NA
ATOM     24  C   UNL     1       2.305   7.798  19.208  0.00  0.00    +0.000 A 
BRANCH  22  25
ATOM     25  C   UNL     1       0.366  10.953  18.864  0.00  0.00    +0.000 A 
ATOM     26  C   UNL     1       1.115  12.131  18.944  0.00  0.00    +0.000 A 
ATOM     27  F   UNL     1       2.385  12.105  19.365  0.00  0.00    +0.000 F 
ATOM     28  C   UNL     1       0.564  13.389  18.653  0.00  0.00    +0.000 A 
ATOM     29  C   UNL     1      -0.775  13.508  18.276  0.00  0.00    +0.000 A 
ATOM     30  C   UNL     1      -1.551  12.363  18.207  0.00  0.00    +0.000 A 
ATOM     31  C   UNL     1      -0.987  11.111  18.496  0.00  0.00    +0.000 A 
ATOM     32  F   UNL     1      -1.809  10.055  18.403  0.00  0.00    +0.000 F 
ENDBRANCH  22  25
BRANCH  20  33
ATOM     33  N   UNL     1       1.756   6.656  21.364  0.00  0.00    +0.000 N 
ATOM     34  H   UNL     1       2.266   6.850  22.220  0.00  0.00    +0.000 HD
ATOM     35  H   UNL     1       1.796   5.681  21.056  0.00  0.00    +0.000 HD
ENDBRANCH  20  33
ENDBRANCH   1  24
TORSDOF 6
ENDMDL
MODEL 9
REMARK VINA RESULT:      -7.5      3.593      8.539
REMARK  Name = 
REMARK  6 active torsions:
REMARK  status: ('A' for Active; 'I' for Inactive)
REMARK    1  A    between atoms: N_1  and  C_2
REMARK    2  A    between atoms: C_4  and  C_5
REMARK    3  A    between atoms: C_14  and  C_15
REMARK    4  A    between atoms: N_17  and  C_18
REMARK    5  A    between atoms: C_23  and  C_24
REMARK    6  A    between atoms: C_28  and  N_29
REMARK                            x       y       z     vdW  Elec       q    Type
REMARK                         _______ _______ _______ _____ _____    ______ ____
ROOT
ATOM      1  C   UNL     1       2.294   8.261  18.283  0.00  0.00    +0.000 C 
ATOM      2  O   UNL     1       2.256   8.597  17.096  0.00  0.00    +0.000 OA
ATOM      3  N   UNL     1       2.969   7.094  18.682  0.00  0.00    +0.000 N 
ATOM      4  H   UNL     1       2.868   6.811  19.656  0.00  0.00    +0.000 HD
ENDROOT
BRANCH   3   5
ATOM      5  C   UNL     1       3.718   6.238  17.796  0.00  0.00    +0.000 A 
ATOM      6  C   UNL     1       4.848   6.799  17.175  0.00  0.00    +0.000 A 
ATOM      7  N   UNL     1       5.769   6.133  16.429  0.00  0.00    +0.000 NA
ATOM      8  C   UNL     1       5.566   4.814  16.274  0.00  0.00    +0.000 A 
ATOM      9  C   UNL     1       4.487   4.150  16.822  0.00  0.00    +0.000 A 
ATOM     10  C   UNL     1       3.512   4.839  17.596  0.00  0.00    +0.000 A 
BRANCH  10  11
ATOM     11  C   UNL     1       2.337   3.923  17.985  0.00  0.00    +0.000 C 
ATOM     12  C   UNL     1       1.439   4.414  19.118  0.00  0.00    +0.000 C 
ATOM     13  C   UNL     1       2.094   4.256  20.470  0.00  0.00    +0.000 C 
ATOM     14  C   UNL     1       2.808   2.906  20.672  0.00  0.00    +0.000 C 
ATOM     15  C   UNL     1       3.418   2.160  19.456  0.00  0.00    +0.000 C 
ATOM     16  C   UNL     1       2.636   2.434  18.184  0.00  0.00    +0.000 C 
BRANCH  15  17
ATOM     17  N   UNL     1       4.850   2.422  19.243  0.00  0.00    +0.000 NA
ATOM     18  H   UNL     1       5.094   3.364  19.565  0.00  0.00    +0.000 HD
ATOM     19  H   UNL     1       5.018   2.505  18.235  0.00  0.00    +0.000 HD
ENDBRANCH  15  17
ENDBRANCH  10  11
ENDBRANCH   3   5
BRANCH   1  24
ATOM     20  C   UNL     1       1.322   8.565  20.607  0.00  0.00    +0.000 A 
ATOM     21  S   UNL     1       0.483   9.706  21.557  0.00  0.00    +0.000 S 
ATOM     22  C   UNL     1       0.441  10.811  20.241  0.00  0.00    +0.000 A 
ATOM     23  N   UNL     1       1.009  10.363  19.131  0.00  0.00    +0.000 NA
ATOM     24  C   UNL     1       1.535   9.056  19.317  0.00  0.00    +0.000 A 
BRANCH  22  25
ATOM     25  C   UNL     1      -0.143  12.166  20.478  0.00  0.00    +0.000 A 
ATOM     26  C   UNL     1      -1.499  12.412  20.244  0.00  0.00    +0.000 A 
ATOM     27  F   UNL     1      -2.295  11.448  19.766  0.00  0.00    +0.000 F 
ATOM     28  C   UNL     1      -2.074  13.679  20.435  0.00  0.00    +0.000 A 
ATOM     29  C   UNL     1      -1.294  14.755  20.864  0.00  0.00    +0.000 A 
ATOM     30  C   UNL     1       0.058  14.551  21.085  0.00  0.00    +0.000 A 
ATOM     31  C   UNL     1       0.618  13.278  20.895  0.00  0.00    +0.000 A 
ATOM     32  F   UNL     1       1.934  13.170  21.132  0.00  0.00    +0.000 F 
ENDBRANCH  22  25
BRANCH  20  33
ATOM     33  N   UNL     1       1.679   7.386  21.173  0.00  0.00    +0.000 N 
ATOM     34  H   UNL     1       0.970   6.678  21.340  0.00  0.00    +0.000 HD
ATOM     35  H   UNL     1       2.451   7.382  21.845  0.00  0.00    +0.000 HD
ENDBRANCH  20  33
ENDBRANCH   1  24
TORSDOF 6
ENDMDL
