MODEL 1
REMARK VINA RESULT:      -8.3      0.000      0.000
REMARK  Name = 
REMARK  7 active torsions:
REMARK  status: ('A' for Active; 'I' for Inactive)
REMARK    1  A    between atoms: C_2  and  C_15
REMARK    2  A    between atoms: N_3  and  C_4
REMARK    3  A    between atoms: C_4  and  C_5
REMARK    4  A    between atoms: C_8  and  C_9
REMARK    5  A    between atoms: N_24  and  C_25
REMARK    6  A    between atoms: C_25  and  C_26
REMARK    7  A    between atoms: C_26  and  C_27
REMARK                            x       y       z     vdW  Elec       q    Type
REMARK                         _______ _______ _______ _____ _____    ______ ____
ROOT
ATOM      1  C   UNL     1       2.526   4.885  17.828  0.00  0.00    +0.000 C 
ATOM      2  C   UNL     1       2.140   4.167  19.086  0.00  0.00    +0.000 A 
ATOM      3  C   UNL     1       1.237   4.545  20.068  0.00  0.00    +0.000 A 
ATOM      4  C   UNL     1       1.091   3.716  21.184  0.00  0.00    +0.000 A 
ATOM      5  C   UNL     1       1.833   2.526  21.299  0.00  0.00    +0.000 A 
ATOM      6  C   UNL     1       2.729   2.144  20.297  0.00  0.00    +0.000 A 
ATOM      7  C   UNL     1       2.862   2.983  19.204  0.00  0.00    +0.000 A 
ATOM      8  C   UNL     1       3.747   2.862  18.032  0.00  0.00    +0.000 C 
ATOM      9  O   UNL     1       4.529   1.951  17.845  0.00  0.00    +0.000 OA
ATOM     10  N   UNL     1       3.512   3.969  17.234  0.00  0.00    +0.000 N 
ENDROOT
BRANCH   1  12
ATOM     11  O   UNL     1       4.133   6.530  18.598  0.00  0.00    +0.000 OA
ATOM     12  C   UNL     1       3.009   6.325  18.131  0.00  0.00    +0.000 C 
ATOM     13  N   UNL     1       2.178   7.350  17.737  0.00  0.00    +0.000 N 
ATOM     14  H   UNL     1       1.307   7.125  17.271  0.00  0.00    +0.000 HD
BRANCH  13  15
ATOM     15  C   UNL     1       2.489   8.737  17.998  0.00  0.00    +0.000 C 
BRANCH  15  16
ATOM     16  C   UNL     1       1.631   9.297  19.103  0.00  0.00    +0.000 A 
ATOM     17  C   UNL     1       1.360   8.542  20.251  0.00  0.00    +0.000 A 
ATOM     18  C   UNL     1       0.550   9.060  21.266  0.00  0.00    +0.000 A 
ATOM     19  C   UNL     1      -0.008  10.341  21.151  0.00  0.00    +0.000 A 
ATOM     20  C   UNL     1       0.271  11.099  20.003  0.00  0.00    +0.000 A 
ATOM     21  C   UNL     1       1.078  10.579  18.988  0.00  0.00    +0.000 A 
BRANCH  19  22
ATOM     22  C   UNL     1      -0.905  10.901  22.228  0.00  0.00    +0.000 C 
ATOM     23  F   UNL     1      -1.191  10.008  23.218  0.00  0.00    +0.000 F 
ATOM     24  F   UNL     1      -0.365  11.985  22.851  0.00  0.00    +0.000 F 
ATOM     25  F   UNL     1      -2.110  11.312  21.742  0.00  0.00    +0.000 F 
ENDBRANCH  19  22
ENDBRANCH  15  16
ENDBRANCH  13  15
ENDBRANCH   1  12
BRANCH  10  26
ATOM     26  C   UNL     1       4.264   4.357  16.046  0.00  0.00    +0.000 C 
BRANCH  26  27
ATOM     27  C   UNL     1       5.769   4.065  16.046  0.00  0.00    +0.000 C 
BRANCH  27  28
ATOM     28  C   UNL     1       6.529   5.082  16.879  0.00  0.00    +0.000 A 
ATOM     29  C   UNL     1       7.076   4.714  18.106  0.00  0.00    +0.000 A 
ATOM     30  C   UNL     1       7.778   5.667  18.845  0.00  0.00    +0.000 A 
ATOM     31  C   UNL     1       7.921   6.955  18.345  0.00  0.00    +0.000 A 
ATOM     32  C   UNL     1       7.349   7.241  17.121  0.00  0.00    +0.000 A 
ATOM     33  N   UNL     1       6.662   6.340  16.386  0.00  0.00    +0.000 NA
ENDBRANCH  27  28
ENDBRANCH  26  27
ENDBRANCH  10  26
TORSDOF 7
ENDMDL
MODEL 2
REMARK VINA RESULT:      -8.2      1.568      2.363
REMARK  Name = 
REMARK  7 active torsions:
REMARK  status: ('A' for Active; 'I' for Inactive)
REMARK    1  A    between atoms: C_2  and  C_15
REMARK    2  A    between atoms: N_3  and  C_4
REMARK    3  A    between atoms: C_4  and  C_5
REMARK    4  A    between atoms: C_8  and  C_9
REMARK    5  A    between atoms: N_24  and  C_25
REMARK    6  A    between atoms: C_25  and  C_26
REMARK    7  A    between atoms: C_26  and  C_27
REMARK                            x       y       z     vdW  Elec       q    Type
REMARK                         _______ _______ _______ _____ _____    ______ ____
ROOT
ATOM      1  C   UNL     1       3.997   5.023  17.373  0.00  0.00    +0.000 C 
ATOM      2  C   UNL     1       2.868   4.276  18.017  0.00  0.00    +0.000 A 
ATOM      3  C   UNL     1       1.528   4.237  17.663  0.00  0.00    +0.000 A 
ATOM      4  C   UNL     1       0.655   3.497  18.465  0.00  0.00    +0.000 A 
ATOM      5  C   UNL     1       1.127   2.802  19.593  0.00  0.00    +0.000 A 
ATOM      6  C   UNL     1       2.483   2.833  19.935  0.00  0.00    +0.000 A 
ATOM      7  C   UNL     1       3.328   3.577  19.130  0.00  0.00    +0.000 A 
ATOM      8  C   UNL     1       4.775   3.824  19.265  0.00  0.00    +0.000 C 
ATOM      9  O   UNL     1       5.473   3.379  20.154  0.00  0.00    +0.000 OA
ATOM     10  N   UNL     1       5.142   4.647  18.215  0.00  0.00    +0.000 N 
ENDROOT
BRANCH   1  12
ATOM     11  O   UNL     1       4.339   7.270  16.527  0.00  0.00    +0.000 OA
ATOM     12  C   UNL     1       3.678   6.535  17.266  0.00  0.00    +0.000 C 
ATOM     13  N   UNL     1       2.556   6.978  17.931  0.00  0.00    +0.000 N 
ATOM     14  H   UNL     1       1.996   6.311  18.448  0.00  0.00    +0.000 HD
BRANCH  13  15
ATOM     15  C   UNL     1       2.171   8.371  17.949  0.00  0.00    +0.000 C 
BRANCH  15  16
ATOM     16  C   UNL     1       1.562   8.760  19.270  0.00  0.00    +0.000 A 
ATOM     17  C   UNL     1       1.681   7.924  20.387  0.00  0.00    +0.000 A 
ATOM     18  C   UNL     1       1.100   8.281  21.607  0.00  0.00    +0.000 A 
ATOM     19  C   UNL     1       0.385   9.481  21.733  0.00  0.00    +0.000 A 
ATOM     20  C   UNL     1       0.273  10.321  20.615  0.00  0.00    +0.000 A 
ATOM     21  C   UNL     1       0.852   9.961  19.395  0.00  0.00    +0.000 A 
BRANCH  19  22
ATOM     22  C   UNL     1      -0.269   9.865  23.038  0.00  0.00    +0.000 C 
ATOM     23  F   UNL     1       0.474   9.545  24.136  0.00  0.00    +0.000 F 
ATOM     24  F   UNL     1      -0.510  11.203  23.130  0.00  0.00    +0.000 F 
ATOM     25  F   UNL     1      -1.475   9.256  23.217  0.00  0.00    +0.000 F 
ENDBRANCH  19  22
ENDBRANCH  15  16
ENDBRANCH  13  15
ENDBRANCH   1  12
BRANCH  10  26
ATOM     26  C   UNL     1       6.443   5.280  18.022  0.00  0.00    +0.000 C 
BRANCH  26  27
ATOM     27  C   UNL     1       7.486   4.496  17.217  0.00  0.00    +0.000 C 
BRANCH  27  28
ATOM     28  C   UNL     1       7.131   4.457  15.741  0.00  0.00    +0.000 A 
ATOM     29  C   UNL     1       6.162   3.571  15.277  0.00  0.00    +0.000 A 
ATOM     30  C   UNL     1       5.849   3.564  13.917  0.00  0.00    +0.000 A 
ATOM     31  C   UNL     1       6.502   4.440  13.058  0.00  0.00    +0.000 A 
ATOM     32  C   UNL     1       7.450   5.288  13.596  0.00  0.00    +0.000 A 
ATOM     33  N   UNL     1       7.775   5.314  14.907  0.00  0.00    +0.000 NA
ENDBRANCH  27  28
ENDBRANCH  26  27
ENDBRANCH  10  26
TORSDOF 7
ENDMDL
MODEL 3
REMARK VINA RESULT:      -8.2      0.528      1.089
REMARK  Name = 
REMARK  7 active torsions:
REMARK  status: ('A' for Active; 'I' for Inactive)
REMARK    1  A    between atoms: C_2  and  C_15
REMARK    2  A    between atoms: N_3  and  C_4
REMARK    3  A    between atoms: C_4  and  C_5
REMARK    4  A    between atoms: C_8  and  C_9
REMARK    5  A    between atoms: N_24  and  C_25
REMARK    6  A    between atoms: C_25  and  C_26
REMARK    7  A    between atoms: C_26  and  C_27
REMARK                            x       y       z     vdW  Elec       q    Type
REMARK                         _______ _______ _______ _____ _____    ______ ____
ROOT
ATOM      1  C   UNL     1       2.518   4.854  17.921  0.00  0.00    +0.000 C 
ATOM      2  C   UNL     1       2.140   4.166  19.198  0.00  0.00    +0.000 A 
ATOM      3  C   UNL     1       1.234   4.559  20.170  0.00  0.00    +0.000 A 
ATOM      4  C   UNL     1       1.098   3.760  21.308  0.00  0.00    +0.000 A 
ATOM      5  C   UNL     1       1.854   2.582  21.455  0.00  0.00    +0.000 A 
ATOM      6  C   UNL     1       2.754   2.183  20.463  0.00  0.00    +0.000 A 
ATOM      7  C   UNL     1       2.877   2.994  19.347  0.00  0.00    +0.000 A 
ATOM      8  C   UNL     1       3.762   2.851  18.178  0.00  0.00    +0.000 C 
ATOM      9  O   UNL     1       4.555   1.946  18.016  0.00  0.00    +0.000 OA
ATOM     10  N   UNL     1       3.514   3.934  17.351  0.00  0.00    +0.000 N 
ENDROOT
BRANCH   1  12
ATOM     11  O   UNL     1       4.089   6.536  18.683  0.00  0.00    +0.000 OA
ATOM     12  C   UNL     1       2.984   6.307  18.184  0.00  0.00    +0.000 C 
ATOM     13  N   UNL     1       2.164   7.312  17.720  0.00  0.00    +0.000 N 
ATOM     14  H   UNL     1       1.311   7.064  17.232  0.00  0.00    +0.000 HD
BRANCH  13  15
ATOM     15  C   UNL     1       2.460   8.710  17.938  0.00  0.00    +0.000 C 
BRANCH  15  16
ATOM     16  C   UNL     1       1.612   9.289  19.039  0.00  0.00    +0.000 A 
ATOM     17  C   UNL     1       1.364   8.561  20.210  0.00  0.00    +0.000 A 
ATOM     18  C   UNL     1       0.562   9.097  21.223  0.00  0.00    +0.000 A 
ATOM     19  C   UNL     1      -0.011  10.369  21.082  0.00  0.00    +0.000 A 
ATOM     20  C   UNL     1       0.244  11.099  19.912  0.00  0.00    +0.000 A 
ATOM     21  C   UNL     1       1.044  10.562  18.899  0.00  0.00    +0.000 A 
BRANCH  19  22
ATOM     22  C   UNL     1      -0.900  10.947  22.157  0.00  0.00    +0.000 C 
ATOM     23  F   UNL     1      -2.087  11.422  21.686  0.00  0.00    +0.000 F 
ATOM     24  F   UNL     1      -1.219  10.037  23.119  0.00  0.00    +0.000 F 
ATOM     25  F   UNL     1      -0.316  11.991  22.810  0.00  0.00    +0.000 F 
ENDBRANCH  19  22
ENDBRANCH  15  16
ENDBRANCH  13  15
ENDBRANCH   1  12
BRANCH  10  26
ATOM     26  C   UNL     1       4.260   4.299  16.152  0.00  0.00    +0.000 C 
BRANCH  26  27
ATOM     27  C   UNL     1       5.761   3.987  16.143  0.00  0.00    +0.000 C 
BRANCH  27  28
ATOM     28  C   UNL     1       6.535   4.968  17.006  0.00  0.00    +0.000 A 
ATOM     29  C   UNL     1       6.755   6.270  16.561  0.00  0.00    +0.000 A 
ATOM     30  C   UNL     1       7.461   7.153  17.379  0.00  0.00    +0.000 A 
ATOM     31  C   UNL     1       7.924   6.721  18.616  0.00  0.00    +0.000 A 
ATOM     32  C   UNL     1       7.665   5.416  18.985  0.00  0.00    +0.000 A 
ATOM     33  N   UNL     1       6.988   4.539  18.212  0.00  0.00    +0.000 NA
ENDBRANCH  27  28
ENDBRANCH  26  27
ENDBRANCH  10  26
TORSDOF 7
ENDMDL
MODEL 4
REMARK VINA RESULT:      -8.1      2.322      3.189
REMARK  Name = 
REMARK  7 active torsions:
REMARK  status: ('A' for Active; 'I' for Inactive)
REMARK    1  A    between atoms: C_2  and  C_15
REMARK    2  A    between atoms: N_3  and  C_4
REMARK    3  A    between atoms: C_4  and  C_5
REMARK    4  A    between atoms: C_8  and  C_9
REMARK    5  A    between atoms: N_24  and  C_25
REMARK    6  A    between atoms: C_25  and  C_26
REMARK    7  A    between atoms: C_26  and  C_27
REMARK                            x       y       z     vdW  Elec       q    Type
REMARK                         _______ _______ _______ _____ _____    ______ ____
ROOT
ATOM      1  C   UNL     1       2.873   5.745  18.372  0.00  0.00    +0.000 C 
ATOM      2  C   UNL     1       2.334   4.666  19.263  0.00  0.00    +0.000 A 
ATOM      3  C   UNL     1       1.046   4.488  19.742  0.00  0.00    +0.000 A 
ATOM      4  C   UNL     1       0.807   3.420  20.611  0.00  0.00    +0.000 A 
ATOM      5  C   UNL     1       1.845   2.543  20.976  0.00  0.00    +0.000 A 
ATOM      6  C   UNL     1       3.138   2.719  20.475  0.00  0.00    +0.000 A 
ATOM      7  C   UNL     1       3.353   3.788  19.622  0.00  0.00    +0.000 A 
ATOM      8  C   UNL     1       4.601   4.239  18.982  0.00  0.00    +0.000 C 
ATOM      9  O   UNL     1       5.683   3.703  19.117  0.00  0.00    +0.000 OA
ATOM     10  N   UNL     1       4.288   5.366  18.239  0.00  0.00    +0.000 N 
ENDROOT
BRANCH   1  12
ATOM     11  O   UNL     1       2.619   7.349  20.173  0.00  0.00    +0.000 OA
ATOM     12  C   UNL     1       2.582   7.150  18.955  0.00  0.00    +0.000 C 
ATOM     13  N   UNL     1       2.409   8.171  18.047  0.00  0.00    +0.000 N 
ATOM     14  H   UNL     1       2.482   7.967  17.058  0.00  0.00    +0.000 HD
BRANCH  13  15
ATOM     15  C   UNL     1       2.088   9.520  18.458  0.00  0.00    +0.000 C 
BRANCH  15  16
ATOM     16  C   UNL     1       0.617   9.808  18.309  0.00  0.00    +0.000 A 
ATOM     17  C   UNL     1      -0.095   9.343  17.196  0.00  0.00    +0.000 A 
ATOM     18  C   UNL     1      -1.456   9.626  17.054  0.00  0.00    +0.000 A 
ATOM     19  C   UNL     1      -2.132  10.385  18.020  0.00  0.00    +0.000 A 
ATOM     20  C   UNL     1      -1.419  10.844  19.138  0.00  0.00    +0.000 A 
ATOM     21  C   UNL     1      -0.057  10.562  19.278  0.00  0.00    +0.000 A 
BRANCH  19  22
ATOM     22  C   UNL     1      -3.595  10.721  17.865  0.00  0.00    +0.000 C 
ATOM     23  F   UNL     1      -3.931  11.130  16.609  0.00  0.00    +0.000 F 
ATOM     24  F   UNL     1      -4.408   9.663  18.140  0.00  0.00    +0.000 F 
ATOM     25  F   UNL     1      -3.991  11.723  18.699  0.00  0.00    +0.000 F 
ENDBRANCH  19  22
ENDBRANCH  15  16
ENDBRANCH  13  15
ENDBRANCH   1  12
BRANCH  10  26
ATOM     26  C   UNL     1       5.231   6.245  17.556  0.00  0.00    +0.000 C 
BRANCH  26  27
ATOM     27  C   UNL     1       6.601   5.656  17.203  0.00  0.00    +0.000 C 
BRANCH  27  28
ATOM     28  C   UNL     1       6.612   5.087  15.794  0.00  0.00    +0.000 A 
ATOM     29  C   UNL     1       5.728   4.070  15.443  0.00  0.00    +0.000 A 
ATOM     30  C   UNL     1       5.753   3.573  14.140  0.00  0.00    +0.000 A 
ATOM     31  C   UNL     1       6.651   4.103  13.221  0.00  0.00    +0.000 A 
ATOM     32  C   UNL     1       7.495   5.110  13.647  0.00  0.00    +0.000 A 
ATOM     33  N   UNL     1       7.494   5.607  14.902  0.00  0.00    +0.000 NA
ENDBRANCH  27  28
ENDBRANCH  26  27
ENDBRANCH  10  26
TORSDOF 7
ENDMDL
MODEL 5
REMARK VINA RESULT:      -8.1      5.091      8.348
REMARK  Name = 
REMARK  7 active torsions:
REMARK  status: ('A' for Active; 'I' for Inactive)
REMARK    1  A    between atoms: C_2  and  C_15
REMARK    2  A    between atoms: N_3  and  C_4
REMARK    3  A    between atoms: C_4  and  C_5
REMARK    4  A    between atoms: C_8  and  C_9
REMARK    5  A    between atoms: N_24  and  C_25
REMARK    6  A    between atoms: C_25  and  C_26
REMARK    7  A    between atoms: C_26  and  C_27
REMARK                            x       y       z     vdW  Elec       q    Type
REMARK                         _______ _______ _______ _____ _____    ______ ____
ROOT
ATOM      1  C   UNL     1       2.377   6.311  19.103  0.00  0.00    +0.000 C 
ATOM      2  C   UNL     1       2.175   7.750  18.735  0.00  0.00    +0.000 A 
ATOM      3  C   UNL     1       2.562   8.423  17.587  0.00  0.00    +0.000 A 
ATOM      4  C   UNL     1       2.300   9.794  17.505  0.00  0.00    +0.000 A 
ATOM      5  C   UNL     1       1.650  10.466  18.556  0.00  0.00    +0.000 A 
ATOM      6  C   UNL     1       1.248   9.777  19.704  0.00  0.00    +0.000 A 
ATOM      7  C   UNL     1       1.524   8.422  19.766  0.00  0.00    +0.000 A 
ATOM      8  C   UNL     1       1.261   7.460  20.851  0.00  0.00    +0.000 C 
ATOM      9  O   UNL     1       0.729   7.737  21.908  0.00  0.00    +0.000 OA
ATOM     10  N   UNL     1       1.745   6.234  20.428  0.00  0.00    +0.000 N 
ENDROOT
BRANCH   1  12
ATOM     11  O   UNL     1       4.629   6.104  19.981  0.00  0.00    +0.000 OA
ATOM     12  C   UNL     1       3.873   5.917  19.023  0.00  0.00    +0.000 C 
ATOM     13  N   UNL     1       4.274   5.243  17.890  0.00  0.00    +0.000 N 
ATOM     14  H   UNL     1       3.588   5.033  17.175  0.00  0.00    +0.000 HD
BRANCH  13  15
ATOM     15  C   UNL     1       5.650   4.857  17.671  0.00  0.00    +0.000 C 
BRANCH  15  16
ATOM     16  C   UNL     1       5.920   4.577  16.216  0.00  0.00    +0.000 A 
ATOM     17  C   UNL     1       7.001   5.180  15.559  0.00  0.00    +0.000 A 
ATOM     18  C   UNL     1       7.238   4.930  14.205  0.00  0.00    +0.000 A 
ATOM     19  C   UNL     1       6.395   4.076  13.478  0.00  0.00    +0.000 A 
ATOM     20  C   UNL     1       5.317   3.468  14.139  0.00  0.00    +0.000 A 
ATOM     21  C   UNL     1       5.079   3.721  15.493  0.00  0.00    +0.000 A 
BRANCH  19  22
ATOM     22  C   UNL     1       6.625   3.819  12.008  0.00  0.00    +0.000 C 
ATOM     23  F   UNL     1       7.498   4.693  11.432  0.00  0.00    +0.000 F 
ATOM     24  F   UNL     1       7.129   2.577  11.765  0.00  0.00    +0.000 F 
ATOM     25  F   UNL     1       5.478   3.906  11.278  0.00  0.00    +0.000 F 
ENDBRANCH  19  22
ENDBRANCH  15  16
ENDBRANCH  13  15
ENDBRANCH   1  12
BRANCH  10  26
ATOM     26  C   UNL     1       1.843   5.017  21.228  0.00  0.00    +0.000 C 
BRANCH  26  27
ATOM     27  C   UNL     1       1.138   3.768  20.686  0.00  0.00    +0.000 C 
BRANCH  27  28
ATOM     28  C   UNL     1       2.045   2.981  19.756  0.00  0.00    +0.000 A 
ATOM     29  C   UNL     1       1.640   2.701  18.453  0.00  0.00    +0.000 A 
ATOM     30  C   UNL     1       2.498   1.985  17.618  0.00  0.00    +0.000 A 
ATOM     31  C   UNL     1       3.734   1.571  18.098  0.00  0.00    +0.000 A 
ATOM     32  C   UNL     1       4.063   1.888  19.401  0.00  0.00    +0.000 A 
ATOM     33  N   UNL     1       3.251   2.576  20.232  0.00  0.00    +0.000 NA
ENDBRANCH  27  28
ENDBRANCH  26  27
ENDBRANCH  10  26
TORSDOF 7
ENDMDL
MODEL 6
REMARK VINA RESULT:      -8.1      4.966      9.656
REMARK  Name = 
REMARK  7 active torsions:
REMARK  status: ('A' for Active; 'I' for Inactive)
REMARK    1  A    between atoms: C_2  and  C_15
REMARK    2  A    between atoms: N_3  and  C_4
REMARK    3  A    between atoms: C_4  and  C_5
REMARK    4  A    between atoms: C_8  and  C_9
REMARK    5  A    between atoms: N_24  and  C_25
REMARK    6  A    between atoms: C_25  and  C_26
REMARK    7  A    between atoms: C_26  and  C_27
REMARK                            x       y       z     vdW  Elec       q    Type
REMARK                         _______ _______ _______ _____ _____    ______ ____
ROOT
ATOM      1  C   UNL     1       0.298  11.893  19.195  0.00  0.00    +0.000 C 
ATOM      2  C   UNL     1       1.307  12.949  18.855  0.00  0.00    +0.000 A 
ATOM      3  C   UNL     1       2.610  12.803  18.407  0.00  0.00    +0.000 A 
ATOM      4  C   UNL     1       3.373  13.958  18.210  0.00  0.00    +0.000 A 
ATOM      5  C   UNL     1       2.826  15.232  18.450  0.00  0.00    +0.000 A 
ATOM      6  C   UNL     1       1.505  15.371  18.886  0.00  0.00    +0.000 A 
ATOM      7  C   UNL     1       0.771  14.214  19.081  0.00  0.00    +0.000 A 
ATOM      8  C   UNL     1      -0.611  14.052  19.567  0.00  0.00    +0.000 C 
ATOM      9  O   UNL     1      -1.346  14.966  19.883  0.00  0.00    +0.000 OA
ATOM     10  N   UNL     1      -0.868  12.692  19.600  0.00  0.00    +0.000 N 
ENDROOT
BRANCH   1  12
ATOM     11  O   UNL     1       1.174  11.284  21.372  0.00  0.00    +0.000 OA
ATOM     12  C   UNL     1       0.859  10.900  20.243  0.00  0.00    +0.000 C 
ATOM     13  N   UNL     1       0.863   9.568  19.890  0.00  0.00    +0.000 N 
ATOM     14  H   UNL     1       0.503   9.299  18.983  0.00  0.00    +0.000 HD
BRANCH  13  15
ATOM     15  C   UNL     1       1.399   8.544  20.758  0.00  0.00    +0.000 C 
BRANCH  15  16
ATOM     16  C   UNL     1       1.911   7.366  19.972  0.00  0.00    +0.000 A 
ATOM     17  C   UNL     1       2.477   7.543  18.703  0.00  0.00    +0.000 A 
ATOM     18  C   UNL     1       2.936   6.445  17.970  0.00  0.00    +0.000 A 
ATOM     19  C   UNL     1       2.834   5.147  18.490  0.00  0.00    +0.000 A 
ATOM     20  C   UNL     1       2.274   4.971  19.764  0.00  0.00    +0.000 A 
ATOM     21  C   UNL     1       1.812   6.070  20.495  0.00  0.00    +0.000 A 
BRANCH  19  22
ATOM     22  C   UNL     1       3.302   3.950  17.698  0.00  0.00    +0.000 C 
ATOM     23  F   UNL     1       2.364   3.467  16.834  0.00  0.00    +0.000 F 
ATOM     24  F   UNL     1       4.401   4.220  16.939  0.00  0.00    +0.000 F 
ATOM     25  F   UNL     1       3.648   2.900  18.494  0.00  0.00    +0.000 F 
ENDBRANCH  19  22
ENDBRANCH  15  16
ENDBRANCH  13  15
ENDBRANCH   1  12
BRANCH  10  26
ATOM     26  C   UNL     1      -2.052  12.046  20.157  0.00  0.00    +0.000 C 
BRANCH  26  27
ATOM     27  C   UNL     1      -3.348  12.145  19.344  0.00  0.00    +0.000 C 
BRANCH  27  28
ATOM     28  C   UNL     1      -3.254  11.347  18.055  0.00  0.00    +0.000 A 
ATOM     29  C   UNL     1      -2.383  10.264  17.963  0.00  0.00    +0.000 A 
ATOM     30  C   UNL     1      -2.325   9.544  16.770  0.00  0.00    +0.000 A 
ATOM     31  C   UNL     1      -3.135   9.915  15.703  0.00  0.00    +0.000 A 
ATOM     32  C   UNL     1      -3.971  11.001  15.873  0.00  0.00    +0.000 A 
ATOM     33  N   UNL     1      -4.046  11.718  17.015  0.00  0.00    +0.000 NA
ENDBRANCH  27  28
ENDBRANCH  26  27
ENDBRANCH  10  26
TORSDOF 7
ENDMDL
MODEL 7
REMARK VINA RESULT:      -8.1      5.064      9.902
REMARK  Name = 
REMARK  7 active torsions:
REMARK  status: ('A' for Active; 'I' for Inactive)
REMARK    1  A    between atoms: C_2  and  C_15
REMARK    2  A    between atoms: N_3  and  C_4
REMARK    3  A    between atoms: C_4  and  C_5
REMARK    4  A    between atoms: C_8  and  C_9
REMARK    5  A    between atoms: N_24  and  C_25
REMARK    6  A    between atoms: C_25  and  C_26
REMARK    7  A    between atoms: C_26  and  C_27
REMARK                            x       y       z     vdW  Elec       q    Type
REMARK                         _______ _______ _______ _____ _____    ______ ____
ROOT
ATOM      1  C   UNL     1      -0.944  10.325  19.247  0.00  0.00    +0.000 C 
ATOM      2  C   UNL     1      -1.955  10.411  18.143  0.00  0.00    +0.000 A 
ATOM      3  C   UNL     1      -2.072   9.634  17.000  0.00  0.00    +0.000 A 
ATOM      4  C   UNL     1      -3.081   9.953  16.087  0.00  0.00    +0.000 A 
ATOM      5  C   UNL     1      -3.959  11.025  16.330  0.00  0.00    +0.000 A 
ATOM      6  C   UNL     1      -3.845  11.793  17.492  0.00  0.00    +0.000 A 
ATOM      7  C   UNL     1      -2.834  11.464  18.379  0.00  0.00    +0.000 A 
ATOM      8  C   UNL     1      -2.452  12.111  19.646  0.00  0.00    +0.000 C 
ATOM      9  O   UNL     1      -3.005  13.082  20.123  0.00  0.00    +0.000 OA
ATOM     10  N   UNL     1      -1.365  11.411  20.143  0.00  0.00    +0.000 N 
ENDROOT
BRANCH   1  12
ATOM     11  O   UNL     1       1.055  11.489  18.521  0.00  0.00    +0.000 OA
ATOM     12  C   UNL     1       0.500  10.400  18.691  0.00  0.00    +0.000 C 
ATOM     13  N   UNL     1       1.160   9.203  18.524  0.00  0.00    +0.000 N 
ATOM     14  H   UNL     1       0.687   8.343  18.769  0.00  0.00    +0.000 HD
BRANCH  13  15
ATOM     15  C   UNL     1       2.495   9.131  17.973  0.00  0.00    +0.000 C 
BRANCH  15  16
ATOM     16  C   UNL     1       2.961   7.705  17.839  0.00  0.00    +0.000 A 
ATOM     17  C   UNL     1       2.272   6.664  18.473  0.00  0.00    +0.000 A 
ATOM     18  C   UNL     1       2.718   5.344  18.359  0.00  0.00    +0.000 A 
ATOM     19  C   UNL     1       3.865   5.040  17.612  0.00  0.00    +0.000 A 
ATOM     20  C   UNL     1       4.549   6.083  16.971  0.00  0.00    +0.000 A 
ATOM     21  C   UNL     1       4.105   7.403  17.088  0.00  0.00    +0.000 A 
BRANCH  19  22
ATOM     22  C   UNL     1       4.371   3.622  17.503  0.00  0.00    +0.000 C 
ATOM     23  F   UNL     1       5.462   3.493  16.695  0.00  0.00    +0.000 F 
ATOM     24  F   UNL     1       4.737   3.101  18.707  0.00  0.00    +0.000 F 
ATOM     25  F   UNL     1       3.434   2.771  16.998  0.00  0.00    +0.000 F 
ENDBRANCH  19  22
ENDBRANCH  15  16
ENDBRANCH  13  15
ENDBRANCH   1  12
BRANCH  10  26
ATOM     26  C   UNL     1      -0.551  11.778  21.297  0.00  0.00    +0.000 C 
BRANCH  26  27
ATOM     27  C   UNL     1      -1.071  11.361  22.678  0.00  0.00    +0.000 C 
BRANCH  27  28
ATOM     28  C   UNL     1      -1.872  12.476  23.327  0.00  0.00    +0.000 A 
ATOM     29  C   UNL     1      -3.199  12.263  23.693  0.00  0.00    +0.000 A 
ATOM     30  C   UNL     1      -3.907  13.302  24.297  0.00  0.00    +0.000 A 
ATOM     31  C   UNL     1      -3.279  14.520  24.524  0.00  0.00    +0.000 A 
ATOM     32  C   UNL     1      -1.961  14.652  24.132  0.00  0.00    +0.000 A 
ATOM     33  N   UNL     1      -1.252  13.665  23.543  0.00  0.00    +0.000 NA
ENDBRANCH  27  28
ENDBRANCH  26  27
ENDBRANCH  10  26
TORSDOF 7
ENDMDL
MODEL 8
REMARK VINA RESULT:      -8.0      1.752      2.452
REMARK  Name = 
REMARK  7 active torsions:
REMARK  status: ('A' for Active; 'I' for Inactive)
REMARK    1  A    between atoms: C_2  and  C_15
REMARK    2  A    between atoms: N_3  and  C_4
REMARK    3  A    between atoms: C_4  and  C_5
REMARK    4  A    between atoms: C_8  and  C_9
REMARK    5  A    between atoms: N_24  and  C_25
REMARK    6  A    between atoms: C_25  and  C_26
REMARK    7  A    between atoms: C_26  and  C_27
REMARK                            x       y       z     vdW  Elec       q    Type
REMARK                         _______ _______ _______ _____ _____    ______ ____
ROOT
ATOM      1  C   UNL     1       2.936   4.609  17.686  0.00  0.00    +0.000 C 
ATOM      2  C   UNL     1       2.564   3.871  18.938  0.00  0.00    +0.000 A 
ATOM      3  C   UNL     1       1.308   3.517  19.406  0.00  0.00    +0.000 A 
ATOM      4  C   UNL     1       1.223   2.871  20.642  0.00  0.00    +0.000 A 
ATOM      5  C   UNL     1       2.383   2.578  21.383  0.00  0.00    +0.000 A 
ATOM      6  C   UNL     1       3.647   2.924  20.896  0.00  0.00    +0.000 A 
ATOM      7  C   UNL     1       3.707   3.569  19.673  0.00  0.00    +0.000 A 
ATOM      8  C   UNL     1       4.878   4.082  18.940  0.00  0.00    +0.000 C 
ATOM      9  O   UNL     1       6.027   4.004  19.328  0.00  0.00    +0.000 OA
ATOM     10  N   UNL     1       4.402   4.660  17.775  0.00  0.00    +0.000 N 
ENDROOT
BRANCH   1  12
ATOM     11  O   UNL     1       1.016   6.021  17.239  0.00  0.00    +0.000 OA
ATOM     12  C   UNL     1       2.196   5.967  17.596  0.00  0.00    +0.000 C 
ATOM     13  N   UNL     1       2.879   7.072  18.053  0.00  0.00    +0.000 N 
ATOM     14  H   UNL     1       3.813   6.954  18.425  0.00  0.00    +0.000 HD
BRANCH  13  15
ATOM     15  C   UNL     1       2.320   8.404  17.985  0.00  0.00    +0.000 C 
BRANCH  15  16
ATOM     16  C   UNL     1       1.668   8.796  19.285  0.00  0.00    +0.000 A 
ATOM     17  C   UNL     1       1.771   7.974  20.415  0.00  0.00    +0.000 A 
ATOM     18  C   UNL     1       1.150   8.335  21.614  0.00  0.00    +0.000 A 
ATOM     19  C   UNL     1       0.410   9.522  21.706  0.00  0.00    +0.000 A 
ATOM     20  C   UNL     1       0.314  10.348  20.576  0.00  0.00    +0.000 A 
ATOM     21  C   UNL     1       0.932   9.985  19.376  0.00  0.00    +0.000 A 
BRANCH  19  22
ATOM     22  C   UNL     1      -0.287   9.909  22.988  0.00  0.00    +0.000 C 
ATOM     23  F   UNL     1      -1.520   9.345  23.131  0.00  0.00    +0.000 F 
ATOM     24  F   UNL     1       0.416   9.548  24.097  0.00  0.00    +0.000 F 
ATOM     25  F   UNL     1      -0.481  11.254  23.090  0.00  0.00    +0.000 F 
ENDBRANCH  19  22
ENDBRANCH  15  16
ENDBRANCH  13  15
ENDBRANCH   1  12
BRANCH  10  26
ATOM     26  C   UNL     1       5.178   5.432  16.810  0.00  0.00    +0.000 C 
BRANCH  26  27
ATOM     27  C   UNL     1       6.583   4.918  16.474  0.00  0.00    +0.000 C 
BRANCH  27  28
ATOM     28  C   UNL     1       6.744   4.685  14.982  0.00  0.00    +0.000 A 
ATOM     29  C   UNL     1       5.907   3.791  14.318  0.00  0.00    +0.000 A 
ATOM     30  C   UNL     1       6.072   3.605  12.945  0.00  0.00    +0.000 A 
ATOM     31  C   UNL     1       7.058   4.313  12.270  0.00  0.00    +0.000 A 
ATOM     32  C   UNL     1       7.847   5.180  12.999  0.00  0.00    +0.000 A 
ATOM     33  N   UNL     1       7.712   5.378  14.329  0.00  0.00    +0.000 NA
ENDBRANCH  27  28
ENDBRANCH  26  27
ENDBRANCH  10  26
TORSDOF 7
ENDMDL
MODEL 9
REMARK VINA RESULT:      -8.0      5.005      9.866
REMARK  Name = 
REMARK  7 active torsions:
REMARK  status: ('A' for Active; 'I' for Inactive)
REMARK    1  A    between atoms: C_2  and  C_15
REMARK    2  A    between atoms: N_3  and  C_4
REMARK    3  A    between atoms: C_4  and  C_5
REMARK    4  A    between atoms: C_8  and  C_9
REMARK    5  A    between atoms: N_24  and  C_25
REMARK    6  A    between atoms: C_25  and  C_26
REMARK    7  A    between atoms: C_26  and  C_27
REMARK                            x       y       z     vdW  Elec       q    Type
REMARK                         _______ _______ _______ _____ _____    ______ ____
ROOT
ATOM      1  C   UNL     1      -1.099  10.328  19.176  0.00  0.00    +0.000 C 
ATOM      2  C   UNL     1      -2.145  10.439  18.108  0.00  0.00    +0.000 A 
ATOM      3  C   UNL     1      -2.299   9.690  16.952  0.00  0.00    +0.000 A 
ATOM      4  C   UNL     1      -3.338  10.028  16.080  0.00  0.00    +0.000 A 
ATOM      5  C   UNL     1      -4.209  11.092  16.377  0.00  0.00    +0.000 A 
ATOM      6  C   UNL     1      -4.058  11.831  17.553  0.00  0.00    +0.000 A 
ATOM      7  C   UNL     1      -3.019  11.483  18.399  0.00  0.00    +0.000 A 
ATOM      8  C   UNL     1      -2.596  12.100  19.668  0.00  0.00    +0.000 C 
ATOM      9  O   UNL     1      -3.135  13.058  20.187  0.00  0.00    +0.000 OA
ATOM     10  N   UNL     1      -1.492  11.392  20.112  0.00  0.00    +0.000 N 
ENDROOT
BRANCH   1  12
ATOM     11  O   UNL     1       0.856  11.517  18.374  0.00  0.00    +0.000 OA
ATOM     12  C   UNL     1       0.326  10.421  18.576  0.00  0.00    +0.000 C 
ATOM     13  N   UNL     1       1.002   9.234  18.405  0.00  0.00    +0.000 N 
ATOM     14  H   UNL     1       0.551   8.368  18.676  0.00  0.00    +0.000 HD
BRANCH  13  15
ATOM     15  C   UNL     1       2.320   9.177  17.815  0.00  0.00    +0.000 C 
BRANCH  15  16
ATOM     16  C   UNL     1       2.959   7.829  18.018  0.00  0.00    +0.000 A 
ATOM     17  C   UNL     1       4.006   7.400  17.192  0.00  0.00    +0.000 A 
ATOM     18  C   UNL     1       4.585   6.141  17.375  0.00  0.00    +0.000 A 
ATOM     19  C   UNL     1       4.126   5.283  18.385  0.00  0.00    +0.000 A 
ATOM     20  C   UNL     1       3.083   5.717  19.216  0.00  0.00    +0.000 A 
ATOM     21  C   UNL     1       2.502   6.975  19.031  0.00  0.00    +0.000 A 
BRANCH  19  22
ATOM     22  C   UNL     1       4.726   3.911  18.575  0.00  0.00    +0.000 C 
ATOM     23  F   UNL     1       4.227   2.974  17.719  0.00  0.00    +0.000 F 
ATOM     24  F   UNL     1       6.075   3.898  18.393  0.00  0.00    +0.000 F 
ATOM     25  F   UNL     1       4.513   3.419  19.827  0.00  0.00    +0.000 F 
ENDBRANCH  19  22
ENDBRANCH  15  16
ENDBRANCH  13  15
ENDBRANCH   1  12
BRANCH  10  26
ATOM     26  C   UNL     1      -0.642  11.733  21.248  0.00  0.00    +0.000 C 
BRANCH  26  27
ATOM     27  C   UNL     1      -1.136  11.315  22.638  0.00  0.00    +0.000 C 
BRANCH  27  28
ATOM     28  C   UNL     1      -1.926  12.430  23.302  0.00  0.00    +0.000 A 
ATOM     29  C   UNL     1      -3.257  12.229  23.658  0.00  0.00    +0.000 A 
ATOM     30  C   UNL     1      -3.955  13.267  24.275  0.00  0.00    +0.000 A 
ATOM     31  C   UNL     1      -3.313  14.473  24.525  0.00  0.00    +0.000 A 
ATOM     32  C   UNL     1      -1.991  14.594  24.142  0.00  0.00    +0.000 A 
ATOM     33  N   UNL     1      -1.292  13.607  23.540  0.00  0.00    +0.000 NA
ENDBRANCH  27  28
ENDBRANCH  26  27
ENDBRANCH  10  26
TORSDOF 7
ENDMDL
