MODEL 1
REMARK VINA RESULT:      -7.8      0.000      0.000
REMARK  Name = 
REMARK  7 active torsions:
REMARK  status: ('A' for Active; 'I' for Inactive)
REMARK    1  A    between atoms: C_1  and  N_2
REMARK    2  A    between atoms: C_6  and  C_8
REMARK    3  A    between atoms: C_8  and  O_9
REMARK    4  A    between atoms: O_9  and  C_10
REMARK    5  A    between atoms: C_13  and  S_14
REMARK    6  A    between atoms: S_14  and  C_17
REMARK    7  A    between atoms: C_18  and  C_19
REMARK                            x       y       z     vdW  Elec       q    Type
REMARK                         _______ _______ _______ _____ _____    ______ ____
ROOT
ATOM      1  C   UNL     1       2.152   6.998  19.880  0.00  0.00    +0.000 A 
ATOM      2  C   UNL     1       1.571   7.459  21.053  0.00  0.00    +0.000 A 
ATOM      3  C   UNL     1       1.060   8.743  21.158  0.00  0.00    +0.000 A 
ATOM      4  C   UNL     1       1.162   9.626  20.079  0.00  0.00    +0.000 A 
ATOM      5  C   UNL     1       1.698   9.172  18.867  0.00  0.00    +0.000 A 
ATOM      6  C   UNL     1       2.223   7.864  18.772  0.00  0.00    +0.000 A 
ENDROOT
BRANCH   4   7
ATOM      7  S   UNL     1       0.507  11.287  20.290  0.00  0.00    +0.000 S 
ATOM      8  O   UNL     1      -0.198  11.299  21.542  0.00  0.00    +0.000 OA
ATOM      9  O   UNL     1       1.629  12.195  20.063  0.00  0.00    +0.000 OA
BRANCH   7  10
ATOM     10  C   UNL     1      -0.631  11.507  18.997  0.00  0.00    +0.000 C 
ATOM     11  C   UNL     1      -1.563  10.549  18.748  0.00  0.00    +0.000 C 
BRANCH  11  12
ATOM     12  C   UNL     1      -2.484  10.655  17.604  0.00  0.00    +0.000 A 
ATOM     13  N   UNL     1      -2.037  10.059  16.464  0.00  0.00    +0.000 NA
ATOM     14  C   UNL     1      -2.821  10.105  15.370  0.00  0.00    +0.000 A 
ATOM     15  C   UNL     1      -4.064  10.709  15.341  0.00  0.00    +0.000 A 
ATOM     16  C   UNL     1      -4.521  11.318  16.506  0.00  0.00    +0.000 A 
ATOM     17  C   UNL     1      -3.728  11.303  17.653  0.00  0.00    +0.000 A 
ATOM     18 CL   UNL     1      -4.328  12.124  19.047  0.00  0.00    +0.000 Cl
ENDBRANCH  11  12
ENDBRANCH   7  10
ENDBRANCH   4   7
BRANCH   1  19
ATOM     19  O   UNL     1       2.636   5.711  19.792  0.00  0.00    +0.000 OA
BRANCH  19  20
ATOM     20  C   UNL     1       3.090   5.350  18.471  0.00  0.00    +0.000 C 
BRANCH  20  26
ATOM     21  C   UNL     1       7.455   5.028  13.742  0.00  0.00    +0.000 C 
ATOM     22  N   UNL     1       7.010   5.397  15.084  0.00  0.00    +0.000 NA
ATOM     23  C   UNL     1       7.187   4.270  16.025  0.00  0.00    +0.000 C 
ATOM     24  C   UNL     1       6.727   4.632  17.451  0.00  0.00    +0.000 C 
ATOM     25  N   UNL     1       5.362   5.157  17.467  0.00  0.00    +0.000 N 
ATOM     26  C   UNL     1       4.523   4.824  18.516  0.00  0.00    +0.000 C 
ATOM     27  O   UNL     1       4.904   4.129  19.473  0.00  0.00    +0.000 OA
ATOM     28  C   UNL     1       5.108   6.215  16.482  0.00  0.00    +0.000 C 
ATOM     29  C   UNL     1       5.590   5.806  15.075  0.00  0.00    +0.000 C 
ENDBRANCH  20  26
ENDBRANCH  19  20
ENDBRANCH   1  19
TORSDOF 6
ENDMDL
MODEL 2
REMARK VINA RESULT:      -7.6      6.816      9.464
REMARK  Name = 
REMARK  7 active torsions:
REMARK  status: ('A' for Active; 'I' for Inactive)
REMARK    1  A    between atoms: C_1  and  N_2
REMARK    2  A    between atoms: C_6  and  C_8
REMARK    3  A    between atoms: C_8  and  O_9
REMARK    4  A    between atoms: O_9  and  C_10
REMARK    5  A    between atoms: C_13  and  S_14
REMARK    6  A    between atoms: S_14  and  C_17
REMARK    7  A    between atoms: C_18  and  C_19
REMARK                            x       y       z     vdW  Elec       q    Type
REMARK                         _______ _______ _______ _____ _____    ______ ____
ROOT
ATOM      1  C   UNL     1       8.531   8.817  18.547  0.00  0.00    +0.000 A 
ATOM      2  C   UNL     1       7.644   8.966  17.490  0.00  0.00    +0.000 A 
ATOM      3  C   UNL     1       6.870   7.912  17.033  0.00  0.00    +0.000 A 
ATOM      4  C   UNL     1       7.003   6.646  17.610  0.00  0.00    +0.000 A 
ATOM      5  C   UNL     1       7.853   6.478  18.711  0.00  0.00    +0.000 A 
ATOM      6  C   UNL     1       8.643   7.557  19.165  0.00  0.00    +0.000 A 
ENDROOT
BRANCH   4   7
ATOM      7  S   UNL     1       5.992   5.314  16.951  0.00  0.00    +0.000 S 
ATOM      8  O   UNL     1       5.335   5.830  15.782  0.00  0.00    +0.000 OA
ATOM      9  O   UNL     1       6.870   4.150  16.854  0.00  0.00    +0.000 OA
BRANCH   7  10
ATOM     10  C   UNL     1       4.800   4.985  18.171  0.00  0.00    +0.000 C 
ATOM     11  C   UNL     1       4.267   3.739  18.275  0.00  0.00    +0.000 C 
BRANCH  11  12
ATOM     12  C   UNL     1       3.188   3.443  19.234  0.00  0.00    +0.000 A 
ATOM     13  N   UNL     1       3.611   2.886  20.401  0.00  0.00    +0.000 NA
ATOM     14  C   UNL     1       2.688   2.588  21.336  0.00  0.00    +0.000 A 
ATOM     15  C   UNL     1       1.336   2.831  21.186  0.00  0.00    +0.000 A 
ATOM     16  C   UNL     1       0.904   3.400  19.991  0.00  0.00    +0.000 A 
ATOM     17  C   UNL     1       1.831   3.707  18.995  0.00  0.00    +0.000 A 
ATOM     18 CL   UNL     1       1.225   4.360  17.517  0.00  0.00    +0.000 Cl
ENDBRANCH  11  12
ENDBRANCH   7  10
ENDBRANCH   4   7
BRANCH   1  19
ATOM     19  O   UNL     1       9.276   9.884  18.998  0.00  0.00    +0.000 OA
BRANCH  19  20
ATOM     20  C   UNL     1       9.054  11.102  18.258  0.00  0.00    +0.000 C 
BRANCH  20  26
ATOM     21  C   UNL     1       9.935  17.455  17.634  0.00  0.00    +0.000 C 
ATOM     22  N   UNL     1      10.197  16.155  18.248  0.00  0.00    +0.000 NA
ATOM     23  C   UNL     1      11.232  15.416  17.493  0.00  0.00    +0.000 C 
ATOM     24  C   UNL     1      11.531  14.040  18.121  0.00  0.00    +0.000 C 
ATOM     25  N   UNL     1      10.314  13.251  18.311  0.00  0.00    +0.000 N 
ATOM     26  C   UNL     1      10.357  11.884  18.100  0.00  0.00    +0.000 C 
ATOM     27  O   UNL     1      11.408  11.294  17.799  0.00  0.00    +0.000 OA
ATOM     28  C   UNL     1       9.220  13.973  18.971  0.00  0.00    +0.000 C 
ATOM     29  C   UNL     1       8.965  15.343  18.310  0.00  0.00    +0.000 C 
ENDBRANCH  20  26
ENDBRANCH  19  20
ENDBRANCH   1  19
TORSDOF 6
ENDMDL
MODEL 3
REMARK VINA RESULT:      -7.6      0.996      1.514
REMARK  Name = 
REMARK  7 active torsions:
REMARK  status: ('A' for Active; 'I' for Inactive)
REMARK    1  A    between atoms: C_1  and  N_2
REMARK    2  A    between atoms: C_6  and  C_8
REMARK    3  A    between atoms: C_8  and  O_9
REMARK    4  A    between atoms: O_9  and  C_10
REMARK    5  A    between atoms: C_13  and  S_14
REMARK    6  A    between atoms: S_14  and  C_17
REMARK    7  A    between atoms: C_18  and  C_19
REMARK                            x       y       z     vdW  Elec       q    Type
REMARK                         _______ _______ _______ _____ _____    ______ ____
ROOT
ATOM      1  C   UNL     1       2.259   6.505  19.790  0.00  0.00    +0.000 A 
ATOM      2  C   UNL     1       2.436   7.294  18.661  0.00  0.00    +0.000 A 
ATOM      3  C   UNL     1       1.994   8.606  18.612  0.00  0.00    +0.000 A 
ATOM      4  C   UNL     1       1.310   9.154  19.702  0.00  0.00    +0.000 A 
ATOM      5  C   UNL     1       1.161   8.398  20.872  0.00  0.00    +0.000 A 
ATOM      6  C   UNL     1       1.611   7.059  20.910  0.00  0.00    +0.000 A 
ENDROOT
BRANCH   4   7
ATOM      7  S   UNL     1       0.735  10.851  19.563  0.00  0.00    +0.000 S 
ATOM      8  O   UNL     1       0.680  11.382  20.897  0.00  0.00    +0.000 OA
ATOM      9  O   UNL     1       1.577  11.482  18.549  0.00  0.00    +0.000 OA
BRANCH   7  10
ATOM     10  C   UNL     1      -0.879  10.747  18.928  0.00  0.00    +0.000 C 
ATOM     11  C   UNL     1      -1.665  11.855  18.900  0.00  0.00    +0.000 C 
BRANCH  11  12
ATOM     12  C   UNL     1      -3.069  11.789  18.457  0.00  0.00    +0.000 A 
ATOM     13  N   UNL     1      -3.233  11.377  17.170  0.00  0.00    +0.000 NA
ATOM     14  C   UNL     1      -4.486  11.284  16.685  0.00  0.00    +0.000 A 
ATOM     15  C   UNL     1      -5.618  11.566  17.425  0.00  0.00    +0.000 A 
ATOM     16  C   UNL     1      -5.451  11.988  18.741  0.00  0.00    +0.000 A 
ATOM     17  C   UNL     1      -4.166  12.111  19.270  0.00  0.00    +0.000 A 
ATOM     18 CL   UNL     1      -4.024  12.690  20.889  0.00  0.00    +0.000 Cl
ENDBRANCH  11  12
ENDBRANCH   7  10
ENDBRANCH   4   7
BRANCH   1  19
ATOM     19  O   UNL     1       2.725   5.209  19.824  0.00  0.00    +0.000 OA
BRANCH  19  20
ATOM     20  C   UNL     1       3.172   4.718  18.543  0.00  0.00    +0.000 C 
BRANCH  20  26
ATOM     21  C   UNL     1       7.473   5.110  13.760  0.00  0.00    +0.000 C 
ATOM     22  N   UNL     1       6.991   5.398  15.110  0.00  0.00    +0.000 NA
ATOM     23  C   UNL     1       7.358   4.311  16.043  0.00  0.00    +0.000 C 
ATOM     24  C   UNL     1       6.864   4.590  17.476  0.00  0.00    +0.000 C 
ATOM     25  N   UNL     1       5.433   4.892  17.512  0.00  0.00    +0.000 N 
ATOM     26  C   UNL     1       4.671   4.426  18.568  0.00  0.00    +0.000 C 
ATOM     27  O   UNL     1       5.170   3.797  19.517  0.00  0.00    +0.000 OA
ATOM     28  C   UNL     1       5.002   5.899  16.535  0.00  0.00    +0.000 C 
ATOM     29  C   UNL     1       5.525   5.576  15.121  0.00  0.00    +0.000 C 
ENDBRANCH  20  26
ENDBRANCH  19  20
ENDBRANCH   1  19
TORSDOF 6
ENDMDL
MODEL 4
REMARK VINA RESULT:      -7.6      6.621      9.162
REMARK  Name = 
REMARK  7 active torsions:
REMARK  status: ('A' for Active; 'I' for Inactive)
REMARK    1  A    between atoms: C_1  and  N_2
REMARK    2  A    between atoms: C_6  and  C_8
REMARK    3  A    between atoms: C_8  and  O_9
REMARK    4  A    between atoms: O_9  and  C_10
REMARK    5  A    between atoms: C_13  and  S_14
REMARK    6  A    between atoms: S_14  and  C_17
REMARK    7  A    between atoms: C_18  and  C_19
REMARK                            x       y       z     vdW  Elec       q    Type
REMARK                         _______ _______ _______ _____ _____    ______ ____
ROOT
ATOM      1  C   UNL     1       8.463   8.568  18.612  0.00  0.00    +0.000 A 
ATOM      2  C   UNL     1       7.648   8.807  17.514  0.00  0.00    +0.000 A 
ATOM      3  C   UNL     1       6.913   7.796  16.918  0.00  0.00    +0.000 A 
ATOM      4  C   UNL     1       7.014   6.485  17.393  0.00  0.00    +0.000 A 
ATOM      5  C   UNL     1       7.789   6.224  18.530  0.00  0.00    +0.000 A 
ATOM      6  C   UNL     1       8.540   7.260  19.128  0.00  0.00    +0.000 A 
ENDROOT
BRANCH   4   7
ATOM      7  S   UNL     1       6.057   5.214  16.556  0.00  0.00    +0.000 S 
ATOM      8  O   UNL     1       5.296   5.874  15.531  0.00  0.00    +0.000 OA
ATOM      9  O   UNL     1       7.005   4.157  16.210  0.00  0.00    +0.000 OA
BRANCH   7  10
ATOM     10  C   UNL     1       4.968   4.585  17.754  0.00  0.00    +0.000 C 
ATOM     11  C   UNL     1       3.635   4.533  17.492  0.00  0.00    +0.000 C 
BRANCH  11  12
ATOM     12  C   UNL     1       2.670   4.094  18.515  0.00  0.00    +0.000 A 
ATOM     13  N   UNL     1       2.308   2.785  18.421  0.00  0.00    +0.000 NA
ATOM     14  C   UNL     1       1.431   2.300  19.321  0.00  0.00    +0.000 A 
ATOM     15  C   UNL     1       0.889   3.051  20.346  0.00  0.00    +0.000 A 
ATOM     16  C   UNL     1       1.258   4.390  20.442  0.00  0.00    +0.000 A 
ATOM     17  C   UNL     1       2.152   4.929  19.516  0.00  0.00    +0.000 A 
ATOM     18 CL   UNL     1       2.526   6.607  19.656  0.00  0.00    +0.000 Cl
ENDBRANCH  11  12
ENDBRANCH   7  10
ENDBRANCH   4   7
BRANCH   1  19
ATOM     19  O   UNL     1       9.169   9.593  19.202  0.00  0.00    +0.000 OA
BRANCH  19  20
ATOM     20  C   UNL     1       9.393  10.721  18.332  0.00  0.00    +0.000 C 
BRANCH  20  26
ATOM     21  C   UNL     1       9.437  17.158  18.028  0.00  0.00    +0.000 C 
ATOM     22  N   UNL     1       9.469  15.885  18.745  0.00  0.00    +0.000 NA
ATOM     23  C   UNL     1      10.850  15.365  18.832  0.00  0.00    +0.000 C 
ATOM     24  C   UNL     1      10.914  14.022  19.587  0.00  0.00    +0.000 C 
ATOM     25  N   UNL     1       9.987  13.038  19.029  0.00  0.00    +0.000 N 
ATOM     26  C   UNL     1      10.369  11.710  18.967  0.00  0.00    +0.000 C 
ATOM     27  O   UNL     1      11.460  11.314  19.413  0.00  0.00    +0.000 OA
ATOM     28  C   UNL     1       8.620  13.537  18.832  0.00  0.00    +0.000 C 
ATOM     29  C   UNL     1       8.612  14.882  18.078  0.00  0.00    +0.000 C 
ENDBRANCH  20  26
ENDBRANCH  19  20
ENDBRANCH   1  19
TORSDOF 6
ENDMDL
MODEL 5
REMARK VINA RESULT:      -7.5      1.849      2.501
REMARK  Name = 
REMARK  7 active torsions:
REMARK  status: ('A' for Active; 'I' for Inactive)
REMARK    1  A    between atoms: C_1  and  N_2
REMARK    2  A    between atoms: C_6  and  C_8
REMARK    3  A    between atoms: C_8  and  O_9
REMARK    4  A    between atoms: O_9  and  C_10
REMARK    5  A    between atoms: C_13  and  S_14
REMARK    6  A    between atoms: S_14  and  C_17
REMARK    7  A    between atoms: C_18  and  C_19
REMARK                            x       y       z     vdW  Elec       q    Type
REMARK                         _______ _______ _______ _____ _____    ______ ____
ROOT
ATOM      1  C   UNL     1       1.916   6.793  20.204  0.00  0.00    +0.000 A 
ATOM      2  C   UNL     1       1.215   7.484  21.182  0.00  0.00    +0.000 A 
ATOM      3  C   UNL     1       0.865   8.815  21.026  0.00  0.00    +0.000 A 
ATOM      4  C   UNL     1       1.257   9.511  19.879  0.00  0.00    +0.000 A 
ATOM      5  C   UNL     1       1.921   8.826  18.853  0.00  0.00    +0.000 A 
ATOM      6  C   UNL     1       2.279   7.471  19.024  0.00  0.00    +0.000 A 
ENDROOT
BRANCH   4   7
ATOM      7  S   UNL     1       0.798  11.244  19.752  0.00  0.00    +0.000 S 
ATOM      8  O   UNL     1       1.110  11.851  21.016  0.00  0.00    +0.000 OA
ATOM      9  O   UNL     1       1.416  11.737  18.522  0.00  0.00    +0.000 OA
BRANCH   7  10
ATOM     10  C   UNL     1      -0.924  11.256  19.528  0.00  0.00    +0.000 C 
ATOM     11  C   UNL     1      -1.441  11.430  18.283  0.00  0.00    +0.000 C 
BRANCH  11  12
ATOM     12  C   UNL     1      -2.894  11.539  18.064  0.00  0.00    +0.000 A 
ATOM     13  N   UNL     1      -3.596  11.955  19.153  0.00  0.00    +0.000 NA
ATOM     14  C   UNL     1      -4.932  12.086  19.038  0.00  0.00    +0.000 A 
ATOM     15  C   UNL     1      -5.630  11.839  17.872  0.00  0.00    +0.000 A 
ATOM     16  C   UNL     1      -4.912  11.412  16.758  0.00  0.00    +0.000 A 
ATOM     17  C   UNL     1      -3.529  11.251  16.847  0.00  0.00    +0.000 A 
ATOM     18 CL   UNL     1      -2.705  10.668  15.448  0.00  0.00    +0.000 Cl
ENDBRANCH  11  12
ENDBRANCH   7  10
ENDBRANCH   4   7
BRANCH   1  19
ATOM     19  O   UNL     1       2.236   5.464  20.371  0.00  0.00    +0.000 OA
BRANCH  19  20
ATOM     20  C   UNL     1       1.375   4.563  19.644  0.00  0.00    +0.000 C 
BRANCH  20  26
ATOM     21  C   UNL     1       7.529   4.766  17.744  0.00  0.00    +0.000 C 
ATOM     22  N   UNL     1       6.233   4.109  17.905  0.00  0.00    +0.000 NA
ATOM     23  C   UNL     1       5.336   4.433  16.775  0.00  0.00    +0.000 C 
ATOM     24  C   UNL     1       3.961   3.750  16.917  0.00  0.00    +0.000 C 
ATOM     25  N   UNL     1       3.344   4.031  18.213  0.00  0.00    +0.000 N 
ATOM     26  C   UNL     1       1.975   4.221  18.282  0.00  0.00    +0.000 C 
ATOM     27  O   UNL     1       1.242   4.117  17.283  0.00  0.00    +0.000 OA
ATOM     28  C   UNL     1       4.228   3.816  19.365  0.00  0.00    +0.000 C 
ATOM     29  C   UNL     1       5.590   4.514  19.171  0.00  0.00    +0.000 C 
ENDBRANCH  20  26
ENDBRANCH  19  20
ENDBRANCH   1  19
TORSDOF 6
ENDMDL
MODEL 6
REMARK VINA RESULT:      -7.4      3.064      3.817
REMARK  Name = 
REMARK  7 active torsions:
REMARK  status: ('A' for Active; 'I' for Inactive)
REMARK    1  A    between atoms: C_1  and  N_2
REMARK    2  A    between atoms: C_6  and  C_8
REMARK    3  A    between atoms: C_8  and  O_9
REMARK    4  A    between atoms: O_9  and  C_10
REMARK    5  A    between atoms: C_13  and  S_14
REMARK    6  A    between atoms: S_14  and  C_17
REMARK    7  A    between atoms: C_18  and  C_19
REMARK                            x       y       z     vdW  Elec       q    Type
REMARK                         _______ _______ _______ _____ _____    ______ ____
ROOT
ATOM      1  C   UNL     1       1.873   8.030  19.615  0.00  0.00    +0.000 A 
ATOM      2  C   UNL     1       1.816   8.574  18.340  0.00  0.00    +0.000 A 
ATOM      3  C   UNL     1       1.006   9.658  18.045  0.00  0.00    +0.000 A 
ATOM      4  C   UNL     1       0.184  10.206  19.034  0.00  0.00    +0.000 A 
ATOM      5  C   UNL     1       0.258   9.709  20.342  0.00  0.00    +0.000 A 
ATOM      6  C   UNL     1       1.082   8.599  20.632  0.00  0.00    +0.000 A 
ENDROOT
BRANCH   4   7
ATOM      7  S   UNL     1      -0.866  11.592  18.579  0.00  0.00    +0.000 S 
ATOM      8  O   UNL     1      -0.024  12.756  18.542  0.00  0.00    +0.000 OA
ATOM      9  O   UNL     1      -1.599  11.170  17.387  0.00  0.00    +0.000 OA
BRANCH   7  10
ATOM     10  C   UNL     1      -2.007  11.759  19.878  0.00  0.00    +0.000 C 
ATOM     11  C   UNL     1      -2.013  12.893  20.628  0.00  0.00    +0.000 C 
BRANCH  11  12
ATOM     12  C   UNL     1      -2.900  13.035  21.796  0.00  0.00    +0.000 A 
ATOM     13  N   UNL     1      -3.865  13.984  21.656  0.00  0.00    +0.000 NA
ATOM     14  C   UNL     1      -4.723  14.177  22.676  0.00  0.00    +0.000 A 
ATOM     15  C   UNL     1      -4.692  13.453  23.853  0.00  0.00    +0.000 A 
ATOM     16  C   UNL     1      -3.704  12.483  23.996  0.00  0.00    +0.000 A 
ATOM     17  C   UNL     1      -2.789  12.268  22.966  0.00  0.00    +0.000 A 
ATOM     18 CL   UNL     1      -1.557  11.089  23.228  0.00  0.00    +0.000 Cl
ENDBRANCH  11  12
ENDBRANCH   7  10
ENDBRANCH   4   7
BRANCH   1  19
ATOM     19  O   UNL     1       2.701   6.964  19.891  0.00  0.00    +0.000 OA
BRANCH  19  20
ATOM     20  C   UNL     1       3.020   6.161  18.735  0.00  0.00    +0.000 C 
BRANCH  20  26
ATOM     21  C   UNL     1       7.149   4.750  13.994  0.00  0.00    +0.000 C 
ATOM     22  N   UNL     1       6.774   5.402  15.246  0.00  0.00    +0.000 NA
ATOM     23  C   UNL     1       6.981   4.495  16.395  0.00  0.00    +0.000 C 
ATOM     24  C   UNL     1       6.594   5.159  17.732  0.00  0.00    +0.000 C 
ATOM     25  N   UNL     1       5.239   5.708  17.697  0.00  0.00    +0.000 N 
ATOM     26  C   UNL     1       4.447   5.623  18.827  0.00  0.00    +0.000 C 
ATOM     27  O   UNL     1       4.864   5.136  19.892  0.00  0.00    +0.000 OA
ATOM     28  C   UNL     1       4.952   6.541  16.522  0.00  0.00    +0.000 C 
ATOM     29  C   UNL     1       5.361   5.833  15.214  0.00  0.00    +0.000 C 
ENDBRANCH  20  26
ENDBRANCH  19  20
ENDBRANCH   1  19
TORSDOF 6
ENDMDL
MODEL 7
REMARK VINA RESULT:      -7.4      6.764      9.510
REMARK  Name = 
REMARK  7 active torsions:
REMARK  status: ('A' for Active; 'I' for Inactive)
REMARK    1  A    between atoms: C_1  and  N_2
REMARK    2  A    between atoms: C_6  and  C_8
REMARK    3  A    between atoms: C_8  and  O_9
REMARK    4  A    between atoms: O_9  and  C_10
REMARK    5  A    between atoms: C_13  and  S_14
REMARK    6  A    between atoms: S_14  and  C_17
REMARK    7  A    between atoms: C_18  and  C_19
REMARK                            x       y       z     vdW  Elec       q    Type
REMARK                         _______ _______ _______ _____ _____    ______ ____
ROOT
ATOM      1  C   UNL     1       8.452   8.901  18.615  0.00  0.00    +0.000 A 
ATOM      2  C   UNL     1       8.700   7.729  19.317  0.00  0.00    +0.000 A 
ATOM      3  C   UNL     1       8.160   6.516  18.925  0.00  0.00    +0.000 A 
ATOM      4  C   UNL     1       7.304   6.456  17.821  0.00  0.00    +0.000 A 
ATOM      5  C   UNL     1       7.076   7.612  17.064  0.00  0.00    +0.000 A 
ATOM      6  C   UNL     1       7.627   8.847  17.475  0.00  0.00    +0.000 A 
ENDROOT
BRANCH   4   7
ATOM      7  S   UNL     1       6.612   4.856  17.382  0.00  0.00    +0.000 S 
ATOM      8  O   UNL     1       5.970   5.016  16.106  0.00  0.00    +0.000 OA
ATOM      9  O   UNL     1       7.694   3.888  17.549  0.00  0.00    +0.000 OA
BRANCH   7  10
ATOM     10  C   UNL     1       5.405   4.523  18.586  0.00  0.00    +0.000 C 
ATOM     11  C   UNL     1       4.352   3.719  18.281  0.00  0.00    +0.000 C 
BRANCH  11  12
ATOM     12  C   UNL     1       3.261   3.488  19.242  0.00  0.00    +0.000 A 
ATOM     13  N   UNL     1       3.651   2.897  20.405  0.00  0.00    +0.000 NA
ATOM     14  C   UNL     1       2.715   2.653  21.342  0.00  0.00    +0.000 A 
ATOM     15  C   UNL     1       1.381   2.985  21.199  0.00  0.00    +0.000 A 
ATOM     16  C   UNL     1       0.981   3.588  20.010  0.00  0.00    +0.000 A 
ATOM     17  C   UNL     1       1.922   3.841  19.012  0.00  0.00    +0.000 A 
ATOM     18 CL   UNL     1       1.354   4.541  17.541  0.00  0.00    +0.000 Cl
ENDBRANCH  11  12
ENDBRANCH   7  10
ENDBRANCH   4   7
BRANCH   1  19
ATOM     19  O   UNL     1       9.016  10.093  19.011  0.00  0.00    +0.000 OA
BRANCH  19  20
ATOM     20  C   UNL     1       9.426  10.936  17.914  0.00  0.00    +0.000 C 
BRANCH  20  26
ATOM     21  C   UNL     1       9.162  17.369  18.178  0.00  0.00    +0.000 C 
ATOM     22  N   UNL     1       9.423  16.049  18.748  0.00  0.00    +0.000 NA
ATOM     23  C   UNL     1      10.798  15.603  18.433  0.00  0.00    +0.000 C 
ATOM     24  C   UNL     1      11.103  14.213  19.025  0.00  0.00    +0.000 C 
ATOM     25  N   UNL     1      10.098  13.223  18.639  0.00  0.00    +0.000 N 
ATOM     26  C   UNL     1      10.497  11.927  18.364  0.00  0.00    +0.000 C 
ATOM     27  O   UNL     1      11.680  11.561  18.479  0.00  0.00    +0.000 OA
ATOM     28  C   UNL     1       8.710  13.657  18.842  0.00  0.00    +0.000 C 
ATOM     29  C   UNL     1       8.459  15.053  18.237  0.00  0.00    +0.000 C 
ENDBRANCH  20  26
ENDBRANCH  19  20
ENDBRANCH   1  19
TORSDOF 6
ENDMDL
MODEL 8
REMARK VINA RESULT:      -7.4      4.054      9.361
REMARK  Name = 
REMARK  7 active torsions:
REMARK  status: ('A' for Active; 'I' for Inactive)
REMARK    1  A    between atoms: C_1  and  N_2
REMARK    2  A    between atoms: C_6  and  C_8
REMARK    3  A    between atoms: C_8  and  O_9
REMARK    4  A    between atoms: O_9  and  C_10
REMARK    5  A    between atoms: C_13  and  S_14
REMARK    6  A    between atoms: S_14  and  C_17
REMARK    7  A    between atoms: C_18  and  C_19
REMARK                            x       y       z     vdW  Elec       q    Type
REMARK                         _______ _______ _______ _____ _____    ______ ____
ROOT
ATOM      1  C   UNL     1       1.645   7.331  20.348  0.00  0.00    +0.000 A 
ATOM      2  C   UNL     1       1.397   6.184  21.088  0.00  0.00    +0.000 A 
ATOM      3  C   UNL     1       1.660   4.920  20.585  0.00  0.00    +0.000 A 
ATOM      4  C   UNL     1       2.148   4.774  19.283  0.00  0.00    +0.000 A 
ATOM      5  C   UNL     1       2.455   5.916  18.532  0.00  0.00    +0.000 A 
ATOM      6  C   UNL     1       2.178   7.200  19.051  0.00  0.00    +0.000 A 
ENDROOT
BRANCH   4   7
ATOM      7  S   UNL     1       2.439   3.106  18.679  0.00  0.00    +0.000 S 
ATOM      8  O   UNL     1       3.120   2.398  19.727  0.00  0.00    +0.000 OA
ATOM      9  O   UNL     1       1.153   2.628  18.177  0.00  0.00    +0.000 OA
BRANCH   7  10
ATOM     10  C   UNL     1       3.511   3.281  17.324  0.00  0.00    +0.000 C 
ATOM     11  C   UNL     1       4.640   4.028  17.450  0.00  0.00    +0.000 C 
BRANCH  11  12
ATOM     12  C   UNL     1       5.526   4.278  16.300  0.00  0.00    +0.000 A 
ATOM     13  N   UNL     1       4.920   4.158  15.087  0.00  0.00    +0.000 NA
ATOM     14  C   UNL     1       5.658   4.374  13.981  0.00  0.00    +0.000 A 
ATOM     15  C   UNL     1       6.994   4.728  14.006  0.00  0.00    +0.000 A 
ATOM     16  C   UNL     1       7.614   4.850  15.246  0.00  0.00    +0.000 A 
ATOM     17  C   UNL     1       6.883   4.618  16.412  0.00  0.00    +0.000 A 
ATOM     18 CL   UNL     1       7.723   4.732  17.914  0.00  0.00    +0.000 Cl
ENDBRANCH  11  12
ENDBRANCH   7  10
ENDBRANCH   4   7
BRANCH   1  19
ATOM     19  O   UNL     1       1.395   8.579  20.876  0.00  0.00    +0.000 OA
BRANCH  19  20
ATOM     20  C   UNL     1       0.105   8.693  21.511  0.00  0.00    +0.000 C 
BRANCH  20  26
ATOM     21  C   UNL     1      -0.085  14.593  18.925  0.00  0.00    +0.000 C 
ATOM     22  N   UNL     1      -0.597  13.527  19.784  0.00  0.00    +0.000 NA
ATOM     23  C   UNL     1       0.047  13.570  21.115  0.00  0.00    +0.000 C 
ATOM     24  C   UNL     1      -0.477  12.457  22.044  0.00  0.00    +0.000 C 
ATOM     25  N   UNL     1      -0.378  11.136  21.423  0.00  0.00    +0.000 N 
ATOM     26  C   UNL     1      -0.038  10.046  22.205  0.00  0.00    +0.000 C 
ATOM     27  O   UNL     1       0.142  10.143  23.431  0.00  0.00    +0.000 OA
ATOM     28  C   UNL     1      -0.918  11.065  20.060  0.00  0.00    +0.000 C 
ATOM     29  C   UNL     1      -0.367  12.202  19.174  0.00  0.00    +0.000 C 
ENDBRANCH  20  26
ENDBRANCH  19  20
ENDBRANCH   1  19
TORSDOF 6
ENDMDL
MODEL 9
REMARK VINA RESULT:      -7.4      1.431      1.941
REMARK  Name = 
REMARK  7 active torsions:
REMARK  status: ('A' for Active; 'I' for Inactive)
REMARK    1  A    between atoms: C_1  and  N_2
REMARK    2  A    between atoms: C_6  and  C_8
REMARK    3  A    between atoms: C_8  and  O_9
REMARK    4  A    between atoms: O_9  and  C_10
REMARK    5  A    between atoms: C_13  and  S_14
REMARK    6  A    between atoms: S_14  and  C_17
REMARK    7  A    between atoms: C_18  and  C_19
REMARK                            x       y       z     vdW  Elec       q    Type
REMARK                         _______ _______ _______ _____ _____    ______ ____
ROOT
ATOM      1  C   UNL     1       1.953   7.082  19.582  0.00  0.00    +0.000 A 
ATOM      2  C   UNL     1       2.098   7.948  18.507  0.00  0.00    +0.000 A 
ATOM      3  C   UNL     1       1.772   9.291  18.604  0.00  0.00    +0.000 A 
ATOM      4  C   UNL     1       1.239   9.798  19.793  0.00  0.00    +0.000 A 
ATOM      5  C   UNL     1       1.129   8.958  20.910  0.00  0.00    +0.000 A 
ATOM      6  C   UNL     1       1.458   7.589  20.800  0.00  0.00    +0.000 A 
ENDROOT
BRANCH   4   7
ATOM      7  S   UNL     1       0.809  11.542  19.843  0.00  0.00    +0.000 S 
ATOM      8  O   UNL     1       1.143  12.015  21.158  0.00  0.00    +0.000 OA
ATOM      9  O   UNL     1       1.422  12.144  18.662  0.00  0.00    +0.000 OA
BRANCH   7  10
ATOM     10  C   UNL     1      -0.915  11.603  19.641  0.00  0.00    +0.000 C 
ATOM     11  C   UNL     1      -1.456  11.434  18.405  0.00  0.00    +0.000 C 
BRANCH  11  12
ATOM     12  C   UNL     1      -2.905  11.571  18.176  0.00  0.00    +0.000 A 
ATOM     13  N   UNL     1      -3.607  12.001  19.261  0.00  0.00    +0.000 NA
ATOM     14  C   UNL     1      -4.938  12.157  19.137  0.00  0.00    +0.000 A 
ATOM     15  C   UNL     1      -5.633  11.924  17.965  0.00  0.00    +0.000 A 
ATOM     16  C   UNL     1      -4.916  11.483  16.857  0.00  0.00    +0.000 A 
ATOM     17  C   UNL     1      -3.537  11.295  16.955  0.00  0.00    +0.000 A 
ATOM     18 CL   UNL     1      -2.715  10.696  15.561  0.00  0.00    +0.000 Cl
ENDBRANCH  11  12
ENDBRANCH   7  10
ENDBRANCH   4   7
BRANCH   1  19
ATOM     19  O   UNL     1       2.302   5.755  19.470  0.00  0.00    +0.000 OA
BRANCH  19  20
ATOM     20  C   UNL     1       2.359   5.281  18.109  0.00  0.00    +0.000 C 
BRANCH  20  26
ATOM     21  C   UNL     1       7.130   5.175  13.778  0.00  0.00    +0.000 C 
ATOM     22  N   UNL     1       6.602   5.120  15.140  0.00  0.00    +0.000 NA
ATOM     23  C   UNL     1       6.196   3.742  15.492  0.00  0.00    +0.000 C 
ATOM     24  C   UNL     1       5.636   3.655  16.925  0.00  0.00    +0.000 C 
ATOM     25  N   UNL     1       4.564   4.623  17.153  0.00  0.00    +0.000 N 
ATOM     26  C   UNL     1       3.483   4.261  17.937  0.00  0.00    +0.000 C 
ATOM     27  O   UNL     1       3.412   3.153  18.495  0.00  0.00    +0.000 OA
ATOM     28  C   UNL     1       4.883   5.992  16.730  0.00  0.00    +0.000 C 
ATOM     29  C   UNL     1       5.443   6.024  15.293  0.00  0.00    +0.000 C 
ENDBRANCH  20  26
ENDBRANCH  19  20
ENDBRANCH   1  19
TORSDOF 6
ENDMDL
