MODEL 1
REMARK VINA RESULT:      -6.8      0.000      0.000
REMARK  Name = 
REMARK  3 active torsions:
REMARK  status: ('A' for Active; 'I' for Inactive)
REMARK    1  A    between atoms: N_1  and  C_2
REMARK    2  A    between atoms: C_5  and  C_6
REMARK    3  A    between atoms: C_10  and  N_11
REMARK                            x       y       z     vdW  Elec       q    Type
REMARK                         _______ _______ _______ _____ _____    ______ ____
ROOT
ATOM      1  C   UNL     1       2.554   7.396  18.637  0.00  0.00    +0.000 A 
ATOM      2  N   UNL     1       2.315   7.291  19.927  0.00  0.00    +0.000 NA
ATOM      3  C   UNL     1       1.484   8.305  20.345  0.00  0.00    +0.000 A 
ATOM      4  C   UNL     1       0.912   8.402  21.625  0.00  0.00    +0.000 A 
ATOM      5  C   UNL     1       0.036   9.447  21.934  0.00  0.00    +0.000 A 
ATOM      6  C   UNL     1      -0.254  10.395  20.954  0.00  0.00    +0.000 A 
ATOM      7  C   UNL     1       0.331  10.346  19.678  0.00  0.00    +0.000 A 
ATOM      8  C   UNL     1       1.172   9.264  19.382  0.00  0.00    +0.000 A 
ATOM      9  S   UNL     1       1.936   8.821  17.899  0.00  0.00    +0.000 S 
ENDROOT
BRANCH   1  13
ATOM     10  C   UNL     1       4.989   4.475  16.656  0.00  0.00    +0.000 A 
ATOM     11  C   UNL     1       3.802   4.079  17.278  0.00  0.00    +0.000 A 
ATOM     12  C   UNL     1       2.974   5.015  17.912  0.00  0.00    +0.000 A 
ATOM     13  C   UNL     1       3.303   6.376  17.897  0.00  0.00    +0.000 A 
ATOM     14  C   UNL     1       4.465   6.772  17.216  0.00  0.00    +0.000 A 
ATOM     15  C   UNL     1       5.283   5.836  16.580  0.00  0.00    +0.000 A 
BRANCH  10  16
ATOM     16  N   UNL     1       5.756   3.554  15.937  0.00  0.00    +0.000 N 
ATOM     17  H   UNL     1       6.436   3.982  15.315  0.00  0.00    +0.000 HD
ATOM     18  H   UNL     1       5.202   2.846  15.465  0.00  0.00    +0.000 HD
ENDBRANCH  10  16
ENDBRANCH   1  13
BRANCH   5  19
ATOM     19  N   UNL     1      -0.728   9.377  23.104  0.00  0.00    +0.000 N 
ATOM     20  H   UNL     1      -0.238   9.656  23.948  0.00  0.00    +0.000 HD
ATOM     21  H   UNL     1      -1.661   9.769  23.036  0.00  0.00    +0.000 HD
ENDBRANCH   5  19
TORSDOF 3
ENDMDL
MODEL 2
REMARK VINA RESULT:      -6.7      1.772      7.191
REMARK  Name = 
REMARK  3 active torsions:
REMARK  status: ('A' for Active; 'I' for Inactive)
REMARK    1  A    between atoms: N_1  and  C_2
REMARK    2  A    between atoms: C_5  and  C_6
REMARK    3  A    between atoms: C_10  and  N_11
REMARK                            x       y       z     vdW  Elec       q    Type
REMARK                         _______ _______ _______ _____ _____    ______ ____
ROOT
ATOM      1  C   UNL     1       3.134   6.869  18.077  0.00  0.00    +0.000 A 
ATOM      2  N   UNL     1       4.271   7.238  17.525  0.00  0.00    +0.000 NA
ATOM      3  C   UNL     1       4.885   6.162  16.929  0.00  0.00    +0.000 A 
ATOM      4  C   UNL     1       6.036   6.234  16.123  0.00  0.00    +0.000 A 
ATOM      5  C   UNL     1       6.553   5.085  15.519  0.00  0.00    +0.000 A 
ATOM      6  C   UNL     1       5.915   3.864  15.735  0.00  0.00    +0.000 A 
ATOM      7  C   UNL     1       4.788   3.753  16.565  0.00  0.00    +0.000 A 
ATOM      8  C   UNL     1       4.264   4.928  17.124  0.00  0.00    +0.000 A 
ATOM      9  S   UNL     1       2.836   5.176  18.061  0.00  0.00    +0.000 S 
ENDROOT
BRANCH   1  13
ATOM     10  C   UNL     1       0.647   9.783  20.003  0.00  0.00    +0.000 A 
ATOM     11  C   UNL     1       0.885   9.876  18.629  0.00  0.00    +0.000 A 
ATOM     12  C   UNL     1       1.673   8.925  17.968  0.00  0.00    +0.000 A 
ATOM     13  C   UNL     1       2.205   7.837  18.670  0.00  0.00    +0.000 A 
ATOM     14  C   UNL     1       1.909   7.718  20.037  0.00  0.00    +0.000 A 
ATOM     15  C   UNL     1       1.118   8.665  20.689  0.00  0.00    +0.000 A 
BRANCH  10  16
ATOM     16  N   UNL     1      -0.224  10.675  20.635  0.00  0.00    +0.000 N 
ATOM     17  H   UNL     1       0.144  11.068  21.497  0.00  0.00    +0.000 HD
ATOM     18  H   UNL     1      -1.164  10.309  20.754  0.00  0.00    +0.000 HD
ENDBRANCH  10  16
ENDBRANCH   1  13
BRANCH   5  19
ATOM     19  N   UNL     1       7.518   5.215  14.515  0.00  0.00    +0.000 N 
ATOM     20  H   UNL     1       8.126   4.410  14.405  0.00  0.00    +0.000 HD
ATOM     21  H   UNL     1       7.179   5.582  13.633  0.00  0.00    +0.000 HD
ENDBRANCH   5  19
TORSDOF 3
ENDMDL
MODEL 3
REMARK VINA RESULT:      -6.7      1.764      7.103
REMARK  Name = 
REMARK  3 active torsions:
REMARK  status: ('A' for Active; 'I' for Inactive)
REMARK    1  A    between atoms: N_1  and  C_2
REMARK    2  A    between atoms: C_5  and  C_6
REMARK    3  A    between atoms: C_10  and  N_11
REMARK                            x       y       z     vdW  Elec       q    Type
REMARK                         _______ _______ _______ _____ _____    ______ ____
ROOT
ATOM      1  C   UNL     1       3.062   7.010  18.167  0.00  0.00    +0.000 A 
ATOM      2  N   UNL     1       4.226   7.326  17.639  0.00  0.00    +0.000 NA
ATOM      3  C   UNL     1       4.794   6.225  17.041  0.00  0.00    +0.000 A 
ATOM      4  C   UNL     1       5.961   6.246  16.257  0.00  0.00    +0.000 A 
ATOM      5  C   UNL     1       6.429   5.078  15.649  0.00  0.00    +0.000 A 
ATOM      6  C   UNL     1       5.725   3.889  15.840  0.00  0.00    +0.000 A 
ATOM      7  C   UNL     1       4.578   3.829  16.648  0.00  0.00    +0.000 A 
ATOM      8  C   UNL     1       4.107   5.023  17.211  0.00  0.00    +0.000 A 
ATOM      9  S   UNL     1       2.676   5.335  18.126  0.00  0.00    +0.000 S 
ENDROOT
BRANCH   1  13
ATOM     10  C   UNL     1       0.239   9.851  19.699  0.00  0.00    +0.000 A 
ATOM     11  C   UNL     1       0.849   8.944  20.569  0.00  0.00    +0.000 A 
ATOM     12  C   UNL     1       1.794   8.021  20.102  0.00  0.00    +0.000 A 
ATOM     13  C   UNL     1       2.174   8.019  18.755  0.00  0.00    +0.000 A 
ATOM     14  C   UNL     1       1.602   8.975  17.900  0.00  0.00    +0.000 A 
ATOM     15  C   UNL     1       0.666   9.897  18.373  0.00  0.00    +0.000 A 
BRANCH  10  16
ATOM     16  N   UNL     1      -0.622  10.837  20.190  0.00  0.00    +0.000 N 
ATOM     17  H   UNL     1      -1.593  10.543  20.247  0.00  0.00    +0.000 HD
ATOM     18  H   UNL     1      -0.523  11.732  19.723  0.00  0.00    +0.000 HD
ENDBRANCH  10  16
ENDBRANCH   1  13
BRANCH   5  19
ATOM     19  N   UNL     1       7.417   5.168  14.662  0.00  0.00    +0.000 N 
ATOM     20  H   UNL     1       7.748   4.275  14.312  0.00  0.00    +0.000 HD
ATOM     21  H   UNL     1       7.236   5.843  13.928  0.00  0.00    +0.000 HD
ENDBRANCH   5  19
TORSDOF 3
ENDMDL
MODEL 4
REMARK VINA RESULT:      -6.6      4.414      7.608
REMARK  Name = 
REMARK  3 active torsions:
REMARK  status: ('A' for Active; 'I' for Inactive)
REMARK    1  A    between atoms: N_1  and  C_2
REMARK    2  A    between atoms: C_5  and  C_6
REMARK    3  A    between atoms: C_10  and  N_11
REMARK                            x       y       z     vdW  Elec       q    Type
REMARK                         _______ _______ _______ _____ _____    ______ ____
ROOT
ATOM      1  C   UNL     1       4.134   4.012  18.151  0.00  0.00    +0.000 A 
ATOM      2  N   UNL     1       3.920   3.697  16.891  0.00  0.00    +0.000 NA
ATOM      3  C   UNL     1       4.982   4.095  16.112  0.00  0.00    +0.000 A 
ATOM      4  C   UNL     1       5.146   3.780  14.751  0.00  0.00    +0.000 A 
ATOM      5  C   UNL     1       6.290   4.190  14.060  0.00  0.00    +0.000 A 
ATOM      6  C   UNL     1       7.262   4.923  14.741  0.00  0.00    +0.000 A 
ATOM      7  C   UNL     1       7.109   5.285  16.088  0.00  0.00    +0.000 A 
ATOM      8  C   UNL     1       5.973   4.824  16.768  0.00  0.00    +0.000 A 
ATOM      9  S   UNL     1       5.540   4.960  18.434  0.00  0.00    +0.000 S 
ENDROOT
BRANCH   1  13
ATOM     10  C   UNL     1       1.683   2.906  21.491  0.00  0.00    +0.000 A 
ATOM     11  C   UNL     1       1.160   3.734  20.494  0.00  0.00    +0.000 A 
ATOM     12  C   UNL     1       1.929   4.092  19.378  0.00  0.00    +0.000 A 
ATOM     13  C   UNL     1       3.227   3.591  19.224  0.00  0.00    +0.000 A 
ATOM     14  C   UNL     1       3.721   2.710  20.200  0.00  0.00    +0.000 A 
ATOM     15  C   UNL     1       2.948   2.351  21.305  0.00  0.00    +0.000 A 
BRANCH  10  16
ATOM     16  N   UNL     1       0.876   2.470  22.546  0.00  0.00    +0.000 N 
ATOM     17  H   UNL     1       0.870   3.096  23.346  0.00  0.00    +0.000 HD
ATOM     18  H   UNL     1       1.049   1.507  22.818  0.00  0.00    +0.000 HD
ENDBRANCH  10  16
ENDBRANCH   1  13
BRANCH   5  19
ATOM     19  N   UNL     1       6.564   3.642  12.802  0.00  0.00    +0.000 N 
ATOM     20  H   UNL     1       6.025   4.040  12.040  0.00  0.00    +0.000 HD
ATOM     21  H   UNL     1       7.547   3.533  12.583  0.00  0.00    +0.000 HD
ENDBRANCH   5  19
TORSDOF 3
ENDMDL
MODEL 5
REMARK VINA RESULT:      -6.6      0.163      1.173
REMARK  Name = 
REMARK  3 active torsions:
REMARK  status: ('A' for Active; 'I' for Inactive)
REMARK    1  A    between atoms: N_1  and  C_2
REMARK    2  A    between atoms: C_5  and  C_6
REMARK    3  A    between atoms: C_10  and  N_11
REMARK                            x       y       z     vdW  Elec       q    Type
REMARK                         _______ _______ _______ _____ _____    ______ ____
ROOT
ATOM      1  C   UNL     1       2.664   7.409  18.667  0.00  0.00    +0.000 A 
ATOM      2  N   UNL     1       2.429   7.336  19.960  0.00  0.00    +0.000 NA
ATOM      3  C   UNL     1       1.514   8.292  20.335  0.00  0.00    +0.000 A 
ATOM      4  C   UNL     1       0.930   8.393  21.610  0.00  0.00    +0.000 A 
ATOM      5  C   UNL     1      -0.032   9.372  21.876  0.00  0.00    +0.000 A 
ATOM      6  C   UNL     1      -0.396  10.253  20.857  0.00  0.00    +0.000 A 
ATOM      7  C   UNL     1       0.197  10.202  19.585  0.00  0.00    +0.000 A 
ATOM      8  C   UNL     1       1.127   9.183  19.334  0.00  0.00    +0.000 A 
ATOM      9  S   UNL     1       1.932   8.745  17.871  0.00  0.00    +0.000 S 
ENDROOT
BRANCH   1  13
ATOM     10  C   UNL     1       4.852   4.447  16.470  0.00  0.00    +0.000 A 
ATOM     11  C   UNL     1       5.239   5.787  16.399  0.00  0.00    +0.000 A 
ATOM     12  C   UNL     1       4.559   6.774  17.126  0.00  0.00    +0.000 A 
ATOM     13  C   UNL     1       3.499   6.425  17.970  0.00  0.00    +0.000 A 
ATOM     14  C   UNL     1       3.156   5.068  18.083  0.00  0.00    +0.000 A 
ATOM     15  C   UNL     1       3.842   4.089  17.362  0.00  0.00    +0.000 A 
BRANCH  10  16
ATOM     16  N   UNL     1       5.599   3.456  15.826  0.00  0.00    +0.000 N 
ATOM     17  H   UNL     1       6.410   3.812  15.327  0.00  0.00    +0.000 HD
ATOM     18  H   UNL     1       5.040   2.835  15.250  0.00  0.00    +0.000 HD
ENDBRANCH  10  16
ENDBRANCH   1  13
BRANCH   5  19
ATOM     19  N   UNL     1      -0.793   9.286  23.046  0.00  0.00    +0.000 N 
ATOM     20  H   UNL     1      -1.781   9.109  22.898  0.00  0.00    +0.000 HD
ATOM     21  H   UNL     1      -0.391   8.717  23.783  0.00  0.00    +0.000 HD
ENDBRANCH   5  19
TORSDOF 3
ENDMDL
MODEL 6
REMARK VINA RESULT:      -6.5      4.384      7.625
REMARK  Name = 
REMARK  3 active torsions:
REMARK  status: ('A' for Active; 'I' for Inactive)
REMARK    1  A    between atoms: N_1  and  C_2
REMARK    2  A    between atoms: C_5  and  C_6
REMARK    3  A    between atoms: C_10  and  N_11
REMARK                            x       y       z     vdW  Elec       q    Type
REMARK                         _______ _______ _______ _____ _____    ______ ____
ROOT
ATOM      1  C   UNL     1       4.375   4.094  18.134  0.00  0.00    +0.000 A 
ATOM      2  N   UNL     1       4.085   3.708  16.910  0.00  0.00    +0.000 NA
ATOM      3  C   UNL     1       5.079   4.092  16.039  0.00  0.00    +0.000 A 
ATOM      4  C   UNL     1       5.158   3.710  14.687  0.00  0.00    +0.000 A 
ATOM      5  C   UNL     1       6.239   4.113  13.899  0.00  0.00    +0.000 A 
ATOM      6  C   UNL     1       7.234   4.906  14.471  0.00  0.00    +0.000 A 
ATOM      7  C   UNL     1       7.163   5.335  15.806  0.00  0.00    +0.000 A 
ATOM      8  C   UNL     1       6.090   4.881  16.586  0.00  0.00    +0.000 A 
ATOM      9  S   UNL     1       5.768   5.093  18.269  0.00  0.00    +0.000 S 
ENDROOT
BRANCH   1  13
ATOM     10  C   UNL     1       1.774   2.847  21.306  0.00  0.00    +0.000 A 
ATOM     11  C   UNL     1       3.076   2.345  21.242  0.00  0.00    +0.000 A 
ATOM     12  C   UNL     1       3.957   2.753  20.231  0.00  0.00    +0.000 A 
ATOM     13  C   UNL     1       3.557   3.707  19.288  0.00  0.00    +0.000 A 
ATOM     14  C   UNL     1       2.268   4.251  19.397  0.00  0.00    +0.000 A 
ATOM     15  C   UNL     1       1.397   3.846  20.410  0.00  0.00    +0.000 A 
BRANCH  10  16
ATOM     16  N   UNL     1       0.937   2.516  22.376  0.00  0.00    +0.000 N 
ATOM     17  H   UNL     1       0.717   3.299  22.984  0.00  0.00    +0.000 HD
ATOM     18  H   UNL     1       1.249   1.704  22.899  0.00  0.00    +0.000 HD
ENDBRANCH  10  16
ENDBRANCH   1  13
BRANCH   5  19
ATOM     19  N   UNL     1       6.443   3.507  12.654  0.00  0.00    +0.000 N 
ATOM     20  H   UNL     1       5.790   3.792  11.932  0.00  0.00    +0.000 HD
ATOM     21  H   UNL     1       7.405   3.484  12.336  0.00  0.00    +0.000 HD
ENDBRANCH   5  19
TORSDOF 3
ENDMDL
MODEL 7
REMARK VINA RESULT:      -6.5      1.264      6.873
REMARK  Name = 
REMARK  3 active torsions:
REMARK  status: ('A' for Active; 'I' for Inactive)
REMARK    1  A    between atoms: N_1  and  C_2
REMARK    2  A    between atoms: C_5  and  C_6
REMARK    3  A    between atoms: C_10  and  N_11
REMARK                            x       y       z     vdW  Elec       q    Type
REMARK                         _______ _______ _______ _____ _____    ______ ____
ROOT
ATOM      1  C   UNL     1       1.786   8.028  19.681  0.00  0.00    +0.000 A 
ATOM      2  N   UNL     1       2.232   6.867  20.114  0.00  0.00    +0.000 NA
ATOM      3  C   UNL     1       3.132   6.336  19.220  0.00  0.00    +0.000 A 
ATOM      4  C   UNL     1       3.907   5.184  19.444  0.00  0.00    +0.000 A 
ATOM      5  C   UNL     1       4.834   4.755  18.490  0.00  0.00    +0.000 A 
ATOM      6  C   UNL     1       4.971   5.484  17.308  0.00  0.00    +0.000 A 
ATOM      7  C   UNL     1       4.185   6.615  17.039  0.00  0.00    +0.000 A 
ATOM      8  C   UNL     1       3.294   7.048  18.031  0.00  0.00    +0.000 A 
ATOM      9  S   UNL     1       2.292   8.453  18.094  0.00  0.00    +0.000 S 
ENDROOT
BRANCH   1  13
ATOM     10  C   UNL     1      -0.509  10.621  22.210  0.00  0.00    +0.000 A 
ATOM     11  C   UNL     1      -0.556  10.788  20.824  0.00  0.00    +0.000 A 
ATOM     12  C   UNL     1       0.164   9.940  19.971  0.00  0.00    +0.000 A 
ATOM     13  C   UNL     1       0.914   8.881  20.495  0.00  0.00    +0.000 A 
ATOM     14  C   UNL     1       0.906   8.683  21.885  0.00  0.00    +0.000 A 
ATOM     15  C   UNL     1       0.181   9.526  22.729  0.00  0.00    +0.000 A 
BRANCH  10  16
ATOM     16  N   UNL     1      -1.310  11.402  23.047  0.00  0.00    +0.000 N 
ATOM     17  H   UNL     1      -1.750  10.880  23.800  0.00  0.00    +0.000 HD
ATOM     18  H   UNL     1      -1.976  11.982  22.546  0.00  0.00    +0.000 HD
ENDBRANCH  10  16
ENDBRANCH   1  13
BRANCH   5  19
ATOM     19  N   UNL     1       5.778   3.784  18.840  0.00  0.00    +0.000 N 
ATOM     20  H   UNL     1       5.683   3.421  19.782  0.00  0.00    +0.000 HD
ATOM     21  H   UNL     1       5.933   3.061  18.146  0.00  0.00    +0.000 HD
ENDBRANCH   5  19
TORSDOF 3
ENDMDL
MODEL 8
REMARK VINA RESULT:      -6.4      3.627      4.785
REMARK  Name = 
REMARK  3 active torsions:
REMARK  status: ('A' for Active; 'I' for Inactive)
REMARK    1  A    between atoms: N_1  and  C_2
REMARK    2  A    between atoms: C_5  and  C_6
REMARK    3  A    between atoms: C_10  and  N_11
REMARK                            x       y       z     vdW  Elec       q    Type
REMARK                         _______ _______ _______ _____ _____    ______ ____
ROOT
ATOM      1  C   UNL     1       4.741   4.707  17.409  0.00  0.00    +0.000 A 
ATOM      2  N   UNL     1       4.680   3.711  18.267  0.00  0.00    +0.000 NA
ATOM      3  C   UNL     1       3.759   3.983  19.252  0.00  0.00    +0.000 A 
ATOM      4  C   UNL     1       3.338   3.072  20.237  0.00  0.00    +0.000 A 
ATOM      5  C   UNL     1       2.357   3.432  21.164  0.00  0.00    +0.000 A 
ATOM      6  C   UNL     1       1.807   4.712  21.102  0.00  0.00    +0.000 A 
ATOM      7  C   UNL     1       2.233   5.657  20.155  0.00  0.00    +0.000 A 
ATOM      8  C   UNL     1       3.188   5.255  19.210  0.00  0.00    +0.000 A 
ATOM      9  S   UNL     1       3.826   6.096  17.844  0.00  0.00    +0.000 S 
ENDROOT
BRANCH   1  13
ATOM     10  C   UNL     1       6.866   4.660  13.685  0.00  0.00    +0.000 A 
ATOM     11  C   UNL     1       7.478   5.190  14.824  0.00  0.00    +0.000 A 
ATOM     12  C   UNL     1       6.818   5.196  16.060  0.00  0.00    +0.000 A 
ATOM     13  C   UNL     1       5.543   4.632  16.184  0.00  0.00    +0.000 A 
ATOM     14  C   UNL     1       4.962   4.046  15.048  0.00  0.00    +0.000 A 
ATOM     15  C   UNL     1       5.627   4.036  13.821  0.00  0.00    +0.000 A 
BRANCH  10  16
ATOM     16  N   UNL     1       7.570   4.561  12.482  0.00  0.00    +0.000 N 
ATOM     17  H   UNL     1       8.580   4.564  12.595  0.00  0.00    +0.000 HD
ATOM     18  H   UNL     1       7.265   5.225  11.777  0.00  0.00    +0.000 HD
ENDBRANCH  10  16
ENDBRANCH   1  13
BRANCH   5  19
ATOM     19  N   UNL     1       1.760   2.440  21.950  0.00  0.00    +0.000 N 
ATOM     20  H   UNL     1       0.926   2.024  21.547  0.00  0.00    +0.000 HD
ATOM     21  H   UNL     1       2.397   1.756  22.342  0.00  0.00    +0.000 HD
ENDBRANCH   5  19
TORSDOF 3
ENDMDL
MODEL 9
REMARK VINA RESULT:      -6.4      1.616      2.371
REMARK  Name = 
REMARK  3 active torsions:
REMARK  status: ('A' for Active; 'I' for Inactive)
REMARK    1  A    between atoms: N_1  and  C_2
REMARK    2  A    between atoms: C_5  and  C_6
REMARK    3  A    between atoms: C_10  and  N_11
REMARK                            x       y       z     vdW  Elec       q    Type
REMARK                         _______ _______ _______ _____ _____    ______ ____
ROOT
ATOM      1  C   UNL     1       3.148   6.772  18.136  0.00  0.00    +0.000 A 
ATOM      2  N   UNL     1       2.604   7.911  17.763  0.00  0.00    +0.000 NA
ATOM      3  C   UNL     1       1.930   8.487  18.815  0.00  0.00    +0.000 A 
ATOM      4  C   UNL     1       1.364   9.774  18.802  0.00  0.00    +0.000 A 
ATOM      5  C   UNL     1       0.744  10.288  19.943  0.00  0.00    +0.000 A 
ATOM      6  C   UNL     1       0.687   9.501  21.093  0.00  0.00    +0.000 A 
ATOM      7  C   UNL     1       1.208   8.197  21.125  0.00  0.00    +0.000 A 
ATOM      8  C   UNL     1       1.863   7.723  19.980  0.00  0.00    +0.000 A 
ATOM      9  S   UNL     1       2.726   6.250  19.719  0.00  0.00    +0.000 S 
ENDROOT
BRANCH   1  13
ATOM     10  C   UNL     1       5.492   4.401  15.439  0.00  0.00    +0.000 A 
ATOM     11  C   UNL     1       5.579   5.795  15.390  0.00  0.00    +0.000 A 
ATOM     12  C   UNL     1       4.844   6.595  16.275  0.00  0.00    +0.000 A 
ATOM     13  C   UNL     1       4.037   6.007  17.255  0.00  0.00    +0.000 A 
ATOM     14  C   UNL     1       4.004   4.606  17.338  0.00  0.00    +0.000 A 
ATOM     15  C   UNL     1       4.743   3.814  16.458  0.00  0.00    +0.000 A 
BRANCH  10  16
ATOM     16  N   UNL     1       6.306   3.609  14.625  0.00  0.00    +0.000 N 
ATOM     17  H   UNL     1       5.835   2.796  14.239  0.00  0.00    +0.000 HD
ATOM     18  H   UNL     1       7.195   3.368  15.051  0.00  0.00    +0.000 HD
ENDBRANCH  10  16
ENDBRANCH   1  13
BRANCH   5  19
ATOM     19  N   UNL     1       0.436  11.652  20.001  0.00  0.00    +0.000 N 
ATOM     20  H   UNL     1       0.290  12.092  19.098  0.00  0.00    +0.000 HD
ATOM     21  H   UNL     1      -0.264  11.909  20.688  0.00  0.00    +0.000 HD
ENDBRANCH   5  19
TORSDOF 3
ENDMDL
