MODEL 1
REMARK VINA RESULT:      -7.3      0.000      0.000
REMARK  Name = 
REMARK  11 active torsions:
REMARK  status: ('A' for Active; 'I' for Inactive)
REMARK    1  A    between atoms: C_1  and  C_2
REMARK    2  A    between atoms: C_2  and  C_3
REMARK    3  A    between atoms: C_3  and  O_4
REMARK    4  A    between atoms: O_4  and  C_5
REMARK    5  A    between atoms: N_7  and  C_8
REMARK    6  A    between atoms: C_8  and  C_9
REMARK    7  A    between atoms: C_9  and  O_11
REMARK    8  A    between atoms: C_12  and  C_14
REMARK    9  A    between atoms: C_19  and  C_20
REMARK   10  A    between atoms: C_24  and  O_25
REMARK   11  A    between atoms: O_25  and  C_26
REMARK                            x       y       z     vdW  Elec       q    Type
REMARK                         _______ _______ _______ _____ _____    ______ ____
ROOT
ATOM      1  C   UNL     1       2.895   5.262  18.664  0.00  0.00    +0.000 A 
ATOM      2  C   UNL     1       2.936   4.463  19.809  0.00  0.00    +0.000 A 
ATOM      3  C   UNL     1       2.294   4.848  20.970  0.00  0.00    +0.000 A 
ATOM      4  C   UNL     1       1.719   6.107  21.056  0.00  0.00    +0.000 A 
ATOM      5  C   UNL     1       1.793   7.052  20.007  0.00  0.00    +0.000 A 
ATOM      6  C   UNL     1       1.349   8.413  20.161  0.00  0.00    +0.000 A 
ATOM      7  C   UNL     1       1.463   9.316  19.080  0.00  0.00    +0.000 A 
ATOM      8  C   UNL     1       1.968   8.876  17.868  0.00  0.00    +0.000 A 
ATOM      9  C   UNL     1       2.388   7.549  17.713  0.00  0.00    +0.000 A 
ATOM     10  C   UNL     1       2.357   6.603  18.766  0.00  0.00    +0.000 A 
ENDROOT
BRANCH   1  14
ATOM     11  C   UNL     1       5.451   4.619  15.879  0.00  0.00    +0.000 C 
ATOM     12  O   UNL     1       5.268   3.472  15.503  0.00  0.00    +0.000 OA
ATOM     13  N   UNL     1       4.835   5.242  16.971  0.00  0.00    +0.000 N 
ATOM     14  C   UNL     1       3.589   4.738  17.424  0.00  0.00    +0.000 C 
ATOM     15  O   UNL     1       2.951   3.905  16.777  0.00  0.00    +0.000 OA
BRANCH  11  16
ATOM     16  O   UNL     1       6.379   5.445  15.288  0.00  0.00    +0.000 OA
BRANCH  16  17
ATOM     17  C   UNL     1       7.430   4.799  14.541  0.00  0.00    +0.000 C 
BRANCH  17  19
ATOM     18  C   UNL     1       6.662   3.786  12.371  0.00  0.00    +0.000 C 
ATOM     19  C   UNL     1       7.261   5.016  13.041  0.00  0.00    +0.000 C 
ENDBRANCH  17  19
ENDBRANCH  16  17
ENDBRANCH  11  16
BRANCH  13  20
ATOM     20  C   UNL     1       5.660   6.218  17.700  0.00  0.00    +0.000 C 
BRANCH  20  21
ATOM     21  C   UNL     1       6.755   5.649  18.602  0.00  0.00    +0.000 C 
ATOM     22  O   UNL     1       6.547   5.331  19.767  0.00  0.00    +0.000 OA
BRANCH  21  23
ATOM     23  O   UNL     1       7.970   5.489  18.036  0.00  0.00    +0.000 OA
ATOM     24  H   UNL     1       8.722   5.661  18.629  0.00  0.00    +0.000 HD
ENDBRANCH  21  23
ENDBRANCH  20  21
ENDBRANCH  13  20
ENDBRANCH   1  14
BRANCH   6  25
ATOM     25  C   UNL     1       0.803   9.009  21.454  0.00  0.00    +0.000 C 
ATOM     26  F   UNL     1       0.440  10.323  21.411  0.00  0.00    +0.000 F 
ATOM     27  F   UNL     1      -0.319   8.369  21.898  0.00  0.00    +0.000 F 
ATOM     28  F   UNL     1       1.703   8.950  22.484  0.00  0.00    +0.000 F 
ENDBRANCH   6  25
BRANCH   7  29
ATOM     29  O   UNL     1       1.056  10.602  19.331  0.00  0.00    +0.000 OA
ATOM     30  C   UNL     1       1.677  11.663  18.618  0.00  0.00    +0.000 C 
ENDBRANCH   7  29
TORSDOF 9
ENDMDL
MODEL 2
REMARK VINA RESULT:      -7.3      1.411      2.139
REMARK  Name = 
REMARK  11 active torsions:
REMARK  status: ('A' for Active; 'I' for Inactive)
REMARK    1  A    between atoms: C_1  and  C_2
REMARK    2  A    between atoms: C_2  and  C_3
REMARK    3  A    between atoms: C_3  and  O_4
REMARK    4  A    between atoms: O_4  and  C_5
REMARK    5  A    between atoms: N_7  and  C_8
REMARK    6  A    between atoms: C_8  and  C_9
REMARK    7  A    between atoms: C_9  and  O_11
REMARK    8  A    between atoms: C_12  and  C_14
REMARK    9  A    between atoms: C_19  and  C_20
REMARK   10  A    between atoms: C_24  and  O_25
REMARK   11  A    between atoms: O_25  and  C_26
REMARK                            x       y       z     vdW  Elec       q    Type
REMARK                         _______ _______ _______ _____ _____    ______ ____
ROOT
ATOM      1  C   UNL     1       3.410   6.380  18.666  0.00  0.00    +0.000 A 
ATOM      2  C   UNL     1       3.445   5.448  19.705  0.00  0.00    +0.000 A 
ATOM      3  C   UNL     1       2.529   5.497  20.739  0.00  0.00    +0.000 A 
ATOM      4  C   UNL     1       1.650   6.566  20.831  0.00  0.00    +0.000 A 
ATOM      5  C   UNL     1       1.670   7.650  19.925  0.00  0.00    +0.000 A 
ATOM      6  C   UNL     1       0.878   8.836  20.121  0.00  0.00    +0.000 A 
ATOM      7  C   UNL     1       0.953   9.894  19.188  0.00  0.00    +0.000 A 
ATOM      8  C   UNL     1       1.761   9.768  18.070  0.00  0.00    +0.000 A 
ATOM      9  C   UNL     1       2.523   8.610  17.871  0.00  0.00    +0.000 A 
ATOM     10  C   UNL     1       2.543   7.533  18.791  0.00  0.00    +0.000 A 
ENDROOT
BRANCH   1  14
ATOM     11  C   UNL     1       5.344   5.097  15.614  0.00  0.00    +0.000 C 
ATOM     12  O   UNL     1       5.858   6.076  15.097  0.00  0.00    +0.000 OA
ATOM     13  N   UNL     1       4.436   5.102  16.681  0.00  0.00    +0.000 N 
ATOM     14  C   UNL     1       4.425   6.220  17.554  0.00  0.00    +0.000 C 
ATOM     15  O   UNL     1       5.305   7.082  17.518  0.00  0.00    +0.000 OA
BRANCH  11  16
ATOM     16  O   UNL     1       5.554   3.822  15.141  0.00  0.00    +0.000 OA
BRANCH  16  17
ATOM     17  C   UNL     1       6.254   3.710  13.885  0.00  0.00    +0.000 C 
BRANCH  17  19
ATOM     18  C   UNL     1       5.644   2.554  11.736  0.00  0.00    +0.000 C 
ATOM     19  C   UNL     1       5.282   3.669  12.710  0.00  0.00    +0.000 C 
ENDBRANCH  17  19
ENDBRANCH  16  17
ENDBRANCH  11  16
BRANCH  13  20
ATOM     20  C   UNL     1       3.410   4.049  16.653  0.00  0.00    +0.000 C 
BRANCH  20  21
ATOM     21  C   UNL     1       3.628   2.856  17.584  0.00  0.00    +0.000 C 
ATOM     22  O   UNL     1       2.780   1.986  17.745  0.00  0.00    +0.000 OA
BRANCH  21  23
ATOM     23  O   UNL     1       4.825   2.796  18.205  0.00  0.00    +0.000 OA
ATOM     24  H   UNL     1       5.022   3.552  18.783  0.00  0.00    +0.000 HD
ENDBRANCH  21  23
ENDBRANCH  20  21
ENDBRANCH  13  20
ENDBRANCH   1  14
BRANCH   6  25
ATOM     25  C   UNL     1      -0.023   9.091  21.325  0.00  0.00    +0.000 C 
ATOM     26  F   UNL     1      -0.864  10.160  21.237  0.00  0.00    +0.000 F 
ATOM     27  F   UNL     1      -0.851   8.038  21.597  0.00  0.00    +0.000 F 
ATOM     28  F   UNL     1       0.684   9.320  22.474  0.00  0.00    +0.000 F 
ENDBRANCH   6  25
BRANCH   7  29
ATOM     29  O   UNL     1       0.197  11.001  19.479  0.00  0.00    +0.000 OA
ATOM     30  C   UNL     1       0.712  12.284  19.146  0.00  0.00    +0.000 C 
ENDBRANCH   7  29
TORSDOF 9
ENDMDL
MODEL 3
REMARK VINA RESULT:      -7.0      0.434      1.015
REMARK  Name = 
REMARK  11 active torsions:
REMARK  status: ('A' for Active; 'I' for Inactive)
REMARK    1  A    between atoms: C_1  and  C_2
REMARK    2  A    between atoms: C_2  and  C_3
REMARK    3  A    between atoms: C_3  and  O_4
REMARK    4  A    between atoms: O_4  and  C_5
REMARK    5  A    between atoms: N_7  and  C_8
REMARK    6  A    between atoms: C_8  and  C_9
REMARK    7  A    between atoms: C_9  and  O_11
REMARK    8  A    between atoms: C_12  and  C_14
REMARK    9  A    between atoms: C_19  and  C_20
REMARK   10  A    between atoms: C_24  and  O_25
REMARK   11  A    between atoms: O_25  and  C_26
REMARK                            x       y       z     vdW  Elec       q    Type
REMARK                         _______ _______ _______ _____ _____    ______ ____
ROOT
ATOM      1  C   UNL     1       3.040   5.151  18.710  0.00  0.00    +0.000 A 
ATOM      2  C   UNL     1       3.045   4.363  19.862  0.00  0.00    +0.000 A 
ATOM      3  C   UNL     1       2.353   4.750  20.994  0.00  0.00    +0.000 A 
ATOM      4  C   UNL     1       1.761   6.004  21.045  0.00  0.00    +0.000 A 
ATOM      5  C   UNL     1       1.867   6.940  19.991  0.00  0.00    +0.000 A 
ATOM      6  C   UNL     1       1.403   8.297  20.115  0.00  0.00    +0.000 A 
ATOM      7  C   UNL     1       1.550   9.192  19.031  0.00  0.00    +0.000 A 
ATOM      8  C   UNL     1       2.107   8.746  17.844  0.00  0.00    +0.000 A 
ATOM      9  C   UNL     1       2.547   7.423  17.718  0.00  0.00    +0.000 A 
ATOM     10  C   UNL     1       2.484   6.486  18.778  0.00  0.00    +0.000 A 
ENDROOT
BRANCH   1  14
ATOM     11  C   UNL     1       5.677   4.567  15.988  0.00  0.00    +0.000 C 
ATOM     12  O   UNL     1       5.580   3.395  15.661  0.00  0.00    +0.000 OA
ATOM     13  N   UNL     1       5.003   5.193  17.044  0.00  0.00    +0.000 N 
ATOM     14  C   UNL     1       3.789   4.622  17.503  0.00  0.00    +0.000 C 
ATOM     15  O   UNL     1       3.220   3.720  16.886  0.00  0.00    +0.000 OA
BRANCH  11  16
ATOM     16  O   UNL     1       6.555   5.430  15.372  0.00  0.00    +0.000 OA
BRANCH  16  17
ATOM     17  C   UNL     1       7.493   4.841  14.448  0.00  0.00    +0.000 C 
BRANCH  17  19
ATOM     18  C   UNL     1       6.683   3.682  12.368  0.00  0.00    +0.000 C 
ATOM     19  C   UNL     1       7.037   5.020  13.004  0.00  0.00    +0.000 C 
ENDBRANCH  17  19
ENDBRANCH  16  17
ENDBRANCH  11  16
BRANCH  13  20
ATOM     20  C   UNL     1       5.747   6.255  17.738  0.00  0.00    +0.000 C 
BRANCH  20  21
ATOM     21  C   UNL     1       6.829   5.803  18.719  0.00  0.00    +0.000 C 
ATOM     22  O   UNL     1       7.996   6.162  18.620  0.00  0.00    +0.000 OA
BRANCH  21  23
ATOM     23  O   UNL     1       6.422   5.002  19.727  0.00  0.00    +0.000 OA
ATOM     24  H   UNL     1       6.658   5.316  20.617  0.00  0.00    +0.000 HD
ENDBRANCH  21  23
ENDBRANCH  20  21
ENDBRANCH  13  20
ENDBRANCH   1  14
BRANCH   6  25
ATOM     25  C   UNL     1       0.800   8.899  21.380  0.00  0.00    +0.000 C 
ATOM     26  F   UNL     1       1.419   8.588  22.554  0.00  0.00    +0.000 F 
ATOM     27  F   UNL     1       0.790  10.265  21.361  0.00  0.00    +0.000 F 
ATOM     28  F   UNL     1      -0.499   8.516  21.579  0.00  0.00    +0.000 F 
ENDBRANCH   6  25
BRANCH   7  29
ATOM     29  O   UNL     1       1.119  10.475  19.253  0.00  0.00    +0.000 OA
ATOM     30  C   UNL     1       0.045  10.979  18.471  0.00  0.00    +0.000 C 
ENDBRANCH   7  29
TORSDOF 9
ENDMDL
MODEL 4
REMARK VINA RESULT:      -6.8      2.682      4.337
REMARK  Name = 
REMARK  11 active torsions:
REMARK  status: ('A' for Active; 'I' for Inactive)
REMARK    1  A    between atoms: C_1  and  C_2
REMARK    2  A    between atoms: C_2  and  C_3
REMARK    3  A    between atoms: C_3  and  O_4
REMARK    4  A    between atoms: O_4  and  C_5
REMARK    5  A    between atoms: N_7  and  C_8
REMARK    6  A    between atoms: C_8  and  C_9
REMARK    7  A    between atoms: C_9  and  O_11
REMARK    8  A    between atoms: C_12  and  C_14
REMARK    9  A    between atoms: C_19  and  C_20
REMARK   10  A    between atoms: C_24  and  O_25
REMARK   11  A    between atoms: O_25  and  C_26
REMARK                            x       y       z     vdW  Elec       q    Type
REMARK                         _______ _______ _______ _____ _____    ______ ____
ROOT
ATOM      1  C   UNL     1       2.042   7.105  19.491  0.00  0.00    +0.000 A 
ATOM      2  C   UNL     1       2.281   7.298  18.129  0.00  0.00    +0.000 A 
ATOM      3  C   UNL     1       2.254   8.563  17.573  0.00  0.00    +0.000 A 
ATOM      4  C   UNL     1       1.845   9.645  18.340  0.00  0.00    +0.000 A 
ATOM      5  C   UNL     1       1.408   9.510  19.677  0.00  0.00    +0.000 A 
ATOM      6  C   UNL     1       0.822  10.601  20.411  0.00  0.00    +0.000 A 
ATOM      7  C   UNL     1       0.389  10.400  21.741  0.00  0.00    +0.000 A 
ATOM      8  C   UNL     1       0.563   9.164  22.341  0.00  0.00    +0.000 A 
ATOM      9  C   UNL     1       1.144   8.106  21.632  0.00  0.00    +0.000 A 
ATOM     10  C   UNL     1       1.550   8.215  20.279  0.00  0.00    +0.000 A 
ENDROOT
BRANCH   1  14
ATOM     11  C   UNL     1       3.346   3.656  20.544  0.00  0.00    +0.000 C 
ATOM     12  O   UNL     1       2.640   3.289  21.470  0.00  0.00    +0.000 OA
ATOM     13  N   UNL     1       3.322   4.914  19.929  0.00  0.00    +0.000 N 
ATOM     14  C   UNL     1       2.137   5.688  20.019  0.00  0.00    +0.000 C 
ATOM     15  O   UNL     1       1.083   5.215  20.448  0.00  0.00    +0.000 OA
BRANCH  11  16
ATOM     16  O   UNL     1       4.341   2.862  20.021  0.00  0.00    +0.000 OA
BRANCH  16  17
ATOM     17  C   UNL     1       3.938   1.565  19.535  0.00  0.00    +0.000 C 
BRANCH  17  19
ATOM     18  C   UNL     1       2.331   2.263  17.731  0.00  0.00    +0.000 C 
ATOM     19  C   UNL     1       3.666   1.594  18.035  0.00  0.00    +0.000 C 
ENDBRANCH  17  19
ENDBRANCH  16  17
ENDBRANCH  11  16
BRANCH  13  20
ATOM     20  C   UNL     1       4.618   5.417  19.450  0.00  0.00    +0.000 C 
BRANCH  20  21
ATOM     21  C   UNL     1       5.141   4.824  18.141  0.00  0.00    +0.000 C 
ATOM     22  O   UNL     1       4.610   5.050  17.060  0.00  0.00    +0.000 OA
BRANCH  21  23
ATOM     23  O   UNL     1       6.245   4.053  18.235  0.00  0.00    +0.000 OA
ATOM     24  H   UNL     1       7.048   4.525  18.518  0.00  0.00    +0.000 HD
ENDBRANCH  21  23
ENDBRANCH  20  21
ENDBRANCH  13  20
ENDBRANCH   1  14
BRANCH   6  25
ATOM     25  C   UNL     1       0.560  11.991  19.843  0.00  0.00    +0.000 C 
ATOM     26  F   UNL     1       1.087  12.253  18.613  0.00  0.00    +0.000 F 
ATOM     27  F   UNL     1      -0.771  12.260  19.698  0.00  0.00    +0.000 F 
ATOM     28  F   UNL     1       1.061  12.989  20.636  0.00  0.00    +0.000 F 
ENDBRANCH   6  25
BRANCH   7  29
ATOM     29  O   UNL     1      -0.196  11.482  22.349  0.00  0.00    +0.000 OA
ATOM     30  C   UNL     1      -1.421  11.294  23.044  0.00  0.00    +0.000 C 
ENDBRANCH   7  29
TORSDOF 9
ENDMDL
MODEL 5
REMARK VINA RESULT:      -6.7      2.822      4.343
REMARK  Name = 
REMARK  11 active torsions:
REMARK  status: ('A' for Active; 'I' for Inactive)
REMARK    1  A    between atoms: C_1  and  C_2
REMARK    2  A    between atoms: C_2  and  C_3
REMARK    3  A    between atoms: C_3  and  O_4
REMARK    4  A    between atoms: O_4  and  C_5
REMARK    5  A    between atoms: N_7  and  C_8
REMARK    6  A    between atoms: C_8  and  C_9
REMARK    7  A    between atoms: C_9  and  O_11
REMARK    8  A    between atoms: C_12  and  C_14
REMARK    9  A    between atoms: C_19  and  C_20
REMARK   10  A    between atoms: C_24  and  O_25
REMARK   11  A    between atoms: O_25  and  C_26
REMARK                            x       y       z     vdW  Elec       q    Type
REMARK                         _______ _______ _______ _____ _____    ______ ____
ROOT
ATOM      1  C   UNL     1       2.158   7.155  19.404  0.00  0.00    +0.000 A 
ATOM      2  C   UNL     1       2.345   7.372  18.037  0.00  0.00    +0.000 A 
ATOM      3  C   UNL     1       2.244   8.640  17.497  0.00  0.00    +0.000 A 
ATOM      4  C   UNL     1       1.812   9.695  18.287  0.00  0.00    +0.000 A 
ATOM      5  C   UNL     1       1.422   9.527  19.636  0.00  0.00    +0.000 A 
ATOM      6  C   UNL     1       0.812  10.583  20.400  0.00  0.00    +0.000 A 
ATOM      7  C   UNL     1       0.430  10.350  21.740  0.00  0.00    +0.000 A 
ATOM      8  C   UNL     1       0.678   9.117  22.321  0.00  0.00    +0.000 A 
ATOM      9  C   UNL     1       1.283   8.093  21.582  0.00  0.00    +0.000 A 
ATOM     10  C   UNL     1       1.641   8.234  20.219  0.00  0.00    +0.000 A 
ENDROOT
BRANCH   1  14
ATOM     11  C   UNL     1       3.485   3.611  20.025  0.00  0.00    +0.000 C 
ATOM     12  O   UNL     1       3.155   3.315  21.161  0.00  0.00    +0.000 OA
ATOM     13  N   UNL     1       3.331   4.863  19.415  0.00  0.00    +0.000 N 
ATOM     14  C   UNL     1       2.333   5.739  19.913  0.00  0.00    +0.000 C 
ATOM     15  O   UNL     1       1.484   5.364  20.724  0.00  0.00    +0.000 OA
BRANCH  11  16
ATOM     16  O   UNL     1       4.143   2.729  19.198  0.00  0.00    +0.000 OA
BRANCH  16  17
ATOM     17  C   UNL     1       3.349   1.666  18.633  0.00  0.00    +0.000 C 
BRANCH  17  19
ATOM     18  C   UNL     1       0.898   2.230  18.643  0.00  0.00    +0.000 C 
ATOM     19  C   UNL     1       2.181   2.216  17.821  0.00  0.00    +0.000 C 
ENDBRANCH  17  19
ENDBRANCH  16  17
ENDBRANCH  11  16
BRANCH  13  20
ATOM     20  C   UNL     1       4.385   5.246  18.464  0.00  0.00    +0.000 C 
BRANCH  20  21
ATOM     21  C   UNL     1       5.827   4.975  18.895  0.00  0.00    +0.000 C 
ATOM     22  O   UNL     1       6.362   5.583  19.815  0.00  0.00    +0.000 OA
BRANCH  21  23
ATOM     23  O   UNL     1       6.478   4.003  18.221  0.00  0.00    +0.000 OA
ATOM     24  H   UNL     1       6.198   3.098  18.441  0.00  0.00    +0.000 HD
ENDBRANCH  21  23
ENDBRANCH  20  21
ENDBRANCH  13  20
ENDBRANCH   1  14
BRANCH   6  25
ATOM     25  C   UNL     1       0.470  11.966  19.855  0.00  0.00    +0.000 C 
ATOM     26  F   UNL     1       0.933  13.031  20.570  0.00  0.00    +0.000 F 
ATOM     27  F   UNL     1       0.958  12.173  18.596  0.00  0.00    +0.000 F 
ATOM     28  F   UNL     1      -0.879  12.183  19.776  0.00  0.00    +0.000 F 
ENDBRANCH   6  25
BRANCH   7  29
ATOM     29  O   UNL     1      -0.184  11.399  22.377  0.00  0.00    +0.000 OA
ATOM     30  C   UNL     1      -1.387  11.152  23.092  0.00  0.00    +0.000 C 
ENDBRANCH   7  29
TORSDOF 9
ENDMDL
MODEL 6
REMARK VINA RESULT:      -6.7      1.101      2.415
REMARK  Name = 
REMARK  11 active torsions:
REMARK  status: ('A' for Active; 'I' for Inactive)
REMARK    1  A    between atoms: C_1  and  C_2
REMARK    2  A    between atoms: C_2  and  C_3
REMARK    3  A    between atoms: C_3  and  O_4
REMARK    4  A    between atoms: O_4  and  C_5
REMARK    5  A    between atoms: N_7  and  C_8
REMARK    6  A    between atoms: C_8  and  C_9
REMARK    7  A    between atoms: C_9  and  O_11
REMARK    8  A    between atoms: C_12  and  C_14
REMARK    9  A    between atoms: C_19  and  C_20
REMARK   10  A    between atoms: C_24  and  O_25
REMARK   11  A    between atoms: O_25  and  C_26
REMARK                            x       y       z     vdW  Elec       q    Type
REMARK                         _______ _______ _______ _____ _____    ______ ____
ROOT
ATOM      1  C   UNL     1       3.643   5.622  19.294  0.00  0.00    +0.000 A 
ATOM      2  C   UNL     1       3.355   4.783  20.373  0.00  0.00    +0.000 A 
ATOM      3  C   UNL     1       2.240   4.995  21.161  0.00  0.00    +0.000 A 
ATOM      4  C   UNL     1       1.470   6.134  20.977  0.00  0.00    +0.000 A 
ATOM      5  C   UNL     1       1.798   7.130  20.029  0.00  0.00    +0.000 A 
ATOM      6  C   UNL     1       1.101   8.388  19.958  0.00  0.00    +0.000 A 
ATOM      7  C   UNL     1       1.485   9.351  18.998  0.00  0.00    +0.000 A 
ATOM      8  C   UNL     1       2.507   9.064  18.108  0.00  0.00    +0.000 A 
ATOM      9  C   UNL     1       3.178   7.837  18.168  0.00  0.00    +0.000 A 
ATOM     10  C   UNL     1       2.887   6.846  19.138  0.00  0.00    +0.000 A 
ENDROOT
BRANCH   1  14
ATOM     11  C   UNL     1       5.946   4.437  16.465  0.00  0.00    +0.000 C 
ATOM     12  O   UNL     1       6.955   5.120  16.535  0.00  0.00    +0.000 OA
ATOM     13  N   UNL     1       4.776   4.606  17.216  0.00  0.00    +0.000 N 
ATOM     14  C   UNL     1       4.861   5.285  18.458  0.00  0.00    +0.000 C 
ATOM     15  O   UNL     1       5.946   5.554  18.979  0.00  0.00    +0.000 OA
BRANCH  11  16
ATOM     16  O   UNL     1       5.811   3.419  15.549  0.00  0.00    +0.000 OA
BRANCH  16  17
ATOM     17  C   UNL     1       6.402   3.641  14.252  0.00  0.00    +0.000 C 
BRANCH  17  19
ATOM     18  C   UNL     1       5.668   3.017  11.929  0.00  0.00    +0.000 C 
ATOM     19  C   UNL     1       5.334   3.823  13.179  0.00  0.00    +0.000 C 
ENDBRANCH  17  19
ENDBRANCH  16  17
ENDBRANCH  11  16
BRANCH  13  20
ATOM     20  C   UNL     1       3.520   4.271  16.528  0.00  0.00    +0.000 C 
BRANCH  20  21
ATOM     21  C   UNL     1       2.594   3.282  17.236  0.00  0.00    +0.000 C 
ATOM     22  O   UNL     1       2.992   2.211  17.678  0.00  0.00    +0.000 OA
BRANCH  21  23
ATOM     23  O   UNL     1       1.307   3.666  17.374  0.00  0.00    +0.000 OA
ATOM     24  H   UNL     1       1.176   4.625  17.467  0.00  0.00    +0.000 HD
ENDBRANCH  21  23
ENDBRANCH  20  21
ENDBRANCH  13  20
ENDBRANCH   1  14
BRANCH   6  25
ATOM     25  C   UNL     1      -0.017   8.817  20.901  0.00  0.00    +0.000 C 
ATOM     26  F   UNL     1       0.352   9.568  21.978  0.00  0.00    +0.000 F 
ATOM     27  F   UNL     1      -0.970   9.574  20.280  0.00  0.00    +0.000 F 
ATOM     28  F   UNL     1      -0.681   7.754  21.452  0.00  0.00    +0.000 F 
ENDBRANCH   6  25
BRANCH   7  29
ATOM     29  O   UNL     1       0.795  10.536  19.032  0.00  0.00    +0.000 OA
ATOM     30  C   UNL     1       1.487  11.736  18.713  0.00  0.00    +0.000 C 
ENDBRANCH   7  29
TORSDOF 9
ENDMDL
MODEL 7
REMARK VINA RESULT:      -6.6      4.122      8.858
REMARK  Name = 
REMARK  11 active torsions:
REMARK  status: ('A' for Active; 'I' for Inactive)
REMARK    1  A    between atoms: C_1  and  C_2
REMARK    2  A    between atoms: C_2  and  C_3
REMARK    3  A    between atoms: C_3  and  O_4
REMARK    4  A    between atoms: O_4  and  C_5
REMARK    5  A    between atoms: N_7  and  C_8
REMARK    6  A    between atoms: C_8  and  C_9
REMARK    7  A    between atoms: C_9  and  O_11
REMARK    8  A    between atoms: C_12  and  C_14
REMARK    9  A    between atoms: C_19  and  C_20
REMARK   10  A    between atoms: C_24  and  O_25
REMARK   11  A    between atoms: O_25  and  C_26
REMARK                            x       y       z     vdW  Elec       q    Type
REMARK                         _______ _______ _______ _____ _____    ______ ____
ROOT
ATOM      1  C   UNL     1       1.667   8.353  19.915  0.00  0.00    +0.000 A 
ATOM      2  C   UNL     1       2.125   9.170  18.879  0.00  0.00    +0.000 A 
ATOM      3  C   UNL     1       2.623   8.628  17.710  0.00  0.00    +0.000 A 
ATOM      4  C   UNL     1       2.807   7.256  17.609  0.00  0.00    +0.000 A 
ATOM      5  C   UNL     1       2.544   6.371  18.680  0.00  0.00    +0.000 A 
ATOM      6  C   UNL     1       2.898   4.977  18.634  0.00  0.00    +0.000 A 
ATOM      7  C   UNL     1       2.623   4.145  19.742  0.00  0.00    +0.000 A 
ATOM      8  C   UNL     1       1.982   4.670  20.852  0.00  0.00    +0.000 A 
ATOM      9  C   UNL     1       1.626   6.023  20.893  0.00  0.00    +0.000 A 
ATOM     10  C   UNL     1       1.919   6.929  19.845  0.00  0.00    +0.000 A 
ENDROOT
BRANCH   1  14
ATOM     11  C   UNL     1      -0.571  10.363  22.294  0.00  0.00    +0.000 C 
ATOM     12  O   UNL     1      -0.408   9.884  23.405  0.00  0.00    +0.000 OA
ATOM     13  N   UNL     1      -0.056   9.862  21.091  0.00  0.00    +0.000 N 
ATOM     14  C   UNL     1       1.097   9.038  21.140  0.00  0.00    +0.000 C 
ATOM     15  O   UNL     1       1.761   8.910  22.170  0.00  0.00    +0.000 OA
BRANCH  11  16
ATOM     16  O   UNL     1      -1.375  11.458  22.077  0.00  0.00    +0.000 OA
BRANCH  16  17
ATOM     17  C   UNL     1      -1.913  12.101  23.251  0.00  0.00    +0.000 C 
BRANCH  17  19
ATOM     18  C   UNL     1      -4.109  12.507  24.407  0.00  0.00    +0.000 C 
ATOM     19  C   UNL     1      -3.385  12.451  23.067  0.00  0.00    +0.000 C 
ENDBRANCH  17  19
ENDBRANCH  16  17
ENDBRANCH  11  16
BRANCH  13  20
ATOM     20  C   UNL     1      -0.907  10.045  19.906  0.00  0.00    +0.000 C 
BRANCH  20  21
ATOM     21  C   UNL     1      -0.512  11.169  18.947  0.00  0.00    +0.000 C 
ATOM     22  O   UNL     1       0.210  12.098  19.286  0.00  0.00    +0.000 OA
BRANCH  21  23
ATOM     23  O   UNL     1      -0.984  11.068  17.686  0.00  0.00    +0.000 OA
ATOM     24  H   UNL     1      -0.935  11.890  17.166  0.00  0.00    +0.000 HD
ENDBRANCH  21  23
ENDBRANCH  20  21
ENDBRANCH  13  20
ENDBRANCH   1  14
BRANCH   6  25
ATOM     25  C   UNL     1       3.627   4.302  17.477  0.00  0.00    +0.000 C 
ATOM     26  F   UNL     1       4.062   5.118  16.475  0.00  0.00    +0.000 F 
ATOM     27  F   UNL     1       4.753   3.639  17.877  0.00  0.00    +0.000 F 
ATOM     28  F   UNL     1       2.853   3.374  16.834  0.00  0.00    +0.000 F 
ENDBRANCH   6  25
BRANCH   7  29
ATOM     29  O   UNL     1       3.034   2.841  19.627  0.00  0.00    +0.000 OA
ATOM     30  C   UNL     1       3.909   2.313  20.615  0.00  0.00    +0.000 C 
ENDBRANCH   7  29
TORSDOF 9
ENDMDL
MODEL 8
REMARK VINA RESULT:      -6.6      0.928      1.296
REMARK  Name = 
REMARK  11 active torsions:
REMARK  status: ('A' for Active; 'I' for Inactive)
REMARK    1  A    between atoms: C_1  and  C_2
REMARK    2  A    between atoms: C_2  and  C_3
REMARK    3  A    between atoms: C_3  and  O_4
REMARK    4  A    between atoms: O_4  and  C_5
REMARK    5  A    between atoms: N_7  and  C_8
REMARK    6  A    between atoms: C_8  and  C_9
REMARK    7  A    between atoms: C_9  and  O_11
REMARK    8  A    between atoms: C_12  and  C_14
REMARK    9  A    between atoms: C_19  and  C_20
REMARK   10  A    between atoms: C_24  and  O_25
REMARK   11  A    between atoms: O_25  and  C_26
REMARK                            x       y       z     vdW  Elec       q    Type
REMARK                         _______ _______ _______ _____ _____    ______ ____
ROOT
ATOM      1  C   UNL     1       3.076   5.041  18.777  0.00  0.00    +0.000 A 
ATOM      2  C   UNL     1       2.986   4.334  19.978  0.00  0.00    +0.000 A 
ATOM      3  C   UNL     1       2.262   4.830  21.045  0.00  0.00    +0.000 A 
ATOM      4  C   UNL     1       1.732   6.111  20.983  0.00  0.00    +0.000 A 
ATOM      5  C   UNL     1       1.935   6.967  19.876  0.00  0.00    +0.000 A 
ATOM      6  C   UNL     1       1.535   8.350  19.886  0.00  0.00    +0.000 A 
ATOM      7  C   UNL     1       1.778   9.160  18.755  0.00  0.00    +0.000 A 
ATOM      8  C   UNL     1       2.367   8.608  17.629  0.00  0.00    +0.000 A 
ATOM      9  C   UNL     1       2.745   7.260  17.614  0.00  0.00    +0.000 A 
ATOM     10  C   UNL     1       2.586   6.402  18.729  0.00  0.00    +0.000 A 
ENDROOT
BRANCH   1  14
ATOM     11  C   UNL     1       5.884   3.943  16.407  0.00  0.00    +0.000 C 
ATOM     12  O   UNL     1       5.564   2.846  15.980  0.00  0.00    +0.000 OA
ATOM     13  N   UNL     1       5.223   4.670  17.406  0.00  0.00    +0.000 N 
ATOM     14  C   UNL     1       3.853   4.396  17.648  0.00  0.00    +0.000 C 
ATOM     15  O   UNL     1       3.188   3.688  16.889  0.00  0.00    +0.000 OA
BRANCH  11  16
ATOM     16  O   UNL     1       7.024   4.590  15.988  0.00  0.00    +0.000 OA
BRANCH  16  17
ATOM     17  C   UNL     1       7.154   4.803  14.567  0.00  0.00    +0.000 C 
BRANCH  17  19
ATOM     18  C   UNL     1       6.400   3.631  12.473  0.00  0.00    +0.000 C 
ATOM     19  C   UNL     1       5.965   4.225  13.807  0.00  0.00    +0.000 C 
ENDBRANCH  17  19
ENDBRANCH  16  17
ENDBRANCH  11  16
BRANCH  13  20
ATOM     20  C   UNL     1       6.082   5.487  18.277  0.00  0.00    +0.000 C 
BRANCH  20  21
ATOM     21  C   UNL     1       6.655   6.767  17.668  0.00  0.00    +0.000 C 
ATOM     22  O   UNL     1       7.699   7.272  18.064  0.00  0.00    +0.000 OA
BRANCH  21  23
ATOM     23  O   UNL     1       5.958   7.303  16.644  0.00  0.00    +0.000 OA
ATOM     24  H   UNL     1       5.101   6.877  16.467  0.00  0.00    +0.000 HD
ENDBRANCH  21  23
ENDBRANCH  20  21
ENDBRANCH  13  20
ENDBRANCH   1  14
BRANCH   6  25
ATOM     25  C   UNL     1       0.904   9.065  21.076  0.00  0.00    +0.000 C 
ATOM     26  F   UNL     1       1.077   8.481  22.296  0.00  0.00    +0.000 F 
ATOM     27  F   UNL     1       1.382  10.333  21.245  0.00  0.00    +0.000 F 
ATOM     28  F   UNL     1      -0.455   9.187  20.959  0.00  0.00    +0.000 F 
ENDBRANCH   6  25
BRANCH   7  29
ATOM     29  O   UNL     1       1.403  10.475  18.869  0.00  0.00    +0.000 OA
ATOM     30  C   UNL     1       2.185  11.465  18.216  0.00  0.00    +0.000 C 
ENDBRANCH   7  29
TORSDOF 9
ENDMDL
MODEL 9
REMARK VINA RESULT:      -6.5      4.107      8.806
REMARK  Name = 
REMARK  11 active torsions:
REMARK  status: ('A' for Active; 'I' for Inactive)
REMARK    1  A    between atoms: C_1  and  C_2
REMARK    2  A    between atoms: C_2  and  C_3
REMARK    3  A    between atoms: C_3  and  O_4
REMARK    4  A    between atoms: O_4  and  C_5
REMARK    5  A    between atoms: N_7  and  C_8
REMARK    6  A    between atoms: C_8  and  C_9
REMARK    7  A    between atoms: C_9  and  O_11
REMARK    8  A    between atoms: C_12  and  C_14
REMARK    9  A    between atoms: C_19  and  C_20
REMARK   10  A    between atoms: C_24  and  O_25
REMARK   11  A    between atoms: O_25  and  C_26
REMARK                            x       y       z     vdW  Elec       q    Type
REMARK                         _______ _______ _______ _____ _____    ______ ____
ROOT
ATOM      1  C   UNL     1       1.623   8.452  19.949  0.00  0.00    +0.000 A 
ATOM      2  C   UNL     1       2.070   9.268  18.907  0.00  0.00    +0.000 A 
ATOM      3  C   UNL     1       2.557   8.724  17.734  0.00  0.00    +0.000 A 
ATOM      4  C   UNL     1       2.742   7.352  17.635  0.00  0.00    +0.000 A 
ATOM      5  C   UNL     1       2.490   6.469  18.709  0.00  0.00    +0.000 A 
ATOM      6  C   UNL     1       2.845   5.075  18.663  0.00  0.00    +0.000 A 
ATOM      7  C   UNL     1       2.581   4.245  19.775  0.00  0.00    +0.000 A 
ATOM      8  C   UNL     1       1.950   4.771  20.890  0.00  0.00    +0.000 A 
ATOM      9  C   UNL     1       1.593   6.124  20.932  0.00  0.00    +0.000 A 
ATOM     10  C   UNL     1       1.875   7.029  19.879  0.00  0.00    +0.000 A 
ENDROOT
BRANCH   1  14
ATOM     11  C   UNL     1      -0.604  10.449  22.349  0.00  0.00    +0.000 C 
ATOM     12  O   UNL     1      -0.416   9.982  23.461  0.00  0.00    +0.000 OA
ATOM     13  N   UNL     1      -0.102   9.946  21.142  0.00  0.00    +0.000 N 
ATOM     14  C   UNL     1       1.063   9.139  21.178  0.00  0.00    +0.000 C 
ATOM     15  O   UNL     1       1.746   9.028  22.198  0.00  0.00    +0.000 OA
BRANCH  11  16
ATOM     16  O   UNL     1      -1.427  11.532  22.138  0.00  0.00    +0.000 OA
BRANCH  16  17
ATOM     17  C   UNL     1      -1.057  12.758  22.802  0.00  0.00    +0.000 C 
BRANCH  17  19
ATOM     18  C   UNL     1      -3.493  12.514  23.377  0.00  0.00    +0.000 C 
ATOM     19  C   UNL     1      -2.251  13.386  23.512  0.00  0.00    +0.000 C 
ENDBRANCH  17  19
ENDBRANCH  16  17
ENDBRANCH  11  16
BRANCH  13  20
ATOM     20  C   UNL     1      -0.975  10.108  19.969  0.00  0.00    +0.000 C 
BRANCH  20  21
ATOM     21  C   UNL     1      -0.718  11.330  19.087  0.00  0.00    +0.000 C 
ATOM     22  O   UNL     1      -1.323  11.523  18.040  0.00  0.00    +0.000 OA
BRANCH  21  23
ATOM     23  O   UNL     1       0.201  12.209  19.541  0.00  0.00    +0.000 OA
ATOM     24  H   UNL     1       0.878  12.463  18.890  0.00  0.00    +0.000 HD
ENDBRANCH  21  23
ENDBRANCH  20  21
ENDBRANCH  13  20
ENDBRANCH   1  14
BRANCH   6  25
ATOM     25  C   UNL     1       3.564   4.399  17.500  0.00  0.00    +0.000 C 
ATOM     26  F   UNL     1       4.628   3.610  17.822  0.00  0.00    +0.000 F 
ATOM     27  F   UNL     1       2.746   3.575  16.780  0.00  0.00    +0.000 F 
ATOM     28  F   UNL     1       4.078   5.296  16.603  0.00  0.00    +0.000 F 
ENDBRANCH   6  25
BRANCH   7  29
ATOM     29  O   UNL     1       2.993   2.941  19.659  0.00  0.00    +0.000 OA
ATOM     30  C   UNL     1       2.008   1.924  19.538  0.00  0.00    +0.000 C 
ENDBRANCH   7  29
TORSDOF 9
ENDMDL
