MODEL 1
REMARK VINA RESULT:      -8.1      0.000      0.000
REMARK  Name = 
REMARK  13 active torsions:
REMARK  status: ('A' for Active; 'I' for Inactive)
REMARK    1  A    between atoms: C_1  and  C_2
REMARK    2  A    between atoms: C_2  and  N_3
REMARK    3  A    between atoms: C_10  and  C_11
REMARK    4  A    between atoms: C_14  and  C_15
REMARK    5  A    between atoms: C_21  and  O_22
REMARK    6  A    between atoms: O_22  and  C_23
REMARK    7  A    between atoms: C_26  and  C_27
REMARK    8  A    between atoms: C_26  and  C_31
REMARK    9  A    between atoms: C_27  and  C_28
REMARK   10  A    between atoms: C_28  and  C_29
REMARK   11  A    between atoms: C_28  and  C_30
REMARK   12  A    between atoms: C_31  and  O_33
REMARK   13  A    between atoms: O_33  and  C_34
REMARK                            x       y       z     vdW  Elec       q    Type
REMARK                         _______ _______ _______ _____ _____    ______ ____
ROOT
ATOM      1  N   UNL     1       3.105   3.662  19.255  0.00  0.00    +0.000 N 
ATOM      2  C   UNL     1       4.066   3.323  18.355  0.00  0.00    +0.000 C 
ATOM      3  O   UNL     1       4.841   2.380  18.446  0.00  0.00    +0.000 OA
ATOM      4  C   UNL     1       4.017   4.276  17.183  0.00  0.00    +0.000 C 
ATOM      5  C   UNL     1       2.717   5.052  17.421  0.00  0.00    +0.000 C 
ATOM      6  C   UNL     1       2.166   4.479  18.696  0.00  0.00    +0.000 C 
ATOM      7  O   UNL     1       1.042   4.671  19.125  0.00  0.00    +0.000 OA
ATOM      8  C   UNL     1       3.127   6.517  17.485  0.00  0.00    +0.000 C 
ATOM      9  N   UNL     1       4.581   6.568  17.678  0.00  0.00    +0.000 NA
ATOM     10  C   UNL     1       5.165   5.309  17.142  0.00  0.00    +0.000 C 
ATOM     11  H   UNL     1       4.832   6.633  18.667  0.00  0.00    +0.000 HD
ENDROOT
BRANCH   8  12
ATOM     12  C   UNL     1       2.368   7.411  18.439  0.00  0.00    +0.000 A 
ATOM     13  C   UNL     1       2.408   7.230  19.823  0.00  0.00    +0.000 A 
ATOM     14  C   UNL     1       1.718   8.093  20.672  0.00  0.00    +0.000 A 
ATOM     15  C   UNL     1       0.960   9.179  20.188  0.00  0.00    +0.000 A 
ATOM     16  C   UNL     1       0.894   9.342  18.781  0.00  0.00    +0.000 A 
ATOM     17  C   UNL     1       1.579   8.456  17.932  0.00  0.00    +0.000 A 
BRANCH  15  18
ATOM     18  C   UNL     1       0.281  10.073  21.170  0.00  0.00    +0.000 A 
ATOM     19  C   UNL     1      -0.406   9.541  22.282  0.00  0.00    +0.000 A 
ATOM     20  C   UNL     1      -1.084  10.359  23.191  0.00  0.00    +0.000 A 
ATOM     21  C   UNL     1      -1.063  11.740  23.031  0.00  0.00    +0.000 A 
ATOM     22  C   UNL     1      -0.381  12.297  21.955  0.00  0.00    +0.000 A 
ATOM     23  C   UNL     1       0.264  11.471  21.029  0.00  0.00    +0.000 A 
ENDBRANCH  15  18
BRANCH  16  24
ATOM     24  O   UNL     1       0.175  10.415  18.310  0.00  0.00    +0.000 OA
ATOM     25  C   UNL     1      -1.119  10.184  17.770  0.00  0.00    +0.000 C 
ENDBRANCH  16  24
ENDBRANCH   8  12
BRANCH   1  27
ATOM     26  C   UNL     1       2.285   3.866  21.600  0.00  0.00    +0.000 C 
ATOM     27  C   UNL     1       2.940   3.001  20.537  0.00  0.00    +0.000 C 
ENDBRANCH   1  27
BRANCH  10  28
ATOM     28  C   UNL     1       6.330   4.868  18.059  0.00  0.00    +0.000 C 
ATOM     29  O   UNL     1       7.203   4.082  17.704  0.00  0.00    +0.000 OA
BRANCH  28  30
ATOM     30  O   UNL     1       6.269   5.494  19.264  0.00  0.00    +0.000 OA
ATOM     31  C   UNL     1       7.537   5.852  19.815  0.00  0.00    +0.000 C 
ENDBRANCH  28  30
ENDBRANCH  10  28
BRANCH  10  32
ATOM     32  C   UNL     1       5.649   5.617  15.697  0.00  0.00    +0.000 C 
BRANCH  32  33
ATOM     33  C   UNL     1       6.124   4.412  14.831  0.00  0.00    +0.000 C 
ATOM     34  C   UNL     1       5.128   3.971  13.758  0.00  0.00    +0.000 C 
ATOM     35  C   UNL     1       7.448   4.768  14.145  0.00  0.00    +0.000 C 
ENDBRANCH  32  33
ENDBRANCH  10  32
TORSDOF 8
ENDMDL
MODEL 2
REMARK VINA RESULT:      -7.8      0.758      1.260
REMARK  Name = 
REMARK  13 active torsions:
REMARK  status: ('A' for Active; 'I' for Inactive)
REMARK    1  A    between atoms: C_1  and  C_2
REMARK    2  A    between atoms: C_2  and  N_3
REMARK    3  A    between atoms: C_10  and  C_11
REMARK    4  A    between atoms: C_14  and  C_15
REMARK    5  A    between atoms: C_21  and  O_22
REMARK    6  A    between atoms: O_22  and  C_23
REMARK    7  A    between atoms: C_26  and  C_27
REMARK    8  A    between atoms: C_26  and  C_31
REMARK    9  A    between atoms: C_27  and  C_28
REMARK   10  A    between atoms: C_28  and  C_29
REMARK   11  A    between atoms: C_28  and  C_30
REMARK   12  A    between atoms: C_31  and  O_33
REMARK   13  A    between atoms: O_33  and  C_34
REMARK                            x       y       z     vdW  Elec       q    Type
REMARK                         _______ _______ _______ _____ _____    ______ ____
ROOT
ATOM      1  N   UNL     1       2.857   4.077  19.894  0.00  0.00    +0.000 N 
ATOM      2  C   UNL     1       3.816   3.672  19.019  0.00  0.00    +0.000 C 
ATOM      3  O   UNL     1       4.597   2.743  19.181  0.00  0.00    +0.000 OA
ATOM      4  C   UNL     1       3.754   4.529  17.775  0.00  0.00    +0.000 C 
ATOM      5  C   UNL     1       2.452   5.314  17.958  0.00  0.00    +0.000 C 
ATOM      6  C   UNL     1       1.911   4.841  19.278  0.00  0.00    +0.000 C 
ATOM      7  O   UNL     1       0.788   5.060  19.696  0.00  0.00    +0.000 OA
ATOM      8  C   UNL     1       2.853   6.782  17.903  0.00  0.00    +0.000 C 
ATOM      9  N   UNL     1       4.308   6.856  18.083  0.00  0.00    +0.000 NA
ATOM     10  C   UNL     1       4.896   5.562  17.645  0.00  0.00    +0.000 C 
ATOM     11  H   UNL     1       4.563   7.000  19.062  0.00  0.00    +0.000 HD
ENDROOT
BRANCH   8  12
ATOM     12  C   UNL     1       2.094   7.744  18.787  0.00  0.00    +0.000 A 
ATOM     13  C   UNL     1       2.201   7.723  20.179  0.00  0.00    +0.000 A 
ATOM     14  C   UNL     1       1.508   8.646  20.959  0.00  0.00    +0.000 A 
ATOM     15  C   UNL     1       0.678   9.637  20.394  0.00  0.00    +0.000 A 
ATOM     16  C   UNL     1       0.544   9.636  18.983  0.00  0.00    +0.000 A 
ATOM     17  C   UNL     1       1.234   8.691  18.205  0.00  0.00    +0.000 A 
BRANCH  15  18
ATOM     18  C   UNL     1       0.000  10.606  21.302  0.00  0.00    +0.000 A 
ATOM     19  C   UNL     1       0.193  11.996  21.155  0.00  0.00    +0.000 A 
ATOM     20  C   UNL     1      -0.399  12.920  22.022  0.00  0.00    +0.000 A 
ATOM     21  C   UNL     1      -1.232  12.478  23.043  0.00  0.00    +0.000 A 
ATOM     22  C   UNL     1      -1.455  11.115  23.206  0.00  0.00    +0.000 A 
ATOM     23  C   UNL     1      -0.831  10.194  22.358  0.00  0.00    +0.000 A 
ENDBRANCH  15  18
BRANCH  16  24
ATOM     24  O   UNL     1      -0.246  10.616  18.431  0.00  0.00    +0.000 OA
ATOM     25  C   UNL     1      -1.336  10.230  17.606  0.00  0.00    +0.000 C 
ENDBRANCH  16  24
ENDBRANCH   8  12
BRANCH   1  27
ATOM     26  C   UNL     1       1.597   2.484  21.339  0.00  0.00    +0.000 C 
ATOM     27  C   UNL     1       2.703   3.519  21.226  0.00  0.00    +0.000 C 
ENDBRANCH   1  27
BRANCH  10  28
ATOM     28  C   UNL     1       6.068   5.202  18.588  0.00  0.00    +0.000 C 
ATOM     29  O   UNL     1       6.174   5.645  19.728  0.00  0.00    +0.000 OA
BRANCH  28  30
ATOM     30  O   UNL     1       6.917   4.316  18.000  0.00  0.00    +0.000 OA
ATOM     31  C   UNL     1       8.301   4.563  18.246  0.00  0.00    +0.000 C 
ENDBRANCH  28  30
ENDBRANCH  10  28
BRANCH  10  32
ATOM     32  C   UNL     1       5.371   5.756  16.178  0.00  0.00    +0.000 C 
BRANCH  32  33
ATOM     33  C   UNL     1       5.827   4.486  15.400  0.00  0.00    +0.000 C 
ATOM     34  C   UNL     1       4.865   4.036  14.300  0.00  0.00    +0.000 C 
ATOM     35  C   UNL     1       7.200   4.740  14.767  0.00  0.00    +0.000 C 
ENDBRANCH  32  33
ENDBRANCH  10  32
TORSDOF 8
ENDMDL
MODEL 3
REMARK VINA RESULT:      -7.5      2.019      3.054
REMARK  Name = 
REMARK  13 active torsions:
REMARK  status: ('A' for Active; 'I' for Inactive)
REMARK    1  A    between atoms: C_1  and  C_2
REMARK    2  A    between atoms: C_2  and  N_3
REMARK    3  A    between atoms: C_10  and  C_11
REMARK    4  A    between atoms: C_14  and  C_15
REMARK    5  A    between atoms: C_21  and  O_22
REMARK    6  A    between atoms: O_22  and  C_23
REMARK    7  A    between atoms: C_26  and  C_27
REMARK    8  A    between atoms: C_26  and  C_31
REMARK    9  A    between atoms: C_27  and  C_28
REMARK   10  A    between atoms: C_28  and  C_29
REMARK   11  A    between atoms: C_28  and  C_30
REMARK   12  A    between atoms: C_31  and  O_33
REMARK   13  A    between atoms: O_33  and  C_34
REMARK                            x       y       z     vdW  Elec       q    Type
REMARK                         _______ _______ _______ _____ _____    ______ ____
ROOT
ATOM      1  N   UNL     1       1.633   3.389  18.163  0.00  0.00    +0.000 N 
ATOM      2  C   UNL     1       2.774   2.654  18.252  0.00  0.00    +0.000 C 
ATOM      3  O   UNL     1       2.849   1.469  18.549  0.00  0.00    +0.000 OA
ATOM      4  C   UNL     1       3.959   3.520  17.891  0.00  0.00    +0.000 C 
ATOM      5  C   UNL     1       3.305   4.787  17.331  0.00  0.00    +0.000 C 
ATOM      6  C   UNL     1       1.830   4.526  17.437  0.00  0.00    +0.000 C 
ATOM      7  O   UNL     1       0.958   5.193  16.908  0.00  0.00    +0.000 OA
ATOM      8  C   UNL     1       3.832   5.928  18.191  0.00  0.00    +0.000 C 
ATOM      9  N   UNL     1       4.418   5.343  19.402  0.00  0.00    +0.000 NA
ATOM     10  C   UNL     1       4.835   3.949  19.090  0.00  0.00    +0.000 C 
ATOM     11  H   UNL     1       3.745   5.304  20.170  0.00  0.00    +0.000 HD
ENDROOT
BRANCH   8  12
ATOM     12  C   UNL     1       2.890   7.074  18.479  0.00  0.00    +0.000 A 
ATOM     13  C   UNL     1       2.597   8.057  17.531  0.00  0.00    +0.000 A 
ATOM     14  C   UNL     1       1.700   9.083  17.824  0.00  0.00    +0.000 A 
ATOM     15  C   UNL     1       1.048   9.178  19.071  0.00  0.00    +0.000 A 
ATOM     16  C   UNL     1       1.370   8.199  20.043  0.00  0.00    +0.000 A 
ATOM     17  C   UNL     1       2.289   7.178  19.744  0.00  0.00    +0.000 A 
BRANCH  15  18
ATOM     18  C   UNL     1       0.076  10.289  19.286  0.00  0.00    +0.000 A 
ATOM     19  C   UNL     1      -1.231  10.224  18.759  0.00  0.00    +0.000 A 
ATOM     20  C   UNL     1      -2.143  11.273  18.914  0.00  0.00    +0.000 A 
ATOM     21  C   UNL     1      -1.782  12.406  19.634  0.00  0.00    +0.000 A 
ATOM     22  C   UNL     1      -0.506  12.495  20.180  0.00  0.00    +0.000 A 
ATOM     23  C   UNL     1       0.414  11.458  19.990  0.00  0.00    +0.000 A 
ENDBRANCH  15  18
BRANCH  16  24
ATOM     24  O   UNL     1       0.716   8.278  21.249  0.00  0.00    +0.000 OA
ATOM     25  C   UNL     1       1.348   8.959  22.324  0.00  0.00    +0.000 C 
ENDBRANCH  16  24
ENDBRANCH   8  12
BRANCH   1  27
ATOM     26  C   UNL     1      -0.005   3.025  20.005  0.00  0.00    +0.000 C 
ATOM     27  C   UNL     1       0.324   2.880  18.530  0.00  0.00    +0.000 C 
ENDBRANCH   1  27
BRANCH  10  28
ATOM     28  C   UNL     1       4.553   3.056  20.320  0.00  0.00    +0.000 C 
ATOM     29  O   UNL     1       5.203   2.049  20.582  0.00  0.00    +0.000 OA
BRANCH  28  30
ATOM     30  O   UNL     1       3.536   3.560  21.070  0.00  0.00    +0.000 OA
ATOM     31  C   UNL     1       2.742   2.578  21.736  0.00  0.00    +0.000 C 
ENDBRANCH  28  30
ENDBRANCH  10  28
BRANCH  10  32
ATOM     32  C   UNL     1       6.349   3.999  18.744  0.00  0.00    +0.000 C 
BRANCH  32  33
ATOM     33  C   UNL     1       6.861   5.241  17.954  0.00  0.00    +0.000 C 
ATOM     34  C   UNL     1       7.893   6.086  18.701  0.00  0.00    +0.000 C 
ATOM     35  C   UNL     1       7.479   4.783  16.628  0.00  0.00    +0.000 C 
ENDBRANCH  32  33
ENDBRANCH  10  32
TORSDOF 8
ENDMDL
MODEL 4
REMARK VINA RESULT:      -7.4      1.012      1.390
REMARK  Name = 
REMARK  13 active torsions:
REMARK  status: ('A' for Active; 'I' for Inactive)
REMARK    1  A    between atoms: C_1  and  C_2
REMARK    2  A    between atoms: C_2  and  N_3
REMARK    3  A    between atoms: C_10  and  C_11
REMARK    4  A    between atoms: C_14  and  C_15
REMARK    5  A    between atoms: C_21  and  O_22
REMARK    6  A    between atoms: O_22  and  C_23
REMARK    7  A    between atoms: C_26  and  C_27
REMARK    8  A    between atoms: C_26  and  C_31
REMARK    9  A    between atoms: C_27  and  C_28
REMARK   10  A    between atoms: C_28  and  C_29
REMARK   11  A    between atoms: C_28  and  C_30
REMARK   12  A    between atoms: C_31  and  O_33
REMARK   13  A    between atoms: O_33  and  C_34
REMARK                            x       y       z     vdW  Elec       q    Type
REMARK                         _______ _______ _______ _____ _____    ______ ____
ROOT
ATOM      1  N   UNL     1       2.594   3.845  20.360  0.00  0.00    +0.000 N 
ATOM      2  C   UNL     1       3.450   3.262  19.479  0.00  0.00    +0.000 C 
ATOM      3  O   UNL     1       4.184   2.309  19.708  0.00  0.00    +0.000 OA
ATOM      4  C   UNL     1       3.339   3.951  18.139  0.00  0.00    +0.000 C 
ATOM      5  C   UNL     1       2.106   4.845  18.309  0.00  0.00    +0.000 C 
ATOM      6  C   UNL     1       1.648   4.588  19.717  0.00  0.00    +0.000 C 
ATOM      7  O   UNL     1       0.579   4.940  20.184  0.00  0.00    +0.000 OA
ATOM      8  C   UNL     1       2.591   6.261  18.026  0.00  0.00    +0.000 C 
ATOM      9  N   UNL     1       4.057   6.253  18.086  0.00  0.00    +0.000 NA
ATOM     10  C   UNL     1       4.527   4.874  17.786  0.00  0.00    +0.000 C 
ATOM     11  H   UNL     1       4.401   6.505  19.016  0.00  0.00    +0.000 HD
ENDROOT
BRANCH   8  12
ATOM     12  C   UNL     1       1.967   7.382  18.825  0.00  0.00    +0.000 A 
ATOM     13  C   UNL     1       2.066   7.452  20.216  0.00  0.00    +0.000 A 
ATOM     14  C   UNL     1       1.503   8.518  20.915  0.00  0.00    +0.000 A 
ATOM     15  C   UNL     1       0.819   9.567  20.266  0.00  0.00    +0.000 A 
ATOM     16  C   UNL     1       0.691   9.478  18.857  0.00  0.00    +0.000 A 
ATOM     17  C   UNL     1       1.248   8.390  18.162  0.00  0.00    +0.000 A 
BRANCH  15  18
ATOM     18  C   UNL     1       0.277  10.686  21.090  0.00  0.00    +0.000 A 
ATOM     19  C   UNL     1      -0.626  10.439  22.146  0.00  0.00    +0.000 A 
ATOM     20  C   UNL     1      -1.178  11.478  22.903  0.00  0.00    +0.000 A 
ATOM     21  C   UNL     1      -0.813  12.794  22.645  0.00  0.00    +0.000 A 
ATOM     22  C   UNL     1       0.088  13.070  21.622  0.00  0.00    +0.000 A 
ATOM     23  C   UNL     1       0.608  12.029  20.845  0.00  0.00    +0.000 A 
ENDBRANCH  15  18
BRANCH  16  24
ATOM     24  O   UNL     1       0.046  10.512  18.222  0.00  0.00    +0.000 OA
ATOM     25  C   UNL     1      -1.278  10.303  17.752  0.00  0.00    +0.000 C 
ENDBRANCH  16  24
ENDBRANCH   8  12
BRANCH   1  27
ATOM     26  C   UNL     1       1.450   2.442  22.073  0.00  0.00    +0.000 C 
ATOM     27  C   UNL     1       2.516   3.478  21.763  0.00  0.00    +0.000 C 
ENDBRANCH   1  27
BRANCH  10  28
ATOM     28  C   UNL     1       5.749   4.557  18.680  0.00  0.00    +0.000 C 
ATOM     29  O   UNL     1       5.811   4.865  19.866  0.00  0.00    +0.000 OA
BRANCH  28  30
ATOM     30  O   UNL     1       6.697   3.870  17.989  0.00  0.00    +0.000 OA
ATOM     31  C   UNL     1       8.006   4.439  18.045  0.00  0.00    +0.000 C 
ENDBRANCH  28  30
ENDBRANCH  10  28
BRANCH  10  32
ATOM     32  C   UNL     1       4.890   4.841  16.276  0.00  0.00    +0.000 C 
BRANCH  32  33
ATOM     33  C   UNL     1       5.819   5.971  15.739  0.00  0.00    +0.000 C 
ATOM     34  C   UNL     1       6.890   5.497  14.755  0.00  0.00    +0.000 C 
ATOM     35  C   UNL     1       4.971   7.046  15.050  0.00  0.00    +0.000 C 
ENDBRANCH  32  33
ENDBRANCH  10  32
TORSDOF 8
ENDMDL
MODEL 5
REMARK VINA RESULT:      -7.2      0.545      1.016
REMARK  Name = 
REMARK  13 active torsions:
REMARK  status: ('A' for Active; 'I' for Inactive)
REMARK    1  A    between atoms: C_1  and  C_2
REMARK    2  A    between atoms: C_2  and  N_3
REMARK    3  A    between atoms: C_10  and  C_11
REMARK    4  A    between atoms: C_14  and  C_15
REMARK    5  A    between atoms: C_21  and  O_22
REMARK    6  A    between atoms: O_22  and  C_23
REMARK    7  A    between atoms: C_26  and  C_27
REMARK    8  A    between atoms: C_26  and  C_31
REMARK    9  A    between atoms: C_27  and  C_28
REMARK   10  A    between atoms: C_28  and  C_29
REMARK   11  A    between atoms: C_28  and  C_30
REMARK   12  A    between atoms: C_31  and  O_33
REMARK   13  A    between atoms: O_33  and  C_34
REMARK                            x       y       z     vdW  Elec       q    Type
REMARK                         _______ _______ _______ _____ _____    ______ ____
ROOT
ATOM      1  N   UNL     1       3.210   3.556  19.144  0.00  0.00    +0.000 N 
ATOM      2  C   UNL     1       4.214   3.253  18.278  0.00  0.00    +0.000 C 
ATOM      3  O   UNL     1       4.988   2.308  18.371  0.00  0.00    +0.000 OA
ATOM      4  C   UNL     1       4.217   4.250  17.143  0.00  0.00    +0.000 C 
ATOM      5  C   UNL     1       2.905   5.014  17.347  0.00  0.00    +0.000 C 
ATOM      6  C   UNL     1       2.296   4.392  18.572  0.00  0.00    +0.000 C 
ATOM      7  O   UNL     1       1.152   4.565  18.954  0.00  0.00    +0.000 OA
ATOM      8  C   UNL     1       3.306   6.476  17.486  0.00  0.00    +0.000 C 
ATOM      9  N   UNL     1       4.749   6.522  17.750  0.00  0.00    +0.000 NA
ATOM     10  C   UNL     1       5.362   5.286  17.195  0.00  0.00    +0.000 C 
ATOM     11  H   UNL     1       4.952   6.550  18.751  0.00  0.00    +0.000 HD
ENDROOT
BRANCH   8  12
ATOM     12  C   UNL     1       2.499   7.332  18.435  0.00  0.00    +0.000 A 
ATOM     13  C   UNL     1       2.240   6.945  19.752  0.00  0.00    +0.000 A 
ATOM     14  C   UNL     1       1.517   7.775  20.607  0.00  0.00    +0.000 A 
ATOM     15  C   UNL     1       1.021   9.030  20.196  0.00  0.00    +0.000 A 
ATOM     16  C   UNL     1       1.256   9.406  18.850  0.00  0.00    +0.000 A 
ATOM     17  C   UNL     1       1.972   8.555  17.990  0.00  0.00    +0.000 A 
BRANCH  15  18
ATOM     18  C   UNL     1       0.287   9.868  21.187  0.00  0.00    +0.000 A 
ATOM     19  C   UNL     1      -0.052  11.207  20.896  0.00  0.00    +0.000 A 
ATOM     20  C   UNL     1      -0.703  12.023  21.827  0.00  0.00    +0.000 A 
ATOM     21  C   UNL     1      -1.064  11.509  23.067  0.00  0.00    +0.000 A 
ATOM     22  C   UNL     1      -0.759  10.188  23.379  0.00  0.00    +0.000 A 
ATOM     23  C   UNL     1      -0.076   9.388  22.457  0.00  0.00    +0.000 A 
ENDBRANCH  15  18
BRANCH  16  24
ATOM     24  O   UNL     1       0.793  10.639  18.456  0.00  0.00    +0.000 OA
ATOM     25  C   UNL     1       1.737  11.653  18.143  0.00  0.00    +0.000 C 
ENDBRANCH  16  24
ENDBRANCH   8  12
BRANCH   1  27
ATOM     26  C   UNL     1       2.488   3.727  21.523  0.00  0.00    +0.000 C 
ATOM     27  C   UNL     1       2.987   2.847  20.391  0.00  0.00    +0.000 C 
ENDBRANCH   1  27
BRANCH  10  28
ATOM     28  C   UNL     1       6.484   4.813  18.149  0.00  0.00    +0.000 C 
ATOM     29  O   UNL     1       7.395   4.069  17.798  0.00  0.00    +0.000 OA
BRANCH  28  30
ATOM     30  O   UNL     1       6.340   5.360  19.386  0.00  0.00    +0.000 OA
ATOM     31  C   UNL     1       7.559   5.782  19.997  0.00  0.00    +0.000 C 
ENDBRANCH  28  30
ENDBRANCH  10  28
BRANCH  10  32
ATOM     32  C   UNL     1       5.913   5.649  15.788  0.00  0.00    +0.000 C 
BRANCH  32  33
ATOM     33  C   UNL     1       6.275   4.470  14.836  0.00  0.00    +0.000 C 
ATOM     34  C   UNL     1       5.171   4.092  13.846  0.00  0.00    +0.000 C 
ATOM     35  C   UNL     1       7.536   4.823  14.041  0.00  0.00    +0.000 C 
ENDBRANCH  32  33
ENDBRANCH  10  32
TORSDOF 8
ENDMDL
MODEL 6
REMARK VINA RESULT:      -7.2      1.739      2.567
REMARK  Name = 
REMARK  13 active torsions:
REMARK  status: ('A' for Active; 'I' for Inactive)
REMARK    1  A    between atoms: C_1  and  C_2
REMARK    2  A    between atoms: C_2  and  N_3
REMARK    3  A    between atoms: C_10  and  C_11
REMARK    4  A    between atoms: C_14  and  C_15
REMARK    5  A    between atoms: C_21  and  O_22
REMARK    6  A    between atoms: O_22  and  C_23
REMARK    7  A    between atoms: C_26  and  C_27
REMARK    8  A    between atoms: C_26  and  C_31
REMARK    9  A    between atoms: C_27  and  C_28
REMARK   10  A    between atoms: C_28  and  C_29
REMARK   11  A    between atoms: C_28  and  C_30
REMARK   12  A    between atoms: C_31  and  O_33
REMARK   13  A    between atoms: O_33  and  C_34
REMARK                            x       y       z     vdW  Elec       q    Type
REMARK                         _______ _______ _______ _____ _____    ______ ____
ROOT
ATOM      1  N   UNL     1       1.692   3.546  18.130  0.00  0.00    +0.000 N 
ATOM      2  C   UNL     1       2.876   2.882  18.054  0.00  0.00    +0.000 C 
ATOM      3  O   UNL     1       3.030   1.669  18.111  0.00  0.00    +0.000 OA
ATOM      4  C   UNL     1       3.997   3.876  17.851  0.00  0.00    +0.000 C 
ATOM      5  C   UNL     1       3.253   5.183  17.561  0.00  0.00    +0.000 C 
ATOM      6  C   UNL     1       1.799   4.813  17.638  0.00  0.00    +0.000 C 
ATOM      7  O   UNL     1       0.874   5.514  17.265  0.00  0.00    +0.000 OA
ATOM      8  C   UNL     1       3.736   6.166  18.619  0.00  0.00    +0.000 C 
ATOM      9  N   UNL     1       4.391   5.394  19.682  0.00  0.00    +0.000 NA
ATOM     10  C   UNL     1       4.880   4.118  19.096  0.00  0.00    +0.000 C 
ATOM     11  H   UNL     1       3.743   5.163  20.439  0.00  0.00    +0.000 HD
ENDROOT
BRANCH   8  12
ATOM     12  C   UNL     1       2.736   7.171  19.142  0.00  0.00    +0.000 A 
ATOM     13  C   UNL     1       2.084   7.009  20.367  0.00  0.00    +0.000 A 
ATOM     14  C   UNL     1       1.190   7.972  20.829  0.00  0.00    +0.000 A 
ATOM     15  C   UNL     1       0.905   9.145  20.100  0.00  0.00    +0.000 A 
ATOM     16  C   UNL     1       1.542   9.294  18.843  0.00  0.00    +0.000 A 
ATOM     17  C   UNL     1       2.429   8.308  18.377  0.00  0.00    +0.000 A 
BRANCH  15  18
ATOM     18  C   UNL     1      -0.039  10.141  20.687  0.00  0.00    +0.000 A 
ATOM     19  C   UNL     1      -0.904  10.893  19.865  0.00  0.00    +0.000 A 
ATOM     20  C   UNL     1      -1.766  11.861  20.390  0.00  0.00    +0.000 A 
ATOM     21  C   UNL     1      -1.811  12.078  21.763  0.00  0.00    +0.000 A 
ATOM     22  C   UNL     1      -0.982  11.342  22.602  0.00  0.00    +0.000 A 
ATOM     23  C   UNL     1      -0.096  10.401  22.066  0.00  0.00    +0.000 A 
ENDBRANCH  15  18
BRANCH  16  24
ATOM     24  O   UNL     1       1.282  10.448  18.144  0.00  0.00    +0.000 OA
ATOM     25  C   UNL     1       2.298  11.438  18.059  0.00  0.00    +0.000 C 
ENDBRANCH  16  24
ENDBRANCH   8  12
BRANCH   1  27
ATOM     26  C   UNL     1       0.121   2.745  19.892  0.00  0.00    +0.000 C 
ATOM     27  C   UNL     1       0.426   2.893  18.411  0.00  0.00    +0.000 C 
ENDBRANCH   1  27
BRANCH  10  28
ATOM     28  C   UNL     1       4.686   2.986  20.131  0.00  0.00    +0.000 C 
ATOM     29  O   UNL     1       5.403   1.990  20.180  0.00  0.00    +0.000 OA
BRANCH  28  30
ATOM     30  O   UNL     1       3.663   3.267  20.981  0.00  0.00    +0.000 OA
ATOM     31  C   UNL     1       3.063   2.124  21.592  0.00  0.00    +0.000 C 
ENDBRANCH  28  30
ENDBRANCH  10  28
BRANCH  10  32
ATOM     32  C   UNL     1       6.378   4.330  18.741  0.00  0.00    +0.000 C 
BRANCH  32  33
ATOM     33  C   UNL     1       6.710   5.390  17.649  0.00  0.00    +0.000 C 
ATOM     34  C   UNL     1       7.641   6.511  18.115  0.00  0.00    +0.000 C 
ATOM     35  C   UNL     1       7.355   4.697  16.444  0.00  0.00    +0.000 C 
ENDBRANCH  32  33
ENDBRANCH  10  32
TORSDOF 8
ENDMDL
MODEL 7
REMARK VINA RESULT:      -7.2      4.032     10.342
REMARK  Name = 
REMARK  13 active torsions:
REMARK  status: ('A' for Active; 'I' for Inactive)
REMARK    1  A    between atoms: C_1  and  C_2
REMARK    2  A    between atoms: C_2  and  N_3
REMARK    3  A    between atoms: C_10  and  C_11
REMARK    4  A    between atoms: C_14  and  C_15
REMARK    5  A    between atoms: C_21  and  O_22
REMARK    6  A    between atoms: O_22  and  C_23
REMARK    7  A    between atoms: C_26  and  C_27
REMARK    8  A    between atoms: C_26  and  C_31
REMARK    9  A    between atoms: C_27  and  C_28
REMARK   10  A    between atoms: C_28  and  C_29
REMARK   11  A    between atoms: C_28  and  C_30
REMARK   12  A    between atoms: C_31  and  O_33
REMARK   13  A    between atoms: O_33  and  C_34
REMARK                            x       y       z     vdW  Elec       q    Type
REMARK                         _______ _______ _______ _____ _____    ______ ____
ROOT
ATOM      1  N   UNL     1       0.794  14.487  20.903  0.00  0.00    +0.000 N 
ATOM      2  C   UNL     1      -0.348  15.133  21.262  0.00  0.00    +0.000 C 
ATOM      3  O   UNL     1      -0.435  16.056  22.061  0.00  0.00    +0.000 OA
ATOM      4  C   UNL     1      -1.514  14.558  20.492  0.00  0.00    +0.000 C 
ATOM      5  C   UNL     1      -0.835  13.666  19.448  0.00  0.00    +0.000 C 
ATOM      6  C   UNL     1       0.634  13.809  19.730  0.00  0.00    +0.000 C 
ATOM      7  O   UNL     1       1.531  13.431  18.998  0.00  0.00    +0.000 OA
ATOM      8  C   UNL     1      -1.412  12.274  19.669  0.00  0.00    +0.000 C 
ATOM      9  N   UNL     1      -2.062  12.262  20.985  0.00  0.00    +0.000 NA
ATOM     10  C   UNL     1      -2.456  13.656  21.321  0.00  0.00    +0.000 C 
ATOM     11  H   UNL     1      -1.431  11.930  21.718  0.00  0.00    +0.000 HD
ENDROOT
BRANCH   8  12
ATOM     12  C   UNL     1      -0.490  11.096  19.449  0.00  0.00    +0.000 A 
ATOM     13  C   UNL     1      -0.152  10.641  18.173  0.00  0.00    +0.000 A 
ATOM     14  C   UNL     1       0.725   9.570  18.010  0.00  0.00    +0.000 A 
ATOM     15  C   UNL     1       1.309   8.903  19.106  0.00  0.00    +0.000 A 
ATOM     16  C   UNL     1       0.939   9.344  20.401  0.00  0.00    +0.000 A 
ATOM     17  C   UNL     1       0.041  10.414  20.556  0.00  0.00    +0.000 A 
BRANCH  15  18
ATOM     18  C   UNL     1       2.264   7.788  18.838  0.00  0.00    +0.000 A 
ATOM     19  C   UNL     1       2.331   6.669  19.695  0.00  0.00    +0.000 A 
ATOM     20  C   UNL     1       3.248   5.633  19.486  0.00  0.00    +0.000 A 
ATOM     21  C   UNL     1       4.101   5.673  18.390  0.00  0.00    +0.000 A 
ATOM     22  C   UNL     1       4.049   6.755  17.517  0.00  0.00    +0.000 A 
ATOM     23  C   UNL     1       3.155   7.804  17.753  0.00  0.00    +0.000 A 
ENDBRANCH  15  18
BRANCH  16  24
ATOM     24  O   UNL     1       1.527   8.709  21.469  0.00  0.00    +0.000 OA
ATOM     25  C   UNL     1       1.258   9.186  22.779  0.00  0.00    +0.000 C 
ENDBRANCH  16  24
ENDBRANCH   8  12
BRANCH   1  27
ATOM     26  C   UNL     1       2.821  15.935  20.951  0.00  0.00    +0.000 C 
ATOM     27  C   UNL     1       2.083  14.737  21.522  0.00  0.00    +0.000 C 
ENDBRANCH   1  27
BRANCH  10  28
ATOM     28  C   UNL     1      -2.238  13.886  22.835  0.00  0.00    +0.000 C 
ATOM     29  O   UNL     1      -1.395  13.281  23.492  0.00  0.00    +0.000 OA
BRANCH  28  30
ATOM     30  O   UNL     1      -3.064  14.857  23.308  0.00  0.00    +0.000 OA
ATOM     31  C   UNL     1      -3.111  14.959  24.732  0.00  0.00    +0.000 C 
ENDBRANCH  28  30
ENDBRANCH  10  28
BRANCH  10  32
ATOM     32  C   UNL     1      -3.949  13.811  20.920  0.00  0.00    +0.000 C 
BRANCH  32  33
ATOM     33  C   UNL     1      -4.906  12.629  21.260  0.00  0.00    +0.000 C 
ATOM     34  C   UNL     1      -5.933  12.939  22.350  0.00  0.00    +0.000 C 
ATOM     35  C   UNL     1      -5.658  12.200  19.995  0.00  0.00    +0.000 C 
ENDBRANCH  32  33
ENDBRANCH  10  32
TORSDOF 8
ENDMDL
MODEL 8
REMARK VINA RESULT:      -7.0      5.341     11.723
REMARK  Name = 
REMARK  13 active torsions:
REMARK  status: ('A' for Active; 'I' for Inactive)
REMARK    1  A    between atoms: C_1  and  C_2
REMARK    2  A    between atoms: C_2  and  N_3
REMARK    3  A    between atoms: C_10  and  C_11
REMARK    4  A    between atoms: C_14  and  C_15
REMARK    5  A    between atoms: C_21  and  O_22
REMARK    6  A    between atoms: O_22  and  C_23
REMARK    7  A    between atoms: C_26  and  C_27
REMARK    8  A    between atoms: C_26  and  C_31
REMARK    9  A    between atoms: C_27  and  C_28
REMARK   10  A    between atoms: C_28  and  C_29
REMARK   11  A    between atoms: C_28  and  C_30
REMARK   12  A    between atoms: C_31  and  O_33
REMARK   13  A    between atoms: O_33  and  C_34
REMARK                            x       y       z     vdW  Elec       q    Type
REMARK                         _______ _______ _______ _____ _____    ______ ____
ROOT
ATOM      1  N   UNL     1      -1.241  16.229  21.549  0.00  0.00    +0.000 N 
ATOM      2  C   UNL     1      -2.341  16.692  22.202  0.00  0.00    +0.000 C 
ATOM      3  O   UNL     1      -2.381  17.654  22.958  0.00  0.00    +0.000 OA
ATOM      4  C   UNL     1      -3.539  15.851  21.826  0.00  0.00    +0.000 C 
ATOM      5  C   UNL     1      -3.017  15.003  20.662  0.00  0.00    +0.000 C 
ATOM      6  C   UNL     1      -1.586  15.430  20.499  0.00  0.00    +0.000 C 
ATOM      7  O   UNL     1      -0.872  15.152  19.551  0.00  0.00    +0.000 OA
ATOM      8  C   UNL     1      -3.224  13.557  21.091  0.00  0.00    +0.000 C 
ATOM      9  N   UNL     1      -3.465  13.549  22.539  0.00  0.00    +0.000 NA
ATOM     10  C   UNL     1      -4.015  14.876  22.925  0.00  0.00    +0.000 C 
ATOM     11  H   UNL     1      -2.602  13.402  23.067  0.00  0.00    +0.000 HD
ENDROOT
BRANCH   8  12
ATOM     12  C   UNL     1      -2.188  12.547  20.654  0.00  0.00    +0.000 A 
ATOM     13  C   UNL     1      -1.087  12.216  21.446  0.00  0.00    +0.000 A 
ATOM     14  C   UNL     1      -0.168  11.258  21.022  0.00  0.00    +0.000 A 
ATOM     15  C   UNL     1      -0.303  10.579  19.793  0.00  0.00    +0.000 A 
ATOM     16  C   UNL     1      -1.403  10.938  18.975  0.00  0.00    +0.000 A 
ATOM     17  C   UNL     1      -2.315  11.918  19.404  0.00  0.00    +0.000 A 
BRANCH  15  18
ATOM     18  C   UNL     1       0.709   9.543  19.434  0.00  0.00    +0.000 A 
ATOM     19  C   UNL     1       1.288   9.508  18.148  0.00  0.00    +0.000 A 
ATOM     20  C   UNL     1       2.205   8.520  17.777  0.00  0.00    +0.000 A 
ATOM     21  C   UNL     1       2.597   7.556  18.699  0.00  0.00    +0.000 A 
ATOM     22  C   UNL     1       2.057   7.572  19.981  0.00  0.00    +0.000 A 
ATOM     23  C   UNL     1       1.112   8.541  20.333  0.00  0.00    +0.000 A 
ENDBRANCH  15  18
BRANCH  16  24
ATOM     24  O   UNL     1      -1.547  10.260  17.789  0.00  0.00    +0.000 OA
ATOM     25  C   UNL     1      -2.853   9.895  17.367  0.00  0.00    +0.000 C 
ENDBRANCH  16  24
ENDBRANCH   8  12
BRANCH   1  27
ATOM     26  C   UNL     1       0.396  18.010  20.949  0.00  0.00    +0.000 C 
ATOM     27  C   UNL     1       0.094  16.760  21.756  0.00  0.00    +0.000 C 
ENDBRANCH   1  27
BRANCH  10  28
ATOM     28  C   UNL     1      -3.434  15.277  24.301  0.00  0.00    +0.000 C 
ATOM     29  O   UNL     1      -4.020  16.012  25.089  0.00  0.00    +0.000 OA
BRANCH  28  30
ATOM     30  O   UNL     1      -2.232  14.678  24.519  0.00  0.00    +0.000 OA
ATOM     31  C   UNL     1      -1.399  15.342  25.469  0.00  0.00    +0.000 C 
ENDBRANCH  28  30
ENDBRANCH  10  28
BRANCH  10  32
ATOM     32  C   UNL     1      -5.561  14.726  22.971  0.00  0.00    +0.000 C 
BRANCH  32  33
ATOM     33  C   UNL     1      -6.136  13.280  23.066  0.00  0.00    +0.000 C 
ATOM     34  C   UNL     1      -7.113  13.062  24.223  0.00  0.00    +0.000 C 
ATOM     35  C   UNL     1      -6.851  12.927  21.757  0.00  0.00    +0.000 C 
ENDBRANCH  32  33
ENDBRANCH  10  32
TORSDOF 8
ENDMDL
MODEL 9
REMARK VINA RESULT:      -7.0      4.578     10.993
REMARK  Name = 
REMARK  13 active torsions:
REMARK  status: ('A' for Active; 'I' for Inactive)
REMARK    1  A    between atoms: C_1  and  C_2
REMARK    2  A    between atoms: C_2  and  N_3
REMARK    3  A    between atoms: C_10  and  C_11
REMARK    4  A    between atoms: C_14  and  C_15
REMARK    5  A    between atoms: C_21  and  O_22
REMARK    6  A    between atoms: O_22  and  C_23
REMARK    7  A    between atoms: C_26  and  C_27
REMARK    8  A    between atoms: C_26  and  C_31
REMARK    9  A    between atoms: C_27  and  C_28
REMARK   10  A    between atoms: C_28  and  C_29
REMARK   11  A    between atoms: C_28  and  C_30
REMARK   12  A    between atoms: C_31  and  O_33
REMARK   13  A    between atoms: O_33  and  C_34
REMARK                            x       y       z     vdW  Elec       q    Type
REMARK                         _______ _______ _______ _____ _____    ______ ____
ROOT
ATOM      1  N   UNL     1       0.121  15.464  20.956  0.00  0.00    +0.000 N 
ATOM      2  C   UNL     1      -0.913  16.071  21.598  0.00  0.00    +0.000 C 
ATOM      3  O   UNL     1      -0.845  17.081  22.286  0.00  0.00    +0.000 OA
ATOM      4  C   UNL     1      -2.193  15.322  21.308  0.00  0.00    +0.000 C 
ATOM      5  C   UNL     1      -1.783  14.351  20.195  0.00  0.00    +0.000 C 
ATOM      6  C   UNL     1      -0.324  14.631  19.972  0.00  0.00    +0.000 C 
ATOM      7  O   UNL     1       0.335  14.225  19.031  0.00  0.00    +0.000 OA
ATOM      8  C   UNL     1      -2.109  12.963  20.729  0.00  0.00    +0.000 C 
ATOM      9  N   UNL     1      -2.310  13.076  22.179  0.00  0.00    +0.000 NA
ATOM     10  C   UNL     1      -2.726  14.471  22.483  0.00  0.00    +0.000 C 
ATOM     11  H   UNL     1      -1.450  12.886  22.698  0.00  0.00    +0.000 HD
ENDROOT
BRANCH   8  12
ATOM     12  C   UNL     1      -1.183  11.834  20.342  0.00  0.00    +0.000 A 
ATOM     13  C   UNL     1      -1.195  11.260  19.069  0.00  0.00    +0.000 A 
ATOM     14  C   UNL     1      -0.305  10.239  18.741  0.00  0.00    +0.000 A 
ATOM     15  C   UNL     1       0.643   9.743  19.660  0.00  0.00    +0.000 A 
ATOM     16  C   UNL     1       0.632  10.303  20.962  0.00  0.00    +0.000 A 
ATOM     17  C   UNL     1      -0.281  11.320  21.289  0.00  0.00    +0.000 A 
BRANCH  15  18
ATOM     18  C   UNL     1       1.581   8.673  19.213  0.00  0.00    +0.000 A 
ATOM     19  C   UNL     1       2.283   8.785  17.994  0.00  0.00    +0.000 A 
ATOM     20  C   UNL     1       3.135   7.775  17.536  0.00  0.00    +0.000 A 
ATOM     21  C   UNL     1       3.334   6.634  18.306  0.00  0.00    +0.000 A 
ATOM     22  C   UNL     1       2.668   6.499  19.519  0.00  0.00    +0.000 A 
ATOM     23  C   UNL     1       1.790   7.498  19.954  0.00  0.00    +0.000 A 
ENDBRANCH  15  18
BRANCH  16  24
ATOM     24  O   UNL     1       1.572   9.836  21.850  0.00  0.00    +0.000 OA
ATOM     25  C   UNL     1       1.130   9.287  23.084  0.00  0.00    +0.000 C 
ENDBRANCH  16  24
ENDBRANCH   8  12
BRANCH   1  27
ATOM     26  C   UNL     1       2.389  14.864  21.798  0.00  0.00    +0.000 C 
ATOM     27  C   UNL     1       1.505  15.881  21.098  0.00  0.00    +0.000 C 
ENDBRANCH   1  27
BRANCH  10  28
ATOM     28  C   UNL     1      -2.072  14.909  23.814  0.00  0.00    +0.000 C 
ATOM     29  O   UNL     1      -0.989  14.482  24.203  0.00  0.00    +0.000 OA
BRANCH  28  30
ATOM     30  O   UNL     1      -2.831  15.840  24.451  0.00  0.00    +0.000 OA
ATOM     31  C   UNL     1      -2.176  16.507  25.531  0.00  0.00    +0.000 C 
ENDBRANCH  28  30
ENDBRANCH  10  28
BRANCH  10  32
ATOM     32  C   UNL     1      -4.277  14.469  22.572  0.00  0.00    +0.000 C 
BRANCH  32  33
ATOM     33  C   UNL     1      -4.980  13.091  22.759  0.00  0.00    +0.000 C 
ATOM     34  C   UNL     1      -5.914  13.015  23.968  0.00  0.00    +0.000 C 
ATOM     35  C   UNL     1      -5.789  12.755  21.501  0.00  0.00    +0.000 C 
ENDBRANCH  32  33
ENDBRANCH  10  32
TORSDOF 8
ENDMDL
