MODEL 1
REMARK VINA RESULT:      -8.1      0.000      0.000
REMARK  Name = 
REMARK  7 active torsions:
REMARK  status: ('A' for Active; 'I' for Inactive)
REMARK    1  A    between atoms: O_1  and  N_2
REMARK    2  A    between atoms: C_3  and  C_11
REMARK    3  A    between atoms: N_4  and  C_5
REMARK    4  A    between atoms: C_5  and  C_6
REMARK    5  A    between atoms: C_16  and  O_17
REMARK    6  A    between atoms: O_17  and  C_18
REMARK    7  A    between atoms: C_18  and  C_19
REMARK                            x       y       z     vdW  Elec       q    Type
REMARK                         _______ _______ _______ _____ _____    ______ ____
ROOT
ATOM      1  C   UNL     1       2.489   5.220  19.896  0.00  0.00    +0.000 A 
ATOM      2  C   UNL     1       1.349   4.658  20.517  0.00  0.00    +0.000 A 
ATOM      3  C   UNL     1       1.355   3.367  21.028  0.00  0.00    +0.000 A 
ATOM      4  C   UNL     1       2.516   2.651  20.909  0.00  0.00    +0.000 A 
ATOM      5  N   UNL     1       3.620   3.127  20.298  0.00  0.00    +0.000 NA
ATOM      6  C   UNL     1       3.609   4.390  19.775  0.00  0.00    +0.000 A 
ENDROOT
BRANCH   1   8
ATOM      7  N   UNL     1       2.598   6.870  18.204  0.00  0.00    +0.000 NA
ATOM      8  C   UNL     1       2.319   6.664  19.467  0.00  0.00    +0.000 C 
ATOM      9  N   UNL     1       1.953   7.609  20.401  0.00  0.00    +0.000 N 
ATOM     10  H   UNL     1       1.790   7.302  21.352  0.00  0.00    +0.000 HD
BRANCH   7  11
ATOM     11  O   UNL     1       2.587   8.205  17.800  0.00  0.00    +0.000 OA
ATOM     12  H   UNL     1       3.271   8.216  17.102  0.00  0.00    +0.000 HD
ENDBRANCH   7  11
BRANCH   9  13
ATOM     13  C   UNL     1       1.442   8.932  20.070  0.00  0.00    +0.000 C 
BRANCH  13  14
ATOM     14  C   UNL     1       0.608   9.537  21.164  0.00  0.00    +0.000 A 
ATOM     15  C   UNL     1       0.380   9.038  22.435  0.00  0.00    +0.000 A 
ATOM     16  C   UNL     1      -0.458   9.889  23.202  0.00  0.00    +0.000 A 
ATOM     17  C   UNL     1      -0.860  10.999  22.491  0.00  0.00    +0.000 A 
ATOM     18  S   UNL     1      -0.231  11.004  20.904  0.00  0.00    +0.000 S 
ENDBRANCH  13  14
ENDBRANCH   9  13
ENDBRANCH   1   8
BRANCH   6  19
ATOM     19  O   UNL     1       4.782   4.783  19.130  0.00  0.00    +0.000 OA
BRANCH  19  20
ATOM     20  C   UNL     1       4.980   3.992  17.918  0.00  0.00    +0.000 C 
BRANCH  20  21
ATOM     21  C   UNL     1       6.039   4.575  16.950  0.00  0.00    +0.000 C 
ATOM     22  C   UNL     1       5.657   5.954  16.361  0.00  0.00    +0.000 C 
ATOM     23  C   UNL     1       6.097   7.195  17.153  0.00  0.00    +0.000 C 
ATOM     24  C   UNL     1       7.513   7.100  17.705  0.00  0.00    +0.000 C 
ATOM     25  C   UNL     1       7.662   5.827  18.519  0.00  0.00    +0.000 C 
ATOM     26  C   UNL     1       7.431   4.613  17.625  0.00  0.00    +0.000 C 
ENDBRANCH  20  21
ENDBRANCH  19  20
ENDBRANCH   6  19
TORSDOF 7
ENDMDL
MODEL 2
REMARK VINA RESULT:      -8.0      3.451      7.328
REMARK  Name = 
REMARK  7 active torsions:
REMARK  status: ('A' for Active; 'I' for Inactive)
REMARK    1  A    between atoms: O_1  and  N_2
REMARK    2  A    between atoms: C_3  and  C_11
REMARK    3  A    between atoms: N_4  and  C_5
REMARK    4  A    between atoms: C_5  and  C_6
REMARK    5  A    between atoms: C_16  and  O_17
REMARK    6  A    between atoms: O_17  and  C_18
REMARK    7  A    between atoms: C_18  and  C_19
REMARK                            x       y       z     vdW  Elec       q    Type
REMARK                         _______ _______ _______ _____ _____    ______ ____
ROOT
ATOM      1  C   UNL     1       3.570   6.357  18.372  0.00  0.00    +0.000 A 
ATOM      2  C   UNL     1       3.397   7.489  17.542  0.00  0.00    +0.000 A 
ATOM      3  C   UNL     1       2.540   8.526  17.888  0.00  0.00    +0.000 A 
ATOM      4  C   UNL     1       1.864   8.411  19.073  0.00  0.00    +0.000 A 
ATOM      5  N   UNL     1       1.968   7.340  19.885  0.00  0.00    +0.000 NA
ATOM      6  C   UNL     1       2.795   6.309  19.536  0.00  0.00    +0.000 A 
ENDROOT
BRANCH   1   8
ATOM      7  N   UNL     1       5.481   5.020  18.774  0.00  0.00    +0.000 NA
ATOM      8  C   UNL     1       4.600   5.365  17.868  0.00  0.00    +0.000 C 
ATOM      9  N   UNL     1       4.564   4.962  16.551  0.00  0.00    +0.000 N 
ATOM     10  H   UNL     1       3.830   5.332  15.959  0.00  0.00    +0.000 HD
BRANCH   7  11
ATOM     11  O   UNL     1       6.525   4.217  18.316  0.00  0.00    +0.000 OA
ATOM     12  H   UNL     1       7.312   4.742  18.559  0.00  0.00    +0.000 HD
ENDBRANCH   7  11
BRANCH   9  13
ATOM     13  C   UNL     1       5.262   3.794  16.033  0.00  0.00    +0.000 C 
BRANCH  13  14
ATOM     14  C   UNL     1       5.973   4.055  14.735  0.00  0.00    +0.000 A 
ATOM     15  C   UNL     1       5.710   3.501  13.494  0.00  0.00    +0.000 A 
ATOM     16  C   UNL     1       6.587   3.992  12.491  0.00  0.00    +0.000 A 
ATOM     17  C   UNL     1       7.503   4.889  12.997  0.00  0.00    +0.000 A 
ATOM     18  S   UNL     1       7.305   5.127  14.677  0.00  0.00    +0.000 S 
ENDBRANCH  13  14
ENDBRANCH   9  13
ENDBRANCH   1   8
BRANCH   6  19
ATOM     19  O   UNL     1       2.811   5.227  20.418  0.00  0.00    +0.000 OA
BRANCH  19  20
ATOM     20  C   UNL     1       1.449   4.768  20.677  0.00  0.00    +0.000 C 
BRANCH  20  21
ATOM     21  C   UNL     1       1.229   3.260  20.404  0.00  0.00    +0.000 C 
ATOM     22  C   UNL     1       0.907   2.931  18.927  0.00  0.00    +0.000 C 
ATOM     23  C   UNL     1       2.101   2.644  18.002  0.00  0.00    +0.000 C 
ATOM     24  C   UNL     1       3.173   1.770  18.637  0.00  0.00    +0.000 C 
ATOM     25  C   UNL     1       3.614   2.377  19.958  0.00  0.00    +0.000 C 
ATOM     26  C   UNL     1       2.432   2.433  20.920  0.00  0.00    +0.000 C 
ENDBRANCH  20  21
ENDBRANCH  19  20
ENDBRANCH   6  19
TORSDOF 7
ENDMDL
MODEL 3
REMARK VINA RESULT:      -7.9      3.719      7.601
REMARK  Name = 
REMARK  7 active torsions:
REMARK  status: ('A' for Active; 'I' for Inactive)
REMARK    1  A    between atoms: O_1  and  N_2
REMARK    2  A    between atoms: C_3  and  C_11
REMARK    3  A    between atoms: N_4  and  C_5
REMARK    4  A    between atoms: C_5  and  C_6
REMARK    5  A    between atoms: C_16  and  O_17
REMARK    6  A    between atoms: O_17  and  C_18
REMARK    7  A    between atoms: C_18  and  C_19
REMARK                            x       y       z     vdW  Elec       q    Type
REMARK                         _______ _______ _______ _____ _____    ______ ____
ROOT
ATOM      1  C   UNL     1       4.371   6.594  17.871  0.00  0.00    +0.000 A 
ATOM      2  C   UNL     1       3.616   7.745  17.544  0.00  0.00    +0.000 A 
ATOM      3  C   UNL     1       2.451   8.074  18.223  0.00  0.00    +0.000 A 
ATOM      4  C   UNL     1       2.056   7.236  19.232  0.00  0.00    +0.000 A 
ATOM      5  N   UNL     1       2.721   6.110  19.563  0.00  0.00    +0.000 NA
ATOM      6  C   UNL     1       3.856   5.774  18.881  0.00  0.00    +0.000 A 
ENDROOT
BRANCH   1   8
ATOM      7  N   UNL     1       6.592   7.277  17.425  0.00  0.00    +0.000 NA
ATOM      8  C   UNL     1       5.651   6.438  17.072  0.00  0.00    +0.000 C 
ATOM      9  N   UNL     1       5.705   5.509  16.056  0.00  0.00    +0.000 N 
ATOM     10  H   UNL     1       4.884   4.941  15.885  0.00  0.00    +0.000 HD
BRANCH   7  11
ATOM     11  O   UNL     1       7.736   7.261  16.626  0.00  0.00    +0.000 OA
ATOM     12  H   UNL     1       8.321   7.890  17.091  0.00  0.00    +0.000 HD
ENDBRANCH   7  11
BRANCH   9  13
ATOM     13  C   UNL     1       6.938   5.032  15.448  0.00  0.00    +0.000 C 
BRANCH  13  14
ATOM     14  C   UNL     1       6.746   4.495  14.058  0.00  0.00    +0.000 A 
ATOM     15  C   UNL     1       5.775   3.616  13.612  0.00  0.00    +0.000 A 
ATOM     16  C   UNL     1       5.900   3.336  12.225  0.00  0.00    +0.000 A 
ATOM     17  C   UNL     1       6.972   3.992  11.659  0.00  0.00    +0.000 A 
ATOM     18  S   UNL     1       7.822   4.934  12.802  0.00  0.00    +0.000 S 
ENDBRANCH  13  14
ENDBRANCH   9  13
ENDBRANCH   1   8
BRANCH   6  19
ATOM     19  O   UNL     1       4.455   4.574  19.268  0.00  0.00    +0.000 OA
BRANCH  19  20
ATOM     20  C   UNL     1       3.961   3.475  18.443  0.00  0.00    +0.000 C 
BRANCH  20  21
ATOM     21  C   UNL     1       3.349   2.305  19.252  0.00  0.00    +0.000 C 
ATOM     22  C   UNL     1       3.545   2.431  20.781  0.00  0.00    +0.000 C 
ATOM     23  C   UNL     1       2.455   3.181  21.564  0.00  0.00    +0.000 C 
ATOM     24  C   UNL     1       1.039   2.840  21.121  0.00  0.00    +0.000 C 
ATOM     25  C   UNL     1       0.904   3.048  19.623  0.00  0.00    +0.000 C 
ATOM     26  C   UNL     1       1.858   2.113  18.885  0.00  0.00    +0.000 C 
ENDBRANCH  20  21
ENDBRANCH  19  20
ENDBRANCH   6  19
TORSDOF 7
ENDMDL
MODEL 4
REMARK VINA RESULT:      -7.8      0.662      1.508
REMARK  Name = 
REMARK  7 active torsions:
REMARK  status: ('A' for Active; 'I' for Inactive)
REMARK    1  A    between atoms: O_1  and  N_2
REMARK    2  A    between atoms: C_3  and  C_11
REMARK    3  A    between atoms: N_4  and  C_5
REMARK    4  A    between atoms: C_5  and  C_6
REMARK    5  A    between atoms: C_16  and  O_17
REMARK    6  A    between atoms: O_17  and  C_18
REMARK    7  A    between atoms: C_18  and  C_19
REMARK                            x       y       z     vdW  Elec       q    Type
REMARK                         _______ _______ _______ _____ _____    ______ ____
ROOT
ATOM      1  C   UNL     1       2.543   5.240  19.862  0.00  0.00    +0.000 A 
ATOM      2  C   UNL     1       1.608   4.768  20.813  0.00  0.00    +0.000 A 
ATOM      3  C   UNL     1       1.708   3.501  21.371  0.00  0.00    +0.000 A 
ATOM      4  C   UNL     1       2.756   2.718  20.966  0.00  0.00    +0.000 A 
ATOM      5  N   UNL     1       3.656   3.107  20.040  0.00  0.00    +0.000 NA
ATOM      6  C   UNL     1       3.546   4.346  19.474  0.00  0.00    +0.000 A 
ENDROOT
BRANCH   1   8
ATOM      7  N   UNL     1       2.518   6.862  18.140  0.00  0.00    +0.000 NA
ATOM      8  C   UNL     1       2.315   6.673  19.420  0.00  0.00    +0.000 C 
ATOM      9  N   UNL     1       1.980   7.626  20.358  0.00  0.00    +0.000 N 
ATOM     10  H   UNL     1       1.877   7.331  21.321  0.00  0.00    +0.000 HD
BRANCH   7  11
ATOM     11  O   UNL     1       2.454   8.190  17.716  0.00  0.00    +0.000 OA
ATOM     12  H   UNL     1       3.216   8.591  18.178  0.00  0.00    +0.000 HD
ENDBRANCH   7  11
BRANCH   9  13
ATOM     13  C   UNL     1       1.421   8.930  20.035  0.00  0.00    +0.000 C 
BRANCH  13  14
ATOM     14  C   UNL     1       0.621   9.527  21.159  0.00  0.00    +0.000 A 
ATOM     15  C   UNL     1       0.269   8.938  22.359  0.00  0.00    +0.000 A 
ATOM     16  C   UNL     1      -0.487   9.812  23.185  0.00  0.00    +0.000 A 
ATOM     17  C   UNL     1      -0.706  11.032  22.583  0.00  0.00    +0.000 A 
ATOM     18  S   UNL     1      -0.007  11.113  21.028  0.00  0.00    +0.000 S 
ENDBRANCH  13  14
ENDBRANCH   9  13
ENDBRANCH   1   8
BRANCH   6  19
ATOM     19  O   UNL     1       4.500   4.647  18.500  0.00  0.00    +0.000 OA
BRANCH  19  20
ATOM     20  C   UNL     1       5.702   5.194  19.122  0.00  0.00    +0.000 C 
BRANCH  20  21
ATOM     21  C   UNL     1       6.736   5.755  18.115  0.00  0.00    +0.000 C 
ATOM     22  C   UNL     1       7.487   4.663  17.316  0.00  0.00    +0.000 C 
ATOM     23  C   UNL     1       6.852   4.208  15.992  0.00  0.00    +0.000 C 
ATOM     24  C   UNL     1       6.295   5.351  15.155  0.00  0.00    +0.000 C 
ATOM     25  C   UNL     1       5.332   6.178  15.990  0.00  0.00    +0.000 C 
ATOM     26  C   UNL     1       6.072   6.790  17.175  0.00  0.00    +0.000 C 
ENDBRANCH  20  21
ENDBRANCH  19  20
ENDBRANCH   6  19
TORSDOF 7
ENDMDL
MODEL 5
REMARK VINA RESULT:      -7.7      3.622      5.910
REMARK  Name = 
REMARK  7 active torsions:
REMARK  status: ('A' for Active; 'I' for Inactive)
REMARK    1  A    between atoms: O_1  and  N_2
REMARK    2  A    between atoms: C_3  and  C_11
REMARK    3  A    between atoms: N_4  and  C_5
REMARK    4  A    between atoms: C_5  and  C_6
REMARK    5  A    between atoms: C_16  and  O_17
REMARK    6  A    between atoms: O_17  and  C_18
REMARK    7  A    between atoms: C_18  and  C_19
REMARK                            x       y       z     vdW  Elec       q    Type
REMARK                         _______ _______ _______ _____ _____    ______ ____
ROOT
ATOM      1  C   UNL     1       6.210   5.578  17.959  0.00  0.00    +0.000 A 
ATOM      2  C   UNL     1       7.342   5.794  18.779  0.00  0.00    +0.000 A 
ATOM      3  C   UNL     1       8.134   6.927  18.650  0.00  0.00    +0.000 A 
ATOM      4  C   UNL     1       7.775   7.837  17.692  0.00  0.00    +0.000 A 
ATOM      5  N   UNL     1       6.726   7.664  16.863  0.00  0.00    +0.000 NA
ATOM      6  C   UNL     1       5.958   6.540  16.975  0.00  0.00    +0.000 A 
ENDROOT
BRANCH   1   8
ATOM      7  N   UNL     1       5.809   3.749  19.406  0.00  0.00    +0.000 NA
ATOM      8  C   UNL     1       5.426   4.324  18.294  0.00  0.00    +0.000 C 
ATOM      9  N   UNL     1       4.455   3.880  17.422  0.00  0.00    +0.000 N 
ATOM     10  H   UNL     1       4.282   4.423  16.585  0.00  0.00    +0.000 HD
BRANCH   7  11
ATOM     11  O   UNL     1       5.208   2.521  19.681  0.00  0.00    +0.000 OA
ATOM     12  H   UNL     1       4.385   2.790  20.133  0.00  0.00    +0.000 HD
ENDBRANCH   7  11
BRANCH   9  13
ATOM     13  C   UNL     1       3.425   2.911  17.768  0.00  0.00    +0.000 C 
BRANCH  13  14
ATOM     14  C   UNL     1       2.484   3.400  18.833  0.00  0.00    +0.000 A 
ATOM     15  C   UNL     1       2.212   4.708  19.193  0.00  0.00    +0.000 A 
ATOM     16  C   UNL     1       1.258   4.788  20.242  0.00  0.00    +0.000 A 
ATOM     17  C   UNL     1       0.846   3.543  20.664  0.00  0.00    +0.000 A 
ATOM     18  S   UNL     1       1.616   2.287  19.799  0.00  0.00    +0.000 S 
ENDBRANCH  13  14
ENDBRANCH   9  13
ENDBRANCH   1   8
BRANCH   6  19
ATOM     19  O   UNL     1       4.917   6.430  16.051  0.00  0.00    +0.000 OA
BRANCH  19  20
ATOM     20  C   UNL     1       5.451   6.163  14.719  0.00  0.00    +0.000 C 
BRANCH  20  21
ATOM     21  C   UNL     1       6.314   4.880  14.630  0.00  0.00    +0.000 C 
ATOM     22  C   UNL     1       5.578   3.673  14.000  0.00  0.00    +0.000 C 
ATOM     23  C   UNL     1       5.676   3.516  12.474  0.00  0.00    +0.000 C 
ATOM     24  C   UNL     1       7.069   3.783  11.919  0.00  0.00    +0.000 C 
ATOM     25  C   UNL     1       7.553   5.147  12.380  0.00  0.00    +0.000 C 
ATOM     26  C   UNL     1       7.648   5.173  13.903  0.00  0.00    +0.000 C 
ENDBRANCH  20  21
ENDBRANCH  19  20
ENDBRANCH   6  19
TORSDOF 7
ENDMDL
MODEL 6
REMARK VINA RESULT:      -7.7      4.736      8.386
REMARK  Name = 
REMARK  7 active torsions:
REMARK  status: ('A' for Active; 'I' for Inactive)
REMARK    1  A    between atoms: O_1  and  N_2
REMARK    2  A    between atoms: C_3  and  C_11
REMARK    3  A    between atoms: N_4  and  C_5
REMARK    4  A    between atoms: C_5  and  C_6
REMARK    5  A    between atoms: C_16  and  O_17
REMARK    6  A    between atoms: O_17  and  C_18
REMARK    7  A    between atoms: C_18  and  C_19
REMARK                            x       y       z     vdW  Elec       q    Type
REMARK                         _______ _______ _______ _____ _____    ______ ____
ROOT
ATOM      1  C   UNL     1       6.570   4.924  16.703  0.00  0.00    +0.000 A 
ATOM      2  C   UNL     1       7.487   5.689  17.460  0.00  0.00    +0.000 A 
ATOM      3  C   UNL     1       7.349   5.851  18.832  0.00  0.00    +0.000 A 
ATOM      4  C   UNL     1       6.283   5.236  19.432  0.00  0.00    +0.000 A 
ATOM      5  N   UNL     1       5.362   4.522  18.753  0.00  0.00    +0.000 NA
ATOM      6  C   UNL     1       5.485   4.380  17.399  0.00  0.00    +0.000 A 
ENDROOT
BRANCH   1   8
ATOM      7  N   UNL     1       7.813   5.672  14.834  0.00  0.00    +0.000 NA
ATOM      8  C   UNL     1       6.924   4.798  15.234  0.00  0.00    +0.000 C 
ATOM      9  N   UNL     1       6.278   3.857  14.461  0.00  0.00    +0.000 N 
ATOM     10  H   UNL     1       5.593   3.261  14.909  0.00  0.00    +0.000 HD
BRANCH   7  11
ATOM     11  O   UNL     1       8.066   5.681  13.462  0.00  0.00    +0.000 OA
ATOM     12  H   UNL     1       8.975   6.035  13.422  0.00  0.00    +0.000 HD
ENDBRANCH   7  11
BRANCH   9  13
ATOM     13  C   UNL     1       6.743   3.413  13.156  0.00  0.00    +0.000 C 
BRANCH  13  14
ATOM     14  C   UNL     1       5.625   3.126  12.193  0.00  0.00    +0.000 A 
ATOM     15  C   UNL     1       4.495   3.886  11.952  0.00  0.00    +0.000 A 
ATOM     16  C   UNL     1       3.657   3.303  10.964  0.00  0.00    +0.000 A 
ATOM     17  C   UNL     1       4.161   2.109  10.496  0.00  0.00    +0.000 A 
ATOM     18  S   UNL     1       5.635   1.696  11.254  0.00  0.00    +0.000 S 
ENDBRANCH  13  14
ENDBRANCH   9  13
ENDBRANCH   1   8
BRANCH   6  19
ATOM     19  O   UNL     1       4.466   3.657  16.777  0.00  0.00    +0.000 OA
BRANCH  19  20
ATOM     20  C   UNL     1       3.746   2.852  17.760  0.00  0.00    +0.000 C 
BRANCH  20  21
ATOM     21  C   UNL     1       2.217   3.096  17.777  0.00  0.00    +0.000 C 
ATOM     22  C   UNL     1       1.448   2.180  18.759  0.00  0.00    +0.000 C 
ATOM     23  C   UNL     1       1.270   2.696  20.197  0.00  0.00    +0.000 C 
ATOM     24  C   UNL     1       0.912   4.173  20.278  0.00  0.00    +0.000 C 
ATOM     25  C   UNL     1       1.932   4.993  19.506  0.00  0.00    +0.000 C 
ATOM     26  C   UNL     1       1.908   4.590  18.034  0.00  0.00    +0.000 C 
ENDBRANCH  20  21
ENDBRANCH  19  20
ENDBRANCH   6  19
TORSDOF 7
ENDMDL
MODEL 7
REMARK VINA RESULT:      -7.7      1.820      4.218
REMARK  Name = 
REMARK  7 active torsions:
REMARK  status: ('A' for Active; 'I' for Inactive)
REMARK    1  A    between atoms: O_1  and  N_2
REMARK    2  A    between atoms: C_3  and  C_11
REMARK    3  A    between atoms: N_4  and  C_5
REMARK    4  A    between atoms: C_5  and  C_6
REMARK    5  A    between atoms: C_16  and  O_17
REMARK    6  A    between atoms: O_17  and  C_18
REMARK    7  A    between atoms: C_18  and  C_19
REMARK                            x       y       z     vdW  Elec       q    Type
REMARK                         _______ _______ _______ _____ _____    ______ ____
ROOT
ATOM      1  C   UNL     1       3.024   7.374  18.122  0.00  0.00    +0.000 A 
ATOM      2  C   UNL     1       4.044   7.438  17.145  0.00  0.00    +0.000 A 
ATOM      3  C   UNL     1       4.808   6.328  16.809  0.00  0.00    +0.000 A 
ATOM      4  C   UNL     1       4.534   5.157  17.465  0.00  0.00    +0.000 A 
ATOM      5  N   UNL     1       3.596   5.049  18.428  0.00  0.00    +0.000 NA
ATOM      6  C   UNL     1       2.858   6.147  18.773  0.00  0.00    +0.000 A 
ENDROOT
BRANCH   1   8
ATOM      7  N   UNL     1       2.465   9.540  17.353  0.00  0.00    +0.000 NA
ATOM      8  C   UNL     1       2.248   8.664  18.301  0.00  0.00    +0.000 C 
ATOM      9  N   UNL     1       1.455   8.827  19.416  0.00  0.00    +0.000 N 
ATOM     10  H   UNL     1       1.401   8.063  20.079  0.00  0.00    +0.000 HD
BRANCH   7  11
ATOM     11  O   UNL     1       1.878  10.791  17.550  0.00  0.00    +0.000 OA
ATOM     12  H   UNL     1       0.947  10.556  17.726  0.00  0.00    +0.000 HD
ENDBRANCH   7  11
BRANCH   9  13
ATOM     13  C   UNL     1       0.423   9.846  19.545  0.00  0.00    +0.000 C 
BRANCH  13  14
ATOM     14  C   UNL     1      -0.057  10.029  20.957  0.00  0.00    +0.000 A 
ATOM     15  C   UNL     1       0.004   9.124  22.001  0.00  0.00    +0.000 A 
ATOM     16  C   UNL     1      -0.544   9.650  23.201  0.00  0.00    +0.000 A 
ATOM     17  C   UNL     1      -1.025  10.931  23.032  0.00  0.00    +0.000 A 
ATOM     18  S   UNL     1      -0.819  11.486  21.431  0.00  0.00    +0.000 S 
ENDBRANCH  13  14
ENDBRANCH   9  13
ENDBRANCH   1   8
BRANCH   6  19
ATOM     19  O   UNL     1       1.937   5.949  19.804  0.00  0.00    +0.000 OA
BRANCH  19  20
ATOM     20  C   UNL     1       2.527   5.129  20.858  0.00  0.00    +0.000 C 
BRANCH  20  21
ATOM     21  C   UNL     1       1.790   3.789  21.103  0.00  0.00    +0.000 C 
ATOM     22  C   UNL     1       0.617   3.532  20.126  0.00  0.00    +0.000 C 
ATOM     23  C   UNL     1       0.949   2.795  18.819  0.00  0.00    +0.000 C 
ATOM     24  C   UNL     1       1.905   1.624  19.001  0.00  0.00    +0.000 C 
ATOM     25  C   UNL     1       3.158   2.091  19.721  0.00  0.00    +0.000 C 
ATOM     26  C   UNL     1       2.793   2.611  21.108  0.00  0.00    +0.000 C 
ENDBRANCH  20  21
ENDBRANCH  19  20
ENDBRANCH   6  19
TORSDOF 7
ENDMDL
MODEL 8
REMARK VINA RESULT:      -7.5      1.687      4.218
REMARK  Name = 
REMARK  7 active torsions:
REMARK  status: ('A' for Active; 'I' for Inactive)
REMARK    1  A    between atoms: O_1  and  N_2
REMARK    2  A    between atoms: C_3  and  C_11
REMARK    3  A    between atoms: N_4  and  C_5
REMARK    4  A    between atoms: C_5  and  C_6
REMARK    5  A    between atoms: C_16  and  O_17
REMARK    6  A    between atoms: O_17  and  C_18
REMARK    7  A    between atoms: C_18  and  C_19
REMARK                            x       y       z     vdW  Elec       q    Type
REMARK                         _______ _______ _______ _____ _____    ______ ____
ROOT
ATOM      1  C   UNL     1       3.399   7.119  17.837  0.00  0.00    +0.000 A 
ATOM      2  C   UNL     1       4.671   7.438  17.306  0.00  0.00    +0.000 A 
ATOM      3  C   UNL     1       5.588   6.456  16.959  0.00  0.00    +0.000 A 
ATOM      4  C   UNL     1       5.212   5.152  17.148  0.00  0.00    +0.000 A 
ATOM      5  N   UNL     1       4.026   4.794  17.680  0.00  0.00    +0.000 NA
ATOM      6  C   UNL     1       3.131   5.761  18.042  0.00  0.00    +0.000 A 
ENDROOT
BRANCH   1   8
ATOM      7  N   UNL     1       2.622   9.254  17.178  0.00  0.00    +0.000 NA
ATOM      8  C   UNL     1       2.507   8.318  18.087  0.00  0.00    +0.000 C 
ATOM      9  N   UNL     1       1.722   8.353  19.220  0.00  0.00    +0.000 N 
ATOM     10  H   UNL     1       1.753   7.558  19.846  0.00  0.00    +0.000 HD
BRANCH   7  11
ATOM     11  O   UNL     1       1.922  10.432  17.442  0.00  0.00    +0.000 OA
ATOM     12  H   UNL     1       1.120  10.099  17.891  0.00  0.00    +0.000 HD
ENDBRANCH   7  11
BRANCH   9  13
ATOM     13  C   UNL     1       0.600   9.261  19.410  0.00  0.00    +0.000 C 
BRANCH  13  14
ATOM     14  C   UNL     1       0.294   9.530  20.857  0.00  0.00    +0.000 A 
ATOM     15  C   UNL     1       0.668   8.783  21.959  0.00  0.00    +0.000 A 
ATOM     16  C   UNL     1       0.202   9.350  23.175  0.00  0.00    +0.000 A 
ATOM     17  C   UNL     1      -0.529  10.499  22.964  0.00  0.00    +0.000 A 
ATOM     18  S   UNL     1      -0.654  10.882  21.304  0.00  0.00    +0.000 S 
ENDBRANCH  13  14
ENDBRANCH   9  13
ENDBRANCH   1   8
BRANCH   6  19
ATOM     19  O   UNL     1       1.946   5.297  18.617  0.00  0.00    +0.000 OA
BRANCH  19  20
ATOM     20  C   UNL     1       1.457   4.129  17.891  0.00  0.00    +0.000 C 
BRANCH  20  21
ATOM     21  C   UNL     1       1.276   2.868  18.772  0.00  0.00    +0.000 C 
ATOM     22  C   UNL     1       2.579   2.062  18.986  0.00  0.00    +0.000 C 
ATOM     23  C   UNL     1       3.445   2.448  20.197  0.00  0.00    +0.000 C 
ATOM     24  C   UNL     1       2.643   2.725  21.461  0.00  0.00    +0.000 C 
ATOM     25  C   UNL     1       1.575   3.767  21.174  0.00  0.00    +0.000 C 
ATOM     26  C   UNL     1       0.609   3.237  20.118  0.00  0.00    +0.000 C 
ENDBRANCH  20  21
ENDBRANCH  19  20
ENDBRANCH   6  19
TORSDOF 7
ENDMDL
MODEL 9
REMARK VINA RESULT:      -7.5      0.855      1.352
REMARK  Name = 
REMARK  7 active torsions:
REMARK  status: ('A' for Active; 'I' for Inactive)
REMARK    1  A    between atoms: O_1  and  N_2
REMARK    2  A    between atoms: C_3  and  C_11
REMARK    3  A    between atoms: N_4  and  C_5
REMARK    4  A    between atoms: C_5  and  C_6
REMARK    5  A    between atoms: C_16  and  O_17
REMARK    6  A    between atoms: O_17  and  C_18
REMARK    7  A    between atoms: C_18  and  C_19
REMARK                            x       y       z     vdW  Elec       q    Type
REMARK                         _______ _______ _______ _____ _____    ______ ____
ROOT
ATOM      1  C   UNL     1       2.339   5.056  19.967  0.00  0.00    +0.000 A 
ATOM      2  C   UNL     1       1.167   4.533  20.562  0.00  0.00    +0.000 A 
ATOM      3  C   UNL     1       1.125   3.252  21.094  0.00  0.00    +0.000 A 
ATOM      4  C   UNL     1       2.271   2.505  21.023  0.00  0.00    +0.000 A 
ATOM      5  N   UNL     1       3.405   2.943  20.438  0.00  0.00    +0.000 NA
ATOM      6  C   UNL     1       3.441   4.196  19.895  0.00  0.00    +0.000 A 
ENDROOT
BRANCH   1   8
ATOM      7  N   UNL     1       2.375   6.647  18.217  0.00  0.00    +0.000 NA
ATOM      8  C   UNL     1       2.219   6.496  19.508  0.00  0.00    +0.000 C 
ATOM      9  N   UNL     1       2.016   7.489  20.442  0.00  0.00    +0.000 N 
ATOM     10  H   UNL     1       1.934   7.219  21.415  0.00  0.00    +0.000 HD
BRANCH   7  11
ATOM     11  O   UNL     1       2.408   7.969  17.771  0.00  0.00    +0.000 OA
ATOM     12  H   UNL     1       2.077   7.886  16.855  0.00  0.00    +0.000 HD
ENDBRANCH   7  11
BRANCH   9  13
ATOM     13  C   UNL     1       1.560   8.833  20.121  0.00  0.00    +0.000 C 
BRANCH  13  14
ATOM     14  C   UNL     1       0.700   9.440  21.194  0.00  0.00    +0.000 A 
ATOM     15  C   UNL     1       0.486   8.973  22.478  0.00  0.00    +0.000 A 
ATOM     16  C   UNL     1      -0.387   9.816  23.217  0.00  0.00    +0.000 A 
ATOM     17  C   UNL     1      -0.828  10.887  22.470  0.00  0.00    +0.000 A 
ATOM     18  S   UNL     1      -0.194  10.866  20.885  0.00  0.00    +0.000 S 
ENDBRANCH  13  14
ENDBRANCH   9  13
ENDBRANCH   1   8
BRANCH   6  19
ATOM     19  O   UNL     1       4.643   4.549  19.279  0.00  0.00    +0.000 OA
BRANCH  19  20
ATOM     20  C   UNL     1       4.740   3.920  17.965  0.00  0.00    +0.000 C 
BRANCH  20  21
ATOM     21  C   UNL     1       4.768   4.924  16.786  0.00  0.00    +0.000 C 
ATOM     22  C   UNL     1       5.758   6.096  16.985  0.00  0.00    +0.000 C 
ATOM     23  C   UNL     1       7.195   5.886  16.482  0.00  0.00    +0.000 C 
ATOM     24  C   UNL     1       7.277   5.197  15.127  0.00  0.00    +0.000 C 
ATOM     25  C   UNL     1       6.495   3.895  15.165  0.00  0.00    +0.000 C 
ATOM     26  C   UNL     1       5.024   4.185  15.450  0.00  0.00    +0.000 C 
ENDBRANCH  20  21
ENDBRANCH  19  20
ENDBRANCH   6  19
TORSDOF 7
ENDMDL
