MODEL 1
REMARK VINA RESULT:      -8.0      0.000      0.000
REMARK  Name = 
REMARK  4 active torsions:
REMARK  status: ('A' for Active; 'I' for Inactive)
REMARK    1  A    between atoms: N_1  and  S_2
REMARK    2  A    between atoms: S_2  and  C_5
REMARK    3  A    between atoms: N_12  and  C_13
REMARK    4  A    between atoms: C_13  and  C_14
REMARK                            x       y       z     vdW  Elec       q    Type
REMARK                         _______ _______ _______ _____ _____    ______ ____
ROOT
ATOM      1  C   UNL     1       3.306   4.339  19.424  0.00  0.00    +0.000 A 
ATOM      2  C   UNL     1       4.207   5.403  19.367  0.00  0.00    +0.000 A 
ATOM      3  C   UNL     1       5.273   5.279  18.494  0.00  0.00    +0.000 A 
ATOM      4  C   UNL     1       5.303   4.356  17.444  0.00  0.00    +0.000 A 
ATOM      5  C   UNL     1       4.426   3.283  17.519  0.00  0.00    +0.000 A 
ATOM      6  C   UNL     1       3.463   3.243  18.556  0.00  0.00    +0.000 A 
ATOM      7 CL   UNL     1       2.732   1.702  18.855  0.00  0.00    +0.000 Cl
ATOM      8  N   UNL     1       6.585   4.328  16.765  0.00  0.00    +0.000 N 
ATOM      9  C   UNL     1       7.405   4.580  17.986  0.00  0.00    +0.000 C 
ATOM     10  C   UNL     1       6.680   5.679  18.791  0.00  0.00    +0.000 C 
ENDROOT
BRANCH   1  11
ATOM     11  S   UNL     1       2.032   4.470  20.636  0.00  0.00    +0.000 S 
ATOM     12  O   UNL     1       2.397   3.819  21.871  0.00  0.00    +0.000 OA
ATOM     13  O   UNL     1       0.768   4.199  19.989  0.00  0.00    +0.000 OA
BRANCH  11  14
ATOM     14  N   UNL     1       2.009   6.122  20.971  0.00  0.00    +0.000 NA
ATOM     15  H   UNL     1       1.261   6.570  20.437  0.00  0.00    +0.000 HD
ATOM     16  H   UNL     1       2.931   6.528  20.780  0.00  0.00    +0.000 HD
ENDBRANCH  11  14
ENDBRANCH   1  11
BRANCH   8  17
ATOM     17  C   UNL     1       6.759   5.446  15.766  0.00  0.00    +0.000 C 
BRANCH  17  18
ATOM     18  C   UNL     1       6.675   4.912  14.335  0.00  0.00    +0.000 A 
ATOM     19  C   UNL     1       5.654   4.012  13.979  0.00  0.00    +0.000 A 
ATOM     20  C   UNL     1       5.656   3.388  12.732  0.00  0.00    +0.000 A 
ATOM     21  C   UNL     1       6.659   3.671  11.798  0.00  0.00    +0.000 A 
ATOM     22  C   UNL     1       7.639   4.608  12.115  0.00  0.00    +0.000 A 
ATOM     23  C   UNL     1       7.647   5.231  13.361  0.00  0.00    +0.000 A 
ENDBRANCH  17  18
ENDBRANCH   8  17
TORSDOF 4
ENDMDL
MODEL 2
REMARK VINA RESULT:      -7.9      0.271      1.078
REMARK  Name = 
REMARK  4 active torsions:
REMARK  status: ('A' for Active; 'I' for Inactive)
REMARK    1  A    between atoms: N_1  and  S_2
REMARK    2  A    between atoms: S_2  and  C_5
REMARK    3  A    between atoms: N_12  and  C_13
REMARK    4  A    between atoms: C_13  and  C_14
REMARK                            x       y       z     vdW  Elec       q    Type
REMARK                         _______ _______ _______ _____ _____    ______ ____
ROOT
ATOM      1  C   UNL     1       3.142   4.251  19.583  0.00  0.00    +0.000 A 
ATOM      2  C   UNL     1       4.016   5.335  19.481  0.00  0.00    +0.000 A 
ATOM      3  C   UNL     1       5.058   5.222  18.578  0.00  0.00    +0.000 A 
ATOM      4  C   UNL     1       5.078   4.283  17.542  0.00  0.00    +0.000 A 
ATOM      5  C   UNL     1       4.229   3.191  17.661  0.00  0.00    +0.000 A 
ATOM      6  C   UNL     1       3.299   3.145  18.728  0.00  0.00    +0.000 A 
ATOM      7 CL   UNL     1       2.614   1.593  19.072  0.00  0.00    +0.000 Cl
ATOM      8  N   UNL     1       6.339   4.274  16.825  0.00  0.00    +0.000 N 
ATOM      9  C   UNL     1       7.189   4.565  18.016  0.00  0.00    +0.000 C 
ATOM     10  C   UNL     1       6.462   5.660  18.825  0.00  0.00    +0.000 C 
ENDROOT
BRANCH   1  11
ATOM     11  S   UNL     1       1.903   4.373  20.831  0.00  0.00    +0.000 S 
ATOM     12  O   UNL     1       2.302   3.711  22.050  0.00  0.00    +0.000 OA
ATOM     13  O   UNL     1       0.621   4.107  20.217  0.00  0.00    +0.000 OA
BRANCH  11  14
ATOM     14  N   UNL     1       1.889   6.021  21.180  0.00  0.00    +0.000 NA
ATOM     15  H   UNL     1       1.419   6.179  22.074  0.00  0.00    +0.000 HD
ATOM     16  H   UNL     1       1.455   6.536  20.406  0.00  0.00    +0.000 HD
ENDBRANCH  11  14
ENDBRANCH   1  11
BRANCH   8  17
ATOM     17  C   UNL     1       6.456   5.379  15.803  0.00  0.00    +0.000 C 
BRANCH  17  18
ATOM     18  C   UNL     1       6.668   4.803  14.403  0.00  0.00    +0.000 A 
ATOM     19  C   UNL     1       7.683   5.318  13.576  0.00  0.00    +0.000 A 
ATOM     20  C   UNL     1       7.787   4.924  12.242  0.00  0.00    +0.000 A 
ATOM     21  C   UNL     1       6.900   3.981  11.710  0.00  0.00    +0.000 A 
ATOM     22  C   UNL     1       5.932   3.416  12.536  0.00  0.00    +0.000 A 
ATOM     23  C   UNL     1       5.818   3.809  13.867  0.00  0.00    +0.000 A 
ENDBRANCH  17  18
ENDBRANCH   8  17
TORSDOF 4
ENDMDL
MODEL 3
REMARK VINA RESULT:      -7.7      0.824      1.021
REMARK  Name = 
REMARK  4 active torsions:
REMARK  status: ('A' for Active; 'I' for Inactive)
REMARK    1  A    between atoms: N_1  and  S_2
REMARK    2  A    between atoms: S_2  and  C_5
REMARK    3  A    between atoms: N_12  and  C_13
REMARK    4  A    between atoms: C_13  and  C_14
REMARK                            x       y       z     vdW  Elec       q    Type
REMARK                         _______ _______ _______ _____ _____    ______ ____
ROOT
ATOM      1  C   UNL     1       3.151   4.252  19.605  0.00  0.00    +0.000 A 
ATOM      2  C   UNL     1       4.044   5.321  19.528  0.00  0.00    +0.000 A 
ATOM      3  C   UNL     1       5.071   5.220  18.606  0.00  0.00    +0.000 A 
ATOM      4  C   UNL     1       5.058   4.316  17.539  0.00  0.00    +0.000 A 
ATOM      5  C   UNL     1       4.189   3.238  17.633  0.00  0.00    +0.000 A 
ATOM      6  C   UNL     1       3.274   3.173  18.711  0.00  0.00    +0.000 A 
ATOM      7 CL   UNL     1       2.563   1.624  19.013  0.00  0.00    +0.000 Cl
ATOM      8  N   UNL     1       6.308   4.308  16.802  0.00  0.00    +0.000 N 
ATOM      9  C   UNL     1       7.180   4.541  17.990  0.00  0.00    +0.000 C 
ATOM     10  C   UNL     1       6.487   5.622  18.847  0.00  0.00    +0.000 C 
ENDROOT
BRANCH   1  11
ATOM     11  S   UNL     1       1.933   4.355  20.876  0.00  0.00    +0.000 S 
ATOM     12  O   UNL     1       1.512   5.715  21.109  0.00  0.00    +0.000 OA
ATOM     13  O   UNL     1       2.349   3.500  21.966  0.00  0.00    +0.000 OA
BRANCH  11  14
ATOM     14  N   UNL     1       0.610   3.571  20.185  0.00  0.00    +0.000 NA
ATOM     15  H   UNL     1       0.106   4.220  19.577  0.00  0.00    +0.000 HD
ATOM     16  H   UNL     1       0.017   3.176  20.923  0.00  0.00    +0.000 HD
ENDBRANCH  11  14
ENDBRANCH   1  11
BRANCH   8  17
ATOM     17  C   UNL     1       6.432   5.445  15.817  0.00  0.00    +0.000 C 
BRANCH  17  18
ATOM     18  C   UNL     1       6.486   4.916  14.383  0.00  0.00    +0.000 A 
ATOM     19  C   UNL     1       5.487   4.043  13.917  0.00  0.00    +0.000 A 
ATOM     20  C   UNL     1       5.605   3.421  12.674  0.00  0.00    +0.000 A 
ATOM     21  C   UNL     1       6.708   3.681  11.853  0.00  0.00    +0.000 A 
ATOM     22  C   UNL     1       7.671   4.593  12.276  0.00  0.00    +0.000 A 
ATOM     23  C   UNL     1       7.563   5.213  13.519  0.00  0.00    +0.000 A 
ENDBRANCH  17  18
ENDBRANCH   8  17
TORSDOF 4
ENDMDL
MODEL 4
REMARK VINA RESULT:      -7.5      3.860      5.145
REMARK  Name = 
REMARK  4 active torsions:
REMARK  status: ('A' for Active; 'I' for Inactive)
REMARK    1  A    between atoms: N_1  and  S_2
REMARK    2  A    between atoms: S_2  and  C_5
REMARK    3  A    between atoms: N_12  and  C_13
REMARK    4  A    between atoms: C_13  and  C_14
REMARK                            x       y       z     vdW  Elec       q    Type
REMARK                         _______ _______ _______ _____ _____    ______ ____
ROOT
ATOM      1  C   UNL     1       1.594   8.094  20.182  0.00  0.00    +0.000 A 
ATOM      2  C   UNL     1       1.731   6.790  20.659  0.00  0.00    +0.000 A 
ATOM      3  C   UNL     1       2.203   5.840  19.772  0.00  0.00    +0.000 A 
ATOM      4  C   UNL     1       2.869   6.162  18.585  0.00  0.00    +0.000 A 
ATOM      5  C   UNL     1       2.708   7.451  18.097  0.00  0.00    +0.000 A 
ATOM      6  C   UNL     1       2.008   8.406  18.874  0.00  0.00    +0.000 A 
ATOM      7 CL   UNL     1       1.459   9.815  18.032  0.00  0.00    +0.000 Cl
ATOM      8  N   UNL     1       3.136   4.996  17.764  0.00  0.00    +0.000 N 
ATOM      9  C   UNL     1       1.878   4.275  18.117  0.00  0.00    +0.000 C 
ATOM     10  C   UNL     1       1.676   4.450  19.637  0.00  0.00    +0.000 C 
ENDROOT
BRANCH   1  11
ATOM     11  S   UNL     1       0.871   9.252  21.297  0.00  0.00    +0.000 S 
ATOM     12  O   UNL     1      -0.427   8.819  21.754  0.00  0.00    +0.000 OA
ATOM     13  O   UNL     1       1.074  10.579  20.758  0.00  0.00    +0.000 OA
BRANCH  11  14
ATOM     14  N   UNL     1       1.889   9.163  22.637  0.00  0.00    +0.000 NA
ATOM     15  H   UNL     1       2.863   9.209  22.332  0.00  0.00    +0.000 HD
ATOM     16  H   UNL     1       1.681   8.313  23.174  0.00  0.00    +0.000 HD
ENDBRANCH  11  14
ENDBRANCH   1  11
BRANCH   8  17
ATOM     17  C   UNL     1       4.345   4.210  18.211  0.00  0.00    +0.000 C 
BRANCH  17  18
ATOM     18  C   UNL     1       5.611   5.061  18.115  0.00  0.00    +0.000 A 
ATOM     19  C   UNL     1       6.482   5.155  19.216  0.00  0.00    +0.000 A 
ATOM     20  C   UNL     1       7.549   6.052  19.208  0.00  0.00    +0.000 A 
ATOM     21  C   UNL     1       7.793   6.855  18.088  0.00  0.00    +0.000 A 
ATOM     22  C   UNL     1       6.977   6.726  16.967  0.00  0.00    +0.000 A 
ATOM     23  C   UNL     1       5.905   5.836  16.970  0.00  0.00    +0.000 A 
ENDBRANCH  17  18
ENDBRANCH   8  17
TORSDOF 4
ENDMDL
MODEL 5
REMARK VINA RESULT:      -7.5      3.980      5.233
REMARK  Name = 
REMARK  4 active torsions:
REMARK  status: ('A' for Active; 'I' for Inactive)
REMARK    1  A    between atoms: N_1  and  S_2
REMARK    2  A    between atoms: S_2  and  C_5
REMARK    3  A    between atoms: N_12  and  C_13
REMARK    4  A    between atoms: C_13  and  C_14
REMARK                            x       y       z     vdW  Elec       q    Type
REMARK                         _______ _______ _______ _____ _____    ______ ____
ROOT
ATOM      1  C   UNL     1       1.549   8.128  20.251  0.00  0.00    +0.000 A 
ATOM      2  C   UNL     1       1.732   6.816  20.689  0.00  0.00    +0.000 A 
ATOM      3  C   UNL     1       2.192   5.899  19.760  0.00  0.00    +0.000 A 
ATOM      4  C   UNL     1       2.807   6.266  18.559  0.00  0.00    +0.000 A 
ATOM      5  C   UNL     1       2.600   7.564  18.112  0.00  0.00    +0.000 A 
ATOM      6  C   UNL     1       1.907   8.482  18.938  0.00  0.00    +0.000 A 
ATOM      7 CL   UNL     1       1.297   9.899  18.153  0.00  0.00    +0.000 Cl
ATOM      8  N   UNL     1       3.069   5.128  17.699  0.00  0.00    +0.000 N 
ATOM      9  C   UNL     1       1.841   4.370  18.078  0.00  0.00    +0.000 C 
ATOM     10  C   UNL     1       1.691   4.502  19.609  0.00  0.00    +0.000 C 
ENDROOT
BRANCH   1  11
ATOM     11  S   UNL     1       0.842   9.241  21.421  0.00  0.00    +0.000 S 
ATOM     12  O   UNL     1      -0.419   8.756  21.929  0.00  0.00    +0.000 OA
ATOM     13  O   UNL     1       0.976  10.583  20.900  0.00  0.00    +0.000 OA
BRANCH  11  14
ATOM     14  N   UNL     1       1.924   9.160  22.711  0.00  0.00    +0.000 NA
ATOM     15  H   UNL     1       1.407   9.086  23.589  0.00  0.00    +0.000 HD
ATOM     16  H   UNL     1       2.552   9.971  22.687  0.00  0.00    +0.000 HD
ENDBRANCH  11  14
ENDBRANCH   1  11
BRANCH   8  17
ATOM     17  C   UNL     1       4.310   4.359  18.081  0.00  0.00    +0.000 C 
BRANCH  17  18
ATOM     18  C   UNL     1       5.516   5.294  18.189  0.00  0.00    +0.000 A 
ATOM     19  C   UNL     1       5.818   6.177  17.137  0.00  0.00    +0.000 A 
ATOM     20  C   UNL     1       7.001   6.915  17.142  0.00  0.00    +0.000 A 
ATOM     21  C   UNL     1       7.896   6.815  18.213  0.00  0.00    +0.000 A 
ATOM     22  C   UNL     1       7.577   5.993  19.291  0.00  0.00    +0.000 A 
ATOM     23  C   UNL     1       6.400   5.247  19.290  0.00  0.00    +0.000 A 
ENDBRANCH  17  18
ENDBRANCH   8  17
TORSDOF 4
ENDMDL
MODEL 6
REMARK VINA RESULT:      -7.3      3.504      4.751
REMARK  Name = 
REMARK  4 active torsions:
REMARK  status: ('A' for Active; 'I' for Inactive)
REMARK    1  A    between atoms: N_1  and  S_2
REMARK    2  A    between atoms: S_2  and  C_5
REMARK    3  A    between atoms: N_12  and  C_13
REMARK    4  A    between atoms: C_13  and  C_14
REMARK                            x       y       z     vdW  Elec       q    Type
REMARK                         _______ _______ _______ _____ _____    ______ ____
ROOT
ATOM      1  C   UNL     1       1.458   8.084  20.314  0.00  0.00    +0.000 A 
ATOM      2  C   UNL     1       1.631   6.820  20.878  0.00  0.00    +0.000 A 
ATOM      3  C   UNL     1       2.025   5.799  20.031  0.00  0.00    +0.000 A 
ATOM      4  C   UNL     1       2.590   6.022  18.772  0.00  0.00    +0.000 A 
ATOM      5  C   UNL     1       2.391   7.272  18.200  0.00  0.00    +0.000 A 
ATOM      6  C   UNL     1       1.761   8.290  18.956  0.00  0.00    +0.000 A 
ATOM      7 CL   UNL     1       1.147   9.634  18.055  0.00  0.00    +0.000 Cl
ATOM      8  N   UNL     1       2.784   4.794  18.024  0.00  0.00    +0.000 N 
ATOM      9  C   UNL     1       1.558   4.114  18.537  0.00  0.00    +0.000 C 
ATOM     10  C   UNL     1       1.485   4.409  20.050  0.00  0.00    +0.000 C 
ENDROOT
BRANCH   1  11
ATOM     11  S   UNL     1       0.834   9.332  21.392  0.00  0.00    +0.000 S 
ATOM     12  O   UNL     1      -0.467   8.990  21.913  0.00  0.00    +0.000 OA
ATOM     13  O   UNL     1       1.083  10.618  20.779  0.00  0.00    +0.000 OA
BRANCH  11  14
ATOM     14  N   UNL     1       1.894   9.256  22.700  0.00  0.00    +0.000 NA
ATOM     15  H   UNL     1       1.364   9.114  23.563  0.00  0.00    +0.000 HD
ATOM     16  H   UNL     1       2.475  10.101  22.725  0.00  0.00    +0.000 HD
ENDBRANCH  11  14
ENDBRANCH   1  11
BRANCH   8  17
ATOM     17  C   UNL     1       4.024   4.034  18.428  0.00  0.00    +0.000 C 
BRANCH  17  18
ATOM     18  C   UNL     1       5.118   4.180  17.371  0.00  0.00    +0.000 A 
ATOM     19  C   UNL     1       6.438   4.470  17.759  0.00  0.00    +0.000 A 
ATOM     20  C   UNL     1       7.413   4.770  16.807  0.00  0.00    +0.000 A 
ATOM     21  C   UNL     1       7.101   4.756  15.443  0.00  0.00    +0.000 A 
ATOM     22  C   UNL     1       5.814   4.407  15.043  0.00  0.00    +0.000 A 
ATOM     23  C   UNL     1       4.833   4.112  15.988  0.00  0.00    +0.000 A 
ENDBRANCH  17  18
ENDBRANCH   8  17
TORSDOF 4
ENDMDL
MODEL 7
REMARK VINA RESULT:      -7.3      3.905      5.155
REMARK  Name = 
REMARK  4 active torsions:
REMARK  status: ('A' for Active; 'I' for Inactive)
REMARK    1  A    between atoms: N_1  and  S_2
REMARK    2  A    between atoms: S_2  and  C_5
REMARK    3  A    between atoms: N_12  and  C_13
REMARK    4  A    between atoms: C_13  and  C_14
REMARK                            x       y       z     vdW  Elec       q    Type
REMARK                         _______ _______ _______ _____ _____    ______ ____
ROOT
ATOM      1  C   UNL     1       1.265   8.832  20.400  0.00  0.00    +0.000 A 
ATOM      2  C   UNL     1       1.569   7.666  21.104  0.00  0.00    +0.000 A 
ATOM      3  C   UNL     1       2.041   6.591  20.371  0.00  0.00    +0.000 A 
ATOM      4  C   UNL     1       2.556   6.712  19.077  0.00  0.00    +0.000 A 
ATOM      5  C   UNL     1       2.228   7.860  18.368  0.00  0.00    +0.000 A 
ATOM      6  C   UNL     1       1.519   8.899  19.018  0.00  0.00    +0.000 A 
ATOM      7 CL   UNL     1       0.761  10.063  17.984  0.00  0.00    +0.000 Cl
ATOM      8  N   UNL     1       2.851   5.425  18.474  0.00  0.00    +0.000 N 
ATOM      9  C   UNL     1       1.707   4.702  19.102  0.00  0.00    +0.000 C 
ATOM     10  C   UNL     1       1.637   5.169  20.571  0.00  0.00    +0.000 C 
ENDROOT
BRANCH   1  11
ATOM     11  S   UNL     1       0.547  10.137  21.342  0.00  0.00    +0.000 S 
ATOM     12  O   UNL     1      -0.871  10.256  21.102  0.00  0.00    +0.000 OA
ATOM     13  O   UNL     1       1.422  11.286  21.256  0.00  0.00    +0.000 OA
BRANCH  11  14
ATOM     14  N   UNL     1       0.705   9.583  22.925  0.00  0.00    +0.000 NA
ATOM     15  H   UNL     1      -0.120   9.848  23.466  0.00  0.00    +0.000 HD
ATOM     16  H   UNL     1       1.578   9.938  23.331  0.00  0.00    +0.000 HD
ENDBRANCH  11  14
ENDBRANCH   1  11
BRANCH   8  17
ATOM     17  C   UNL     1       4.166   4.838  18.926  0.00  0.00    +0.000 C 
BRANCH  17  18
ATOM     18  C   UNL     1       5.192   4.871  17.793  0.00  0.00    +0.000 A 
ATOM     19  C   UNL     1       4.764   4.987  16.458  0.00  0.00    +0.000 A 
ATOM     20  C   UNL     1       5.668   4.852  15.404  0.00  0.00    +0.000 A 
ATOM     21  C   UNL     1       7.026   4.631  15.657  0.00  0.00    +0.000 A 
ATOM     22  C   UNL     1       7.472   4.577  16.975  0.00  0.00    +0.000 A 
ATOM     23  C   UNL     1       6.575   4.705  18.033  0.00  0.00    +0.000 A 
ENDBRANCH  17  18
ENDBRANCH   8  17
TORSDOF 4
ENDMDL
MODEL 8
REMARK VINA RESULT:      -7.3      3.500      4.884
REMARK  Name = 
REMARK  4 active torsions:
REMARK  status: ('A' for Active; 'I' for Inactive)
REMARK    1  A    between atoms: N_1  and  S_2
REMARK    2  A    between atoms: S_2  and  C_5
REMARK    3  A    between atoms: N_12  and  C_13
REMARK    4  A    between atoms: C_13  and  C_14
REMARK                            x       y       z     vdW  Elec       q    Type
REMARK                         _______ _______ _______ _____ _____    ______ ____
ROOT
ATOM      1  C   UNL     1       1.580   8.053  20.350  0.00  0.00    +0.000 A 
ATOM      2  C   UNL     1       1.684   6.796  20.946  0.00  0.00    +0.000 A 
ATOM      3  C   UNL     1       1.993   5.730  20.121  0.00  0.00    +0.000 A 
ATOM      4  C   UNL     1       2.545   5.881  18.845  0.00  0.00    +0.000 A 
ATOM      5  C   UNL     1       2.415   7.125  18.242  0.00  0.00    +0.000 A 
ATOM      6  C   UNL     1       1.867   8.202  18.981  0.00  0.00    +0.000 A 
ATOM      7 CL   UNL     1       1.321   9.558  18.054  0.00  0.00    +0.000 Cl
ATOM      8  N   UNL     1       2.645   4.623  18.130  0.00  0.00    +0.000 N 
ATOM      9  C   UNL     1       1.389   4.038  18.685  0.00  0.00    +0.000 C 
ATOM     10  C   UNL     1       1.367   4.378  20.190  0.00  0.00    +0.000 C 
ENDROOT
BRANCH   1  11
ATOM     11  S   UNL     1       1.059   9.367  21.403  0.00  0.00    +0.000 S 
ATOM     12  O   UNL     1       0.864  10.596  20.673  0.00  0.00    +0.000 OA
ATOM     13  O   UNL     1       1.866   9.326  22.603  0.00  0.00    +0.000 OA
BRANCH  11  14
ATOM     14  N   UNL     1      -0.475   8.867  21.889  0.00  0.00    +0.000 NA
ATOM     15  H   UNL     1      -0.922   8.347  21.131  0.00  0.00    +0.000 HD
ATOM     16  H   UNL     1      -1.025   9.679  22.192  0.00  0.00    +0.000 HD
ENDBRANCH  11  14
ENDBRANCH   1  11
BRANCH   8  17
ATOM     17  C   UNL     1       3.842   3.797  18.532  0.00  0.00    +0.000 C 
BRANCH  17  18
ATOM     18  C   UNL     1       5.071   4.186  17.709  0.00  0.00    +0.000 A 
ATOM     19  C   UNL     1       5.060   4.032  16.311  0.00  0.00    +0.000 A 
ATOM     20  C   UNL     1       6.222   4.223  15.563  0.00  0.00    +0.000 A 
ATOM     21  C   UNL     1       7.414   4.605  16.188  0.00  0.00    +0.000 A 
ATOM     22  C   UNL     1       7.421   4.823  17.564  0.00  0.00    +0.000 A 
ATOM     23  C   UNL     1       6.267   4.629  18.319  0.00  0.00    +0.000 A 
ENDBRANCH  17  18
ENDBRANCH   8  17
TORSDOF 4
ENDMDL
MODEL 9
REMARK VINA RESULT:      -7.2      4.034      5.272
REMARK  Name = 
REMARK  4 active torsions:
REMARK  status: ('A' for Active; 'I' for Inactive)
REMARK    1  A    between atoms: N_1  and  S_2
REMARK    2  A    between atoms: S_2  and  C_5
REMARK    3  A    between atoms: N_12  and  C_13
REMARK    4  A    between atoms: C_13  and  C_14
REMARK                            x       y       z     vdW  Elec       q    Type
REMARK                         _______ _______ _______ _____ _____    ______ ____
ROOT
ATOM      1  C   UNL     1       1.134   9.006  20.546  0.00  0.00    +0.000 A 
ATOM      2  C   UNL     1       1.487   7.847  21.238  0.00  0.00    +0.000 A 
ATOM      3  C   UNL     1       2.020   6.808  20.496  0.00  0.00    +0.000 A 
ATOM      4  C   UNL     1       2.544   6.972  19.210  0.00  0.00    +0.000 A 
ATOM      5  C   UNL     1       2.167   8.112  18.513  0.00  0.00    +0.000 A 
ATOM      6  C   UNL     1       1.400   9.106  19.168  0.00  0.00    +0.000 A 
ATOM      7 CL   UNL     1       0.598  10.245  18.142  0.00  0.00    +0.000 Cl
ATOM      8  N   UNL     1       2.910   5.711  18.594  0.00  0.00    +0.000 N 
ATOM      9  C   UNL     1       1.795   4.923  19.198  0.00  0.00    +0.000 C 
ATOM     10  C   UNL     1       1.685   5.365  20.672  0.00  0.00    +0.000 C 
ENDROOT
BRANCH   1  11
ATOM     11  S   UNL     1       0.340  10.261  21.497  0.00  0.00    +0.000 S 
ATOM     12  O   UNL     1       0.489  10.036  22.914  0.00  0.00    +0.000 OA
ATOM     13  O   UNL     1      -0.956  10.516  20.909  0.00  0.00    +0.000 OA
BRANCH  11  14
ATOM     14  N   UNL     1       1.259  11.629  21.145  0.00  0.00    +0.000 NA
ATOM     15  H   UNL     1       0.655  12.454  21.129  0.00  0.00    +0.000 HD
ATOM     16  H   UNL     1       1.764  11.490  20.263  0.00  0.00    +0.000 HD
ENDBRANCH  11  14
ENDBRANCH   1  11
BRANCH   8  17
ATOM     17  C   UNL     1       4.247   5.183  19.054  0.00  0.00    +0.000 C 
BRANCH  17  18
ATOM     18  C   UNL     1       5.148   4.872  17.858  0.00  0.00    +0.000 A 
ATOM     19  C   UNL     1       6.532   4.702  18.045  0.00  0.00    +0.000 A 
ATOM     20  C   UNL     1       7.391   4.584  16.953  0.00  0.00    +0.000 A 
ATOM     21  C   UNL     1       6.886   4.601  15.648  0.00  0.00    +0.000 A 
ATOM     22  C   UNL     1       5.511   4.704  15.451  0.00  0.00    +0.000 A 
ATOM     23  C   UNL     1       4.647   4.828  16.537  0.00  0.00    +0.000 A 
ENDBRANCH  17  18
ENDBRANCH   8  17
TORSDOF 4
ENDMDL
