MODEL 1
REMARK VINA RESULT:      -8.4      0.000      0.000
REMARK  Name = 
REMARK  5 active torsions:
REMARK  status: ('A' for Active; 'I' for Inactive)
REMARK    1  A    between atoms: C_1  and  N_2
REMARK    2  A    between atoms: C_5  and  C_6
REMARK    3  A    between atoms: C_13  and  C_15
REMARK    4  A    between atoms: C_25  and  C_26
REMARK    5  A    between atoms: C_25  and  C_27
REMARK                            x       y       z     vdW  Elec       q    Type
REMARK                         _______ _______ _______ _____ _____    ______ ____
ROOT
ATOM      1  C   UNL     1      -1.885  11.765  19.239  0.00  0.00    +0.000 C 
ATOM      2  O   UNL     1      -2.309  12.836  19.642  0.00  0.00    +0.000 OA
ATOM      3  N   UNL     1      -0.819  11.101  19.845  0.00  0.00    +0.000 N 
ATOM      4  C   UNL     1      -0.093   9.967  19.174  0.00  0.00    +0.000 C 
ATOM      5  C   UNL     1       0.676   9.435  20.287  0.00  0.00    +0.000 A 
ATOM      6  C   UNL     1       1.455   8.344  20.653  0.00  0.00    +0.000 A 
ATOM      7  N   UNL     1       1.917   7.311  19.871  0.00  0.00    +0.000 N 
ATOM      8  C   UNL     1       2.551   7.561  18.676  0.00  0.00    +0.000 C 
ATOM      9  O   UNL     1       2.729   8.666  18.171  0.00  0.00    +0.000 OA
ATOM     10  N   UNL     1       1.667   8.347  21.984  0.00  0.00    +0.000 NA
ATOM     11  N   UNL     1       1.150   9.528  22.408  0.00  0.00    +0.000 N 
ATOM     12  C   UNL     1       0.483  10.160  21.419  0.00  0.00    +0.000 A 
ATOM     13  C   UNL     1      -0.381  11.358  21.277  0.00  0.00    +0.000 C 
ATOM     14  C   UNL     1       0.466  12.618  21.499  0.00  0.00    +0.000 C 
ATOM     15  C   UNL     1      -1.570  11.309  22.239  0.00  0.00    +0.000 C 
ATOM     16  H   UNL     1       2.188   6.498  20.401  0.00  0.00    +0.000 HD
ATOM     17  H   UNL     1       1.283   9.800  23.377  0.00  0.00    +0.000 HD
ENDROOT
BRANCH   1  22
ATOM     18  C   UNL     1      -4.325   9.990  14.311  0.00  0.00    +0.000 C 
ATOM     19  N   UNL     1      -3.584  10.674  15.374  0.00  0.00    +0.000 NA
ATOM     20  C   UNL     1      -4.494  11.086  16.447  0.00  0.00    +0.000 C 
ATOM     21  C   UNL     1      -3.736  11.824  17.549  0.00  0.00    +0.000 C 
ATOM     22  C   UNL     1      -2.603  10.959  18.130  0.00  0.00    +0.000 C 
ATOM     23  C   UNL     1      -1.690  10.500  16.994  0.00  0.00    +0.000 C 
ATOM     24  C   UNL     1      -2.503   9.817  15.882  0.00  0.00    +0.000 C 
ENDBRANCH   1  22
BRANCH   8  25
ATOM     25  C   UNL     1       3.113   6.366  17.980  0.00  0.00    +0.000 A 
ATOM     26  C   UNL     1       4.379   6.410  17.378  0.00  0.00    +0.000 A 
ATOM     27  C   UNL     1       4.937   5.248  16.835  0.00  0.00    +0.000 A 
ATOM     28  C   UNL     1       4.230   4.047  16.888  0.00  0.00    +0.000 A 
ATOM     29  C   UNL     1       2.966   4.017  17.467  0.00  0.00    +0.000 A 
ATOM     30  F   UNL     1       2.293   2.860  17.513  0.00  0.00    +0.000 F 
ATOM     31  C   UNL     1       2.400   5.163  18.014  0.00  0.00    +0.000 A 
ENDBRANCH   8  25
TORSDOF 2
ENDMDL
MODEL 2
REMARK VINA RESULT:      -8.3      0.873      1.250
REMARK  Name = 
REMARK  5 active torsions:
REMARK  status: ('A' for Active; 'I' for Inactive)
REMARK    1  A    between atoms: C_1  and  N_2
REMARK    2  A    between atoms: C_5  and  C_6
REMARK    3  A    between atoms: C_13  and  C_15
REMARK    4  A    between atoms: C_25  and  C_26
REMARK    5  A    between atoms: C_25  and  C_27
REMARK                            x       y       z     vdW  Elec       q    Type
REMARK                         _______ _______ _______ _____ _____    ______ ____
ROOT
ATOM      1  C   UNL     1      -1.918  11.789  19.229  0.00  0.00    +0.000 C 
ATOM      2  O   UNL     1      -2.342  12.873  19.597  0.00  0.00    +0.000 OA
ATOM      3  N   UNL     1      -0.870  11.132  19.873  0.00  0.00    +0.000 N 
ATOM      4  C   UNL     1      -0.140   9.977  19.244  0.00  0.00    +0.000 C 
ATOM      5  C   UNL     1       0.603   9.467  20.385  0.00  0.00    +0.000 A 
ATOM      6  C   UNL     1       1.365   8.379  20.792  0.00  0.00    +0.000 A 
ATOM      7  N   UNL     1       1.835   7.323  20.045  0.00  0.00    +0.000 N 
ATOM      8  C   UNL     1       2.495   7.539  18.857  0.00  0.00    +0.000 C 
ATOM      9  O   UNL     1       2.692   8.631  18.330  0.00  0.00    +0.000 OA
ATOM     10  N   UNL     1       1.551   8.412  22.127  0.00  0.00    +0.000 NA
ATOM     11  N   UNL     1       1.034   9.606  22.512  0.00  0.00    +0.000 N 
ATOM     12  C   UNL     1       0.393  10.219  21.495  0.00  0.00    +0.000 A 
ATOM     13  C   UNL     1      -0.459  11.420  21.306  0.00  0.00    +0.000 C 
ATOM     14  C   UNL     1       0.394  12.679  21.516  0.00  0.00    +0.000 C 
ATOM     15  C   UNL     1      -1.667  11.403  22.245  0.00  0.00    +0.000 C 
ATOM     16  H   UNL     1       2.089   6.522  20.600  0.00  0.00    +0.000 HD
ATOM     17  H   UNL     1       1.150   9.901  23.476  0.00  0.00    +0.000 HD
ENDROOT
BRANCH   1  22
ATOM     18  C   UNL     1      -4.310   9.930  14.308  0.00  0.00    +0.000 C 
ATOM     19  N   UNL     1      -3.584  10.635  15.368  0.00  0.00    +0.000 NA
ATOM     20  C   UNL     1      -4.504  11.047  16.432  0.00  0.00    +0.000 C 
ATOM     21  C   UNL     1      -3.761  11.806  17.529  0.00  0.00    +0.000 C 
ATOM     22  C   UNL     1      -2.619  10.962  18.125  0.00  0.00    +0.000 C 
ATOM     23  C   UNL     1      -1.695  10.504  16.998  0.00  0.00    +0.000 C 
ATOM     24  C   UNL     1      -2.494   9.798  15.890  0.00  0.00    +0.000 C 
ENDBRANCH   1  22
BRANCH   8  25
ATOM     25  C   UNL     1       3.061   6.325  18.202  0.00  0.00    +0.000 A 
ATOM     26  C   UNL     1       2.381   5.099  18.241  0.00  0.00    +0.000 A 
ATOM     27  C   UNL     1       2.869   4.003  17.521  0.00  0.00    +0.000 A 
ATOM     28  C   UNL     1       4.037   4.130  16.768  0.00  0.00    +0.000 A 
ATOM     29  C   UNL     1       4.717   5.343  16.753  0.00  0.00    +0.000 A 
ATOM     30  F   UNL     1       5.838   5.457  16.029  0.00  0.00    +0.000 F 
ATOM     31  C   UNL     1       4.242   6.441  17.460  0.00  0.00    +0.000 A 
ENDBRANCH   8  25
TORSDOF 2
ENDMDL
MODEL 3
REMARK VINA RESULT:      -8.0      3.062      5.465
REMARK  Name = 
REMARK  5 active torsions:
REMARK  status: ('A' for Active; 'I' for Inactive)
REMARK    1  A    between atoms: C_1  and  N_2
REMARK    2  A    between atoms: C_5  and  C_6
REMARK    3  A    between atoms: C_13  and  C_15
REMARK    4  A    between atoms: C_25  and  C_26
REMARK    5  A    between atoms: C_25  and  C_27
REMARK                            x       y       z     vdW  Elec       q    Type
REMARK                         _______ _______ _______ _____ _____    ______ ____
ROOT
ATOM      1  C   UNL     1       1.443  13.783  21.208  0.00  0.00    +0.000 C 
ATOM      2  O   UNL     1       0.861  14.614  21.886  0.00  0.00    +0.000 OA
ATOM      3  N   UNL     1       0.783  12.725  20.583  0.00  0.00    +0.000 N 
ATOM      4  C   UNL     1       1.518  11.536  20.027  0.00  0.00    +0.000 C 
ATOM      5  C   UNL     1       0.470  10.909  19.239  0.00  0.00    +0.000 A 
ATOM      6  C   UNL     1       0.267   9.920  18.284  0.00  0.00    +0.000 A 
ATOM      7  N   UNL     1       1.153   8.980  17.810  0.00  0.00    +0.000 N 
ATOM      8  C   UNL     1       1.893   8.209  18.676  0.00  0.00    +0.000 C 
ATOM      9  O   UNL     1       1.887   8.293  19.902  0.00  0.00    +0.000 OA
ATOM     10  N   UNL     1      -0.968  10.027  17.755  0.00  0.00    +0.000 NA
ATOM     11  N   UNL     1      -1.575  10.985  18.502  0.00  0.00    +0.000 N 
ATOM     12  C   UNL     1      -0.706  11.579  19.346  0.00  0.00    +0.000 A 
ATOM     13  C   UNL     1      -0.706  12.732  20.281  0.00  0.00    +0.000 C 
ATOM     14  C   UNL     1      -1.629  12.417  21.466  0.00  0.00    +0.000 C 
ATOM     15  C   UNL     1      -1.124  14.024  19.577  0.00  0.00    +0.000 C 
ATOM     16  H   UNL     1       0.882   8.586  16.923  0.00  0.00    +0.000 HD
ATOM     17  H   UNL     1      -2.561  11.171  18.350  0.00  0.00    +0.000 HD
ENDROOT
BRANCH   1  22
ATOM     18  C   UNL     1       6.669  15.756  19.731  0.00  0.00    +0.000 C 
ATOM     19  N   UNL     1       5.284  15.567  20.168  0.00  0.00    +0.000 NA
ATOM     20  C   UNL     1       4.493  14.939  19.105  0.00  0.00    +0.000 C 
ATOM     21  C   UNL     1       3.040  14.762  19.541  0.00  0.00    +0.000 C 
ATOM     22  C   UNL     1       2.937  13.926  20.830  0.00  0.00    +0.000 C 
ATOM     23  C   UNL     1       3.802  14.568  21.914  0.00  0.00    +0.000 C 
ATOM     24  C   UNL     1       5.239  14.782  21.410  0.00  0.00    +0.000 C 
ENDBRANCH   1  22
BRANCH   8  25
ATOM     25  C   UNL     1       2.727   7.145  18.045  0.00  0.00    +0.000 A 
ATOM     26  C   UNL     1       3.921   7.462  17.380  0.00  0.00    +0.000 A 
ATOM     27  C   UNL     1       4.746   6.441  16.899  0.00  0.00    +0.000 A 
ATOM     28  C   UNL     1       4.378   5.107  17.076  0.00  0.00    +0.000 A 
ATOM     29  C   UNL     1       3.183   4.802  17.717  0.00  0.00    +0.000 A 
ATOM     30  F   UNL     1       2.835   3.520  17.882  0.00  0.00    +0.000 F 
ATOM     31  C   UNL     1       2.353   5.806  18.204  0.00  0.00    +0.000 A 
ENDBRANCH   8  25
TORSDOF 2
ENDMDL
MODEL 4
REMARK VINA RESULT:      -8.0      3.250      5.676
REMARK  Name = 
REMARK  5 active torsions:
REMARK  status: ('A' for Active; 'I' for Inactive)
REMARK    1  A    between atoms: C_1  and  N_2
REMARK    2  A    between atoms: C_5  and  C_6
REMARK    3  A    between atoms: C_13  and  C_15
REMARK    4  A    between atoms: C_25  and  C_26
REMARK    5  A    between atoms: C_25  and  C_27
REMARK                            x       y       z     vdW  Elec       q    Type
REMARK                         _______ _______ _______ _____ _____    ______ ____
ROOT
ATOM      1  C   UNL     1       1.506  13.828  21.141  0.00  0.00    +0.000 C 
ATOM      2  O   UNL     1       0.915  14.693  21.767  0.00  0.00    +0.000 OA
ATOM      3  N   UNL     1       0.849  12.763  20.524  0.00  0.00    +0.000 N 
ATOM      4  C   UNL     1       1.580  11.541  20.038  0.00  0.00    +0.000 C 
ATOM      5  C   UNL     1       0.553  10.910  19.227  0.00  0.00    +0.000 A 
ATOM      6  C   UNL     1       0.368   9.894  18.297  0.00  0.00    +0.000 A 
ATOM      7  N   UNL     1       1.252   8.921  17.892  0.00  0.00    +0.000 N 
ATOM      8  C   UNL     1       1.938   8.164  18.813  0.00  0.00    +0.000 C 
ATOM      9  O   UNL     1       1.883   8.290  20.033  0.00  0.00    +0.000 OA
ATOM     10  N   UNL     1      -0.842  10.009  17.713  0.00  0.00    +0.000 NA
ATOM     11  N   UNL     1      -1.457  11.003  18.402  0.00  0.00    +0.000 N 
ATOM     12  C   UNL     1      -0.611  11.608  19.262  0.00  0.00    +0.000 A 
ATOM     13  C   UNL     1      -0.625  12.791  20.159  0.00  0.00    +0.000 C 
ATOM     14  C   UNL     1      -1.603  12.535  21.313  0.00  0.00    +0.000 C 
ATOM     15  C   UNL     1      -0.985  14.067  19.396  0.00  0.00    +0.000 C 
ATOM     16  H   UNL     1       1.009   8.503  17.007  0.00  0.00    +0.000 HD
ATOM     17  H   UNL     1      -2.432  11.205  18.202  0.00  0.00    +0.000 HD
ENDROOT
BRANCH   1  22
ATOM     18  C   UNL     1       6.849  15.651  19.907  0.00  0.00    +0.000 C 
ATOM     19  N   UNL     1       5.442  15.500  20.288  0.00  0.00    +0.000 NA
ATOM     20  C   UNL     1       4.671  14.925  19.181  0.00  0.00    +0.000 C 
ATOM     21  C   UNL     1       3.198  14.788  19.559  0.00  0.00    +0.000 C 
ATOM     22  C   UNL     1       3.017  13.927  20.823  0.00  0.00    +0.000 C 
ATOM     23  C   UNL     1       3.862  14.513  21.953  0.00  0.00    +0.000 C 
ATOM     24  C   UNL     1       5.323  14.688  21.508  0.00  0.00    +0.000 C 
ENDBRANCH   1  22
BRANCH   8  25
ATOM     25  C   UNL     1       2.774   7.063  18.252  0.00  0.00    +0.000 A 
ATOM     26  C   UNL     1       2.386   5.722  18.385  0.00  0.00    +0.000 A 
ATOM     27  C   UNL     1       3.120   4.714  17.752  0.00  0.00    +0.000 A 
ATOM     28  C   UNL     1       4.241   5.044  16.990  0.00  0.00    +0.000 A 
ATOM     29  C   UNL     1       4.632   6.374  16.881  0.00  0.00    +0.000 A 
ATOM     30  F   UNL     1       5.710   6.683  16.150  0.00  0.00    +0.000 F 
ATOM     31  C   UNL     1       3.910   7.387  17.503  0.00  0.00    +0.000 A 
ENDBRANCH   8  25
TORSDOF 2
ENDMDL
MODEL 5
REMARK VINA RESULT:      -8.0      3.987      6.255
REMARK  Name = 
REMARK  5 active torsions:
REMARK  status: ('A' for Active; 'I' for Inactive)
REMARK    1  A    between atoms: C_1  and  N_2
REMARK    2  A    between atoms: C_5  and  C_6
REMARK    3  A    between atoms: C_13  and  C_15
REMARK    4  A    between atoms: C_25  and  C_26
REMARK    5  A    between atoms: C_25  and  C_27
REMARK                            x       y       z     vdW  Elec       q    Type
REMARK                         _______ _______ _______ _____ _____    ______ ____
ROOT
ATOM      1  C   UNL     1       2.299  15.353  20.185  0.00  0.00    +0.000 C 
ATOM      2  O   UNL     1       1.986  16.494  20.484  0.00  0.00    +0.000 OA
ATOM      3  N   UNL     1       1.360  14.342  19.985  0.00  0.00    +0.000 N 
ATOM      4  C   UNL     1       1.742  12.888  19.940  0.00  0.00    +0.000 C 
ATOM      5  C   UNL     1       0.522  12.298  19.415  0.00  0.00    +0.000 A 
ATOM      6  C   UNL     1       0.019  11.111  18.897  0.00  0.00    +0.000 A 
ATOM      7  N   UNL     1       0.614   9.872  18.837  0.00  0.00    +0.000 N 
ATOM      8  C   UNL     1       1.202   9.319  19.951  0.00  0.00    +0.000 C 
ATOM      9  O   UNL     1       1.300   9.850  21.054  0.00  0.00    +0.000 OA
ATOM     10  N   UNL     1      -1.186  11.322  18.330  0.00  0.00    +0.000 NA
ATOM     11  N   UNL     1      -1.488  12.608  18.643  0.00  0.00    +0.000 N 
ATOM     12  C   UNL     1      -0.444  13.234  19.227  0.00  0.00    +0.000 A 
ATOM     13  C   UNL     1      -0.099  14.611  19.659  0.00  0.00    +0.000 C 
ATOM     14  C   UNL     1      -0.988  15.002  20.847  0.00  0.00    +0.000 C 
ATOM     15  C   UNL     1      -0.237  15.610  18.508  0.00  0.00    +0.000 C 
ATOM     16  H   UNL     1       0.195   9.259  18.156  0.00  0.00    +0.000 HD
ATOM     17  H   UNL     1      -2.407  12.966  18.403  0.00  0.00    +0.000 HD
ENDROOT
BRANCH   1  22
ATOM     18  C   UNL     1       7.746  15.265  18.257  0.00  0.00    +0.000 C 
ATOM     19  N   UNL     1       6.388  15.605  18.692  0.00  0.00    +0.000 NA
ATOM     20  C   UNL     1       5.398  14.870  17.900  0.00  0.00    +0.000 C 
ATOM     21  C   UNL     1       3.979  15.237  18.327  0.00  0.00    +0.000 C 
ATOM     22  C   UNL     1       3.753  14.965  19.826  0.00  0.00    +0.000 C 
ATOM     23  C   UNL     1       4.820  15.702  20.634  0.00  0.00    +0.000 C 
ATOM     24  C   UNL     1       6.229  15.347  20.130  0.00  0.00    +0.000 C 
ENDBRANCH   1  22
BRANCH   8  25
ATOM     25  C   UNL     1       1.705   7.923  19.791  0.00  0.00    +0.000 A 
ATOM     26  C   UNL     1       1.436   6.943  20.757  0.00  0.00    +0.000 A 
ATOM     27  C   UNL     1       1.815   5.615  20.532  0.00  0.00    +0.000 A 
ATOM     28  C   UNL     1       2.465   5.269  19.348  0.00  0.00    +0.000 A 
ATOM     29  C   UNL     1       2.747   6.251  18.405  0.00  0.00    +0.000 A 
ATOM     30  F   UNL     1       3.373   5.911  17.270  0.00  0.00    +0.000 F 
ATOM     31  C   UNL     1       2.374   7.574  18.613  0.00  0.00    +0.000 A 
ENDBRANCH   8  25
TORSDOF 2
ENDMDL
MODEL 6
REMARK VINA RESULT:      -8.0      4.029      6.229
REMARK  Name = 
REMARK  5 active torsions:
REMARK  status: ('A' for Active; 'I' for Inactive)
REMARK    1  A    between atoms: C_1  and  N_2
REMARK    2  A    between atoms: C_5  and  C_6
REMARK    3  A    between atoms: C_13  and  C_15
REMARK    4  A    between atoms: C_25  and  C_26
REMARK    5  A    between atoms: C_25  and  C_27
REMARK                            x       y       z     vdW  Elec       q    Type
REMARK                         _______ _______ _______ _____ _____    ______ ____
ROOT
ATOM      1  C   UNL     1       2.309  15.339  20.218  0.00  0.00    +0.000 C 
ATOM      2  O   UNL     1       1.996  16.464  20.570  0.00  0.00    +0.000 OA
ATOM      3  N   UNL     1       1.369  14.338  19.974  0.00  0.00    +0.000 N 
ATOM      4  C   UNL     1       1.752  12.887  19.860  0.00  0.00    +0.000 C 
ATOM      5  C   UNL     1       0.530  12.322  19.312  0.00  0.00    +0.000 A 
ATOM      6  C   UNL     1       0.026  11.160  18.740  0.00  0.00    +0.000 A 
ATOM      7  N   UNL     1       0.621   9.925  18.622  0.00  0.00    +0.000 N 
ATOM      8  C   UNL     1       1.212   9.321  19.707  0.00  0.00    +0.000 C 
ATOM      9  O   UNL     1       1.313   9.801  20.833  0.00  0.00    +0.000 OA
ATOM     10  N   UNL     1      -1.180  11.397  18.187  0.00  0.00    +0.000 NA
ATOM     11  N   UNL     1      -1.482  12.666  18.561  0.00  0.00    +0.000 N 
ATOM     12  C   UNL     1      -0.437  13.265  19.170  0.00  0.00    +0.000 A 
ATOM     13  C   UNL     1      -0.091  14.621  19.665  0.00  0.00    +0.000 C 
ATOM     14  C   UNL     1      -0.976  14.956  20.873  0.00  0.00    +0.000 C 
ATOM     15  C   UNL     1      -0.231  15.672  18.562  0.00  0.00    +0.000 C 
ATOM     16  H   UNL     1       0.201   9.344  17.914  0.00  0.00    +0.000 HD
ATOM     17  H   UNL     1      -2.401  13.035  18.340  0.00  0.00    +0.000 HD
ENDROOT
BRANCH   1  22
ATOM     18  C   UNL     1       7.746  15.337  18.260  0.00  0.00    +0.000 C 
ATOM     19  N   UNL     1       6.390  15.657  18.714  0.00  0.00    +0.000 NA
ATOM     20  C   UNL     1       5.397  14.949  17.901  0.00  0.00    +0.000 C 
ATOM     21  C   UNL     1       3.979  15.296  18.349  0.00  0.00    +0.000 C 
ATOM     22  C   UNL     1       3.762  14.968  19.838  0.00  0.00    +0.000 C 
ATOM     23  C   UNL     1       4.832  15.677  20.667  0.00  0.00    +0.000 C 
ATOM     24  C   UNL     1       6.239  15.345  20.143  0.00  0.00    +0.000 C 
ENDBRANCH   1  22
BRANCH   8  25
ATOM     25  C   UNL     1       1.716   7.935  19.481  0.00  0.00    +0.000 A 
ATOM     26  C   UNL     1       2.360   7.586  18.285  0.00  0.00    +0.000 A 
ATOM     27  C   UNL     1       2.929   6.317  18.140  0.00  0.00    +0.000 A 
ATOM     28  C   UNL     1       2.849   5.396  19.185  0.00  0.00    +0.000 A 
ATOM     29  C   UNL     1       2.190   5.742  20.359  0.00  0.00    +0.000 A 
ATOM     30  F   UNL     1       2.116   4.852  21.357  0.00  0.00    +0.000 F 
ATOM     31  C   UNL     1       1.623   7.001  20.519  0.00  0.00    +0.000 A 
ENDBRANCH   8  25
TORSDOF 2
ENDMDL
MODEL 7
REMARK VINA RESULT:      -7.9      1.013      1.048
REMARK  Name = 
REMARK  5 active torsions:
REMARK  status: ('A' for Active; 'I' for Inactive)
REMARK    1  A    between atoms: C_1  and  N_2
REMARK    2  A    between atoms: C_5  and  C_6
REMARK    3  A    between atoms: C_13  and  C_15
REMARK    4  A    between atoms: C_25  and  C_26
REMARK    5  A    between atoms: C_25  and  C_27
REMARK                            x       y       z     vdW  Elec       q    Type
REMARK                         _______ _______ _______ _____ _____    ______ ____
ROOT
ATOM      1  C   UNL     1      -1.946  11.932  19.242  0.00  0.00    +0.000 C 
ATOM      2  O   UNL     1      -2.334  13.064  19.485  0.00  0.00    +0.000 OA
ATOM      3  N   UNL     1      -0.998  11.277  20.028  0.00  0.00    +0.000 N 
ATOM      4  C   UNL     1      -0.287  10.037  19.560  0.00  0.00    +0.000 C 
ATOM      5  C   UNL     1       0.323   9.585  20.800  0.00  0.00    +0.000 A 
ATOM      6  C   UNL     1       0.981   8.496  21.359  0.00  0.00    +0.000 A 
ATOM      7  N   UNL     1       1.450   7.359  20.742  0.00  0.00    +0.000 N 
ATOM      8  C   UNL     1       2.221   7.441  19.606  0.00  0.00    +0.000 C 
ATOM      9  O   UNL     1       2.528   8.473  19.016  0.00  0.00    +0.000 OA
ATOM     10  N   UNL     1       1.053   8.630  22.698  0.00  0.00    +0.000 NA
ATOM     11  N   UNL     1       0.577   9.878  22.940  0.00  0.00    +0.000 N 
ATOM     12  C   UNL     1       0.063  10.437  21.824  0.00  0.00    +0.000 A 
ATOM     13  C   UNL     1      -0.696  11.662  21.466  0.00  0.00    +0.000 C 
ATOM     14  C   UNL     1       0.209  12.886  21.653  0.00  0.00    +0.000 C 
ATOM     15  C   UNL     1      -1.979  11.786  22.289  0.00  0.00    +0.000 C 
ATOM     16  H   UNL     1       1.606   6.594  21.379  0.00  0.00    +0.000 HD
ATOM     17  H   UNL     1       0.626  10.245  23.885  0.00  0.00    +0.000 HD
ENDROOT
BRANCH   1  22
ATOM     18  C   UNL     1      -4.270   9.900  14.357  0.00  0.00    +0.000 C 
ATOM     19  N   UNL     1      -3.584  10.659  15.407  0.00  0.00    +0.000 NA
ATOM     20  C   UNL     1      -4.515  10.989  16.491  0.00  0.00    +0.000 C 
ATOM     21  C   UNL     1      -3.816  11.803  17.577  0.00  0.00    +0.000 C 
ATOM     22  C   UNL     1      -2.597  11.054  18.147  0.00  0.00    +0.000 C 
ATOM     23  C   UNL     1      -1.660  10.678  17.001  0.00  0.00    +0.000 C 
ATOM     24  C   UNL     1      -2.419   9.913  15.904  0.00  0.00    +0.000 C 
ENDBRANCH   1  22
BRANCH   8  25
ATOM     25  C   UNL     1       2.769   6.148  19.102  0.00  0.00    +0.000 A 
ATOM     26  C   UNL     1       3.317   6.048  17.815  0.00  0.00    +0.000 A 
ATOM     27  C   UNL     1       3.931   4.860  17.405  0.00  0.00    +0.000 A 
ATOM     28  C   UNL     1       3.992   3.772  18.276  0.00  0.00    +0.000 A 
ATOM     29  C   UNL     1       3.427   3.872  19.542  0.00  0.00    +0.000 A 
ATOM     30  F   UNL     1       3.488   2.823  20.373  0.00  0.00    +0.000 F 
ATOM     31  C   UNL     1       2.816   5.048  19.965  0.00  0.00    +0.000 A 
ENDBRANCH   8  25
TORSDOF 2
ENDMDL
MODEL 8
REMARK VINA RESULT:      -7.8      1.293      1.717
REMARK  Name = 
REMARK  5 active torsions:
REMARK  status: ('A' for Active; 'I' for Inactive)
REMARK    1  A    between atoms: C_1  and  N_2
REMARK    2  A    between atoms: C_5  and  C_6
REMARK    3  A    between atoms: C_13  and  C_15
REMARK    4  A    between atoms: C_25  and  C_26
REMARK    5  A    between atoms: C_25  and  C_27
REMARK                            x       y       z     vdW  Elec       q    Type
REMARK                         _______ _______ _______ _____ _____    ______ ____
ROOT
ATOM      1  C   UNL     1      -2.198  12.123  19.304  0.00  0.00    +0.000 C 
ATOM      2  O   UNL     1      -2.566  13.276  19.459  0.00  0.00    +0.000 OA
ATOM      3  N   UNL     1      -1.368  11.469  20.214  0.00  0.00    +0.000 N 
ATOM      4  C   UNL     1      -0.659  10.186  19.876  0.00  0.00    +0.000 C 
ATOM      5  C   UNL     1      -0.206   9.766  21.192  0.00  0.00    +0.000 A 
ATOM      6  C   UNL     1       0.344   8.680  21.862  0.00  0.00    +0.000 A 
ATOM      7  N   UNL     1       0.833   7.502  21.345  0.00  0.00    +0.000 N 
ATOM      8  C   UNL     1       1.726   7.509  20.299  0.00  0.00    +0.000 C 
ATOM      9  O   UNL     1       2.135   8.503  19.706  0.00  0.00    +0.000 OA
ATOM     10  N   UNL     1       0.275   8.869  23.195  0.00  0.00    +0.000 NA
ATOM     11  N   UNL     1      -0.175  10.142  23.334  0.00  0.00    +0.000 N 
ATOM     12  C   UNL     1      -0.542  10.670  22.148  0.00  0.00    +0.000 A 
ATOM     13  C   UNL     1      -1.209  11.904  21.661  0.00  0.00    +0.000 C 
ATOM     14  C   UNL     1      -0.282  13.103  21.900  0.00  0.00    +0.000 C 
ATOM     15  C   UNL     1      -2.568  12.108  22.333  0.00  0.00    +0.000 C 
ATOM     16  H   UNL     1       0.889   6.760  22.024  0.00  0.00    +0.000 HD
ATOM     17  H   UNL     1      -0.215  10.547  24.264  0.00  0.00    +0.000 HD
ENDROOT
BRANCH   1  22
ATOM     18  C   UNL     1      -4.168  10.002  14.303  0.00  0.00    +0.000 C 
ATOM     19  N   UNL     1      -3.566  10.784  15.386  0.00  0.00    +0.000 NA
ATOM     20  C   UNL     1      -4.569  11.101  16.407  0.00  0.00    +0.000 C 
ATOM     21  C   UNL     1      -3.958  11.939  17.528  0.00  0.00    +0.000 C 
ATOM     22  C   UNL     1      -2.760  11.222  18.179  0.00  0.00    +0.000 C 
ATOM     23  C   UNL     1      -1.745  10.859  17.096  0.00  0.00    +0.000 C 
ATOM     24  C   UNL     1      -2.418  10.068  15.961  0.00  0.00    +0.000 C 
ENDBRANCH   1  22
BRANCH   8  25
ATOM     25  C   UNL     1       2.273   6.177  19.908  0.00  0.00    +0.000 A 
ATOM     26  C   UNL     1       2.123   5.060  20.743  0.00  0.00    +0.000 A 
ATOM     27  C   UNL     1       2.538   3.798  20.306  0.00  0.00    +0.000 A 
ATOM     28  C   UNL     1       3.107   3.652  19.041  0.00  0.00    +0.000 A 
ATOM     29  C   UNL     1       3.273   4.768  18.228  0.00  0.00    +0.000 A 
ATOM     30  F   UNL     1       3.822   4.621  17.015  0.00  0.00    +0.000 F 
ATOM     31  C   UNL     1       2.862   6.028  18.647  0.00  0.00    +0.000 A 
ENDBRANCH   8  25
TORSDOF 2
ENDMDL
MODEL 9
REMARK VINA RESULT:      -7.6      6.582      7.893
REMARK  Name = 
REMARK  5 active torsions:
REMARK  status: ('A' for Active; 'I' for Inactive)
REMARK    1  A    between atoms: C_1  and  N_2
REMARK    2  A    between atoms: C_5  and  C_6
REMARK    3  A    between atoms: C_13  and  C_15
REMARK    4  A    between atoms: C_25  and  C_26
REMARK    5  A    between atoms: C_25  and  C_27
REMARK                            x       y       z     vdW  Elec       q    Type
REMARK                         _______ _______ _______ _____ _____    ______ ____
ROOT
ATOM      1  C   UNL     1       1.546  14.271  18.791  0.00  0.00    +0.000 C 
ATOM      2  O   UNL     1       0.482  14.804  18.520  0.00  0.00    +0.000 OA
ATOM      3  N   UNL     1       2.764  14.946  18.724  0.00  0.00    +0.000 N 
ATOM      4  C   UNL     1       4.084  14.223  18.739  0.00  0.00    +0.000 C 
ATOM      5  C   UNL     1       5.000  15.329  18.963  0.00  0.00    +0.000 A 
ATOM      6  C   UNL     1       6.325  15.601  19.282  0.00  0.00    +0.000 A 
ATOM      7  N   UNL     1       7.390  14.733  19.369  0.00  0.00    +0.000 N 
ATOM      8  C   UNL     1       7.653  13.837  18.358  0.00  0.00    +0.000 C 
ATOM      9  O   UNL     1       6.985  13.683  17.339  0.00  0.00    +0.000 OA
ATOM     10  N   UNL     1       6.471  16.900  19.609  0.00  0.00    +0.000 NA
ATOM     11  N   UNL     1       5.263  17.456  19.336  0.00  0.00    +0.000 N 
ATOM     12  C   UNL     1       4.346  16.517  19.021  0.00  0.00    +0.000 A 
ATOM     13  C   UNL     1       2.884  16.459  18.769  0.00  0.00    +0.000 C 
ATOM     14  C   UNL     1       2.571  17.193  17.458  0.00  0.00    +0.000 C 
ATOM     15  C   UNL     1       2.091  17.045  19.938  0.00  0.00    +0.000 C 
ATOM     16  H   UNL     1       8.161  15.097  19.905  0.00  0.00    +0.000 HD
ATOM     17  H   UNL     1       5.160  18.463  19.412  0.00  0.00    +0.000 HD
ENDROOT
BRANCH   1  22
ATOM     18  C   UNL     1       0.365   9.042  20.947  0.00  0.00    +0.000 C 
ATOM     19  N   UNL     1       0.358  10.355  20.298  0.00  0.00    +0.000 NA
ATOM     20  C   UNL     1       0.689  11.406  21.265  0.00  0.00    +0.000 C 
ATOM     21  C   UNL     1       0.660  12.782  20.603  0.00  0.00    +0.000 C 
ATOM     22  C   UNL     1       1.625  12.853  19.405  0.00  0.00    +0.000 C 
ATOM     23  C   UNL     1       1.295  11.724  18.430  0.00  0.00    +0.000 C 
ATOM     24  C   UNL     1       1.278  10.366  19.151  0.00  0.00    +0.000 C 
ENDBRANCH   1  22
BRANCH   8  25
ATOM     25  C   UNL     1       8.901  13.035  18.513  0.00  0.00    +0.000 A 
ATOM     26  C   UNL     1       9.687  12.698  17.401  0.00  0.00    +0.000 A 
ATOM     27  C   UNL     1      10.913  12.049  17.581  0.00  0.00    +0.000 A 
ATOM     28  C   UNL     1      11.351  11.732  18.867  0.00  0.00    +0.000 A 
ATOM     29  C   UNL     1      10.555  12.051  19.962  0.00  0.00    +0.000 A 
ATOM     30  F   UNL     1      10.981  11.742  21.194  0.00  0.00    +0.000 F 
ATOM     31  C   UNL     1       9.336  12.699  19.800  0.00  0.00    +0.000 A 
ENDBRANCH   8  25
TORSDOF 2
ENDMDL
