MODEL 1
REMARK VINA RESULT:      -6.9      0.000      0.000
REMARK  Name = 
REMARK  9 active torsions:
REMARK  status: ('A' for Active; 'I' for Inactive)
REMARK    1  A    between atoms: C_1  and  O_2
REMARK    2  A    between atoms: O_2  and  C_3
REMARK    3  A    between atoms: C_3  and  C_5
REMARK    4  A    between atoms: C_8  and  N_9
REMARK    5  A    between atoms: C_10  and  C_12
REMARK    6  A    between atoms: C_12  and  N_13
REMARK    7  A    between atoms: N_13  and  C_14
REMARK    8  A    between atoms: N_13  and  C_15
REMARK    9  A    between atoms: C_15  and  C_16
REMARK                            x       y       z     vdW  Elec       q    Type
REMARK                         _______ _______ _______ _____ _____    ______ ____
ROOT
ATOM      1  N   UNL     1       2.709   5.659  20.240  0.00  0.00    +0.000 N 
ATOM      2  C   UNL     1       2.141   4.434  19.931  0.00  0.00    +0.000 C 
ATOM      3  O   UNL     1       1.141   4.246  19.241  0.00  0.00    +0.000 OA
ATOM      4  H   UNL     1       3.542   5.605  20.820  0.00  0.00    +0.000 HD
ENDROOT
BRANCH   1   8
ATOM      5  C   UNL     1       1.181   9.499  19.294  0.00  0.00    +0.000 A 
ATOM      6  C   UNL     1       1.935   8.797  18.353  0.00  0.00    +0.000 A 
ATOM      7  C   UNL     1       2.442   7.529  18.654  0.00  0.00    +0.000 A 
ATOM      8  C   UNL     1       2.212   6.933  19.894  0.00  0.00    +0.000 A 
ATOM      9  C   UNL     1       1.443   7.631  20.834  0.00  0.00    +0.000 A 
ATOM     10  C   UNL     1       0.931   8.909  20.539  0.00  0.00    +0.000 A 
BRANCH   5  11
ATOM     11  C   UNL     1       0.676  10.843  18.901  0.00  0.00    +0.000 C 
ATOM     12  O   UNL     1       1.399  11.735  18.483  0.00  0.00    +0.000 OA
BRANCH  11  14
ATOM     13  C   UNL     1      -1.407  10.435  17.949  0.00  0.00    +0.000 C 
ATOM     14  O   UNL     1      -0.667  10.928  19.067  0.00  0.00    +0.000 OA
ENDBRANCH  11  14
ENDBRANCH   5  11
ENDBRANCH   1   8
BRANCH   2  15
ATOM     15  C   UNL     1       2.902   3.223  20.479  0.00  0.00    +0.000 C 
BRANCH  15  16
ATOM     16  N   UNL     1       4.271   3.067  19.915  0.00  0.00    +0.000 NA
ATOM     17  C   UNL     1       4.761   1.693  20.141  0.00  0.00    +0.000 C 
BRANCH  16  18
ATOM     18  C   UNL     1       4.209   3.271  18.445  0.00  0.00    +0.000 C 
BRANCH  18  19
ATOM     19  C   UNL     1       5.019   4.441  17.928  0.00  0.00    +0.000 A 
ATOM     20  C   UNL     1       6.170   4.870  18.612  0.00  0.00    +0.000 A 
ATOM     21  C   UNL     1       6.870   6.005  18.193  0.00  0.00    +0.000 A 
ATOM     22  C   UNL     1       6.429   6.720  17.082  0.00  0.00    +0.000 A 
ATOM     23  C   UNL     1       5.303   6.285  16.391  0.00  0.00    +0.000 A 
ATOM     24  F   UNL     1       4.881   6.972  15.322  0.00  0.00    +0.000 F 
ATOM     25  C   UNL     1       4.600   5.156  16.799  0.00  0.00    +0.000 A 
ENDBRANCH  18  19
ENDBRANCH  16  18
ENDBRANCH  15  16
ENDBRANCH   2  15
TORSDOF 7
ENDMDL
MODEL 2
REMARK VINA RESULT:      -6.9      0.547      1.438
REMARK  Name = 
REMARK  9 active torsions:
REMARK  status: ('A' for Active; 'I' for Inactive)
REMARK    1  A    between atoms: C_1  and  O_2
REMARK    2  A    between atoms: O_2  and  C_3
REMARK    3  A    between atoms: C_3  and  C_5
REMARK    4  A    between atoms: C_8  and  N_9
REMARK    5  A    between atoms: C_10  and  C_12
REMARK    6  A    between atoms: C_12  and  N_13
REMARK    7  A    between atoms: N_13  and  C_14
REMARK    8  A    between atoms: N_13  and  C_15
REMARK    9  A    between atoms: C_15  and  C_16
REMARK                            x       y       z     vdW  Elec       q    Type
REMARK                         _______ _______ _______ _____ _____    ______ ____
ROOT
ATOM      1  N   UNL     1       2.636   5.687  20.309  0.00  0.00    +0.000 N 
ATOM      2  C   UNL     1       2.053   4.470  19.992  0.00  0.00    +0.000 C 
ATOM      3  O   UNL     1       1.042   4.300  19.314  0.00  0.00    +0.000 OA
ATOM      4  H   UNL     1       3.476   5.619  20.876  0.00  0.00    +0.000 HD
ENDROOT
BRANCH   1   8
ATOM      5  C   UNL     1       1.193   9.530  19.247  0.00  0.00    +0.000 A 
ATOM      6  C   UNL     1       0.954   9.023  20.525  0.00  0.00    +0.000 A 
ATOM      7  C   UNL     1       1.427   7.758  20.886  0.00  0.00    +0.000 A 
ATOM      8  C   UNL     1       2.145   6.969  19.987  0.00  0.00    +0.000 A 
ATOM      9  C   UNL     1       2.398   7.483  18.708  0.00  0.00    +0.000 A 
ATOM     10  C   UNL     1       1.922   8.756  18.336  0.00  0.00    +0.000 A 
BRANCH   5  11
ATOM     11  C   UNL     1       0.657  10.883  18.936  0.00  0.00    +0.000 C 
ATOM     12  O   UNL     1      -0.397  11.068  18.345  0.00  0.00    +0.000 OA
BRANCH  11  14
ATOM     13  C   UNL     1       2.056  12.648  18.352  0.00  0.00    +0.000 C 
ATOM     14  O   UNL     1       1.485  11.854  19.394  0.00  0.00    +0.000 OA
ENDBRANCH  11  14
ENDBRANCH   5  11
ENDBRANCH   1   8
BRANCH   2  15
ATOM     15  C   UNL     1       2.812   3.247  20.514  0.00  0.00    +0.000 C 
BRANCH  15  16
ATOM     16  N   UNL     1       4.200   3.131  19.990  0.00  0.00    +0.000 NA
ATOM     17  C   UNL     1       4.745   1.790  20.282  0.00  0.00    +0.000 C 
BRANCH  16  18
ATOM     18  C   UNL     1       4.169   3.277  18.513  0.00  0.00    +0.000 C 
BRANCH  18  19
ATOM     19  C   UNL     1       4.981   4.432  17.968  0.00  0.00    +0.000 A 
ATOM     20  C   UNL     1       6.095   4.918  18.674  0.00  0.00    +0.000 A 
ATOM     21  C   UNL     1       6.794   6.042  18.224  0.00  0.00    +0.000 A 
ATOM     22  C   UNL     1       6.388   6.689  17.059  0.00  0.00    +0.000 A 
ATOM     23  C   UNL     1       5.300   6.196  16.346  0.00  0.00    +0.000 A 
ATOM     24  F   UNL     1       4.912   6.818  15.225  0.00  0.00    +0.000 F 
ATOM     25  C   UNL     1       4.598   5.078  16.785  0.00  0.00    +0.000 A 
ENDBRANCH  18  19
ENDBRANCH  16  18
ENDBRANCH  15  16
ENDBRANCH   2  15
TORSDOF 7
ENDMDL
MODEL 3
REMARK VINA RESULT:      -6.8      1.360      1.896
REMARK  Name = 
REMARK  9 active torsions:
REMARK  status: ('A' for Active; 'I' for Inactive)
REMARK    1  A    between atoms: C_1  and  O_2
REMARK    2  A    between atoms: O_2  and  C_3
REMARK    3  A    between atoms: C_3  and  C_5
REMARK    4  A    between atoms: C_8  and  N_9
REMARK    5  A    between atoms: C_10  and  C_12
REMARK    6  A    between atoms: C_12  and  N_13
REMARK    7  A    between atoms: N_13  and  C_14
REMARK    8  A    between atoms: N_13  and  C_15
REMARK    9  A    between atoms: C_15  and  C_16
REMARK                            x       y       z     vdW  Elec       q    Type
REMARK                         _______ _______ _______ _____ _____    ______ ____
ROOT
ATOM      1  N   UNL     1       3.058   6.004  19.688  0.00  0.00    +0.000 N 
ATOM      2  C   UNL     1       2.517   4.730  19.688  0.00  0.00    +0.000 C 
ATOM      3  O   UNL     1       1.341   4.436  19.485  0.00  0.00    +0.000 OA
ATOM      4  H   UNL     1       4.058   6.041  19.869  0.00  0.00    +0.000 HD
ENDROOT
BRANCH   1   8
ATOM      5  C   UNL     1       0.980   9.658  19.130  0.00  0.00    +0.000 A 
ATOM      6  C   UNL     1       0.972   9.034  20.378  0.00  0.00    +0.000 A 
ATOM      7  C   UNL     1       1.656   7.831  20.574  0.00  0.00    +0.000 A 
ATOM      8  C   UNL     1       2.360   7.220  19.534  0.00  0.00    +0.000 A 
ATOM      9  C   UNL     1       2.380   7.854  18.285  0.00  0.00    +0.000 A 
ATOM     10  C   UNL     1       1.692   9.065  18.080  0.00  0.00    +0.000 A 
BRANCH   5  11
ATOM     11  C   UNL     1       0.229  10.936  18.999  0.00  0.00    +0.000 C 
ATOM     12  O   UNL     1       0.734  11.973  18.594  0.00  0.00    +0.000 OA
BRANCH  11  14
ATOM     13  C   UNL     1      -1.990  11.451  18.520  0.00  0.00    +0.000 C 
ATOM     14  O   UNL     1      -1.063  10.784  19.381  0.00  0.00    +0.000 OA
ENDBRANCH  11  14
ENDBRANCH   5  11
ENDBRANCH   1   8
BRANCH   2  15
ATOM     15  C   UNL     1       3.534   3.607  19.913  0.00  0.00    +0.000 C 
BRANCH  15  16
ATOM     16  N   UNL     1       4.024   2.978  18.656  0.00  0.00    +0.000 NA
ATOM     17  C   UNL     1       3.328   1.697  18.422  0.00  0.00    +0.000 C 
BRANCH  16  18
ATOM     18  C   UNL     1       3.694   3.868  17.514  0.00  0.00    +0.000 C 
BRANCH  18  19
ATOM     19  C   UNL     1       4.888   4.378  16.736  0.00  0.00    +0.000 A 
ATOM     20  C   UNL     1       5.206   3.833  15.479  0.00  0.00    +0.000 A 
ATOM     21  C   UNL     1       6.358   4.234  14.797  0.00  0.00    +0.000 A 
ATOM     22  C   UNL     1       7.202   5.189  15.361  0.00  0.00    +0.000 A 
ATOM     23  C   UNL     1       6.876   5.745  16.593  0.00  0.00    +0.000 A 
ATOM     24  F   UNL     1       7.687   6.664  17.134  0.00  0.00    +0.000 F 
ATOM     25  C   UNL     1       5.732   5.354  17.281  0.00  0.00    +0.000 A 
ENDBRANCH  18  19
ENDBRANCH  16  18
ENDBRANCH  15  16
ENDBRANCH   2  15
TORSDOF 7
ENDMDL
MODEL 4
REMARK VINA RESULT:      -6.8      1.401      2.057
REMARK  Name = 
REMARK  9 active torsions:
REMARK  status: ('A' for Active; 'I' for Inactive)
REMARK    1  A    between atoms: C_1  and  O_2
REMARK    2  A    between atoms: O_2  and  C_3
REMARK    3  A    between atoms: C_3  and  C_5
REMARK    4  A    between atoms: C_8  and  N_9
REMARK    5  A    between atoms: C_10  and  C_12
REMARK    6  A    between atoms: C_12  and  N_13
REMARK    7  A    between atoms: N_13  and  C_14
REMARK    8  A    between atoms: N_13  and  C_15
REMARK    9  A    between atoms: C_15  and  C_16
REMARK                            x       y       z     vdW  Elec       q    Type
REMARK                         _______ _______ _______ _____ _____    ______ ____
ROOT
ATOM      1  N   UNL     1       2.497   6.165  20.448  0.00  0.00    +0.000 N 
ATOM      2  C   UNL     1       1.858   4.936  20.478  0.00  0.00    +0.000 C 
ATOM      3  O   UNL     1       0.671   4.724  20.236  0.00  0.00    +0.000 OA
ATOM      4  H   UNL     1       3.487   6.133  20.671  0.00  0.00    +0.000 HD
ENDROOT
BRANCH   1   8
ATOM      5  C   UNL     1       0.737   9.938  19.646  0.00  0.00    +0.000 A 
ATOM      6  C   UNL     1       0.596   9.356  20.907  0.00  0.00    +0.000 A 
ATOM      7  C   UNL     1       1.174   8.114  21.182  0.00  0.00    +0.000 A 
ATOM      8  C   UNL     1       1.902   7.422  20.213  0.00  0.00    +0.000 A 
ATOM      9  C   UNL     1       2.056   8.013  18.952  0.00  0.00    +0.000 A 
ATOM     10  C   UNL     1       1.474   9.263  18.666  0.00  0.00    +0.000 A 
BRANCH   5  11
ATOM     11  C   UNL     1       0.092  11.262  19.428  0.00  0.00    +0.000 C 
ATOM     12  O   UNL     1      -1.013  11.550  19.864  0.00  0.00    +0.000 OA
BRANCH  11  14
ATOM     13  C   UNL     1       1.233  13.290  19.378  0.00  0.00    +0.000 C 
ATOM     14  O   UNL     1       0.891  12.080  18.698  0.00  0.00    +0.000 OA
ENDBRANCH  11  14
ENDBRANCH   5  11
ENDBRANCH   1   8
BRANCH   2  15
ATOM     15  C   UNL     1       2.774   3.751  20.794  0.00  0.00    +0.000 C 
BRANCH  15  16
ATOM     16  N   UNL     1       3.876   3.563  19.812  0.00  0.00    +0.000 NA
ATOM     17  C   UNL     1       4.493   2.233  19.986  0.00  0.00    +0.000 C 
BRANCH  16  18
ATOM     18  C   UNL     1       3.308   3.603  18.440  0.00  0.00    +0.000 C 
BRANCH  18  19
ATOM     19  C   UNL     1       4.171   4.300  17.411  0.00  0.00    +0.000 A 
ATOM     20  C   UNL     1       4.226   5.704  17.359  0.00  0.00    +0.000 A 
ATOM     21  C   UNL     1       4.948   6.355  16.354  0.00  0.00    +0.000 A 
ATOM     22  C   UNL     1       5.626   5.608  15.393  0.00  0.00    +0.000 A 
ATOM     23  C   UNL     1       5.591   4.220  15.457  0.00  0.00    +0.000 A 
ATOM     24  F   UNL     1       6.245   3.502  14.533  0.00  0.00    +0.000 F 
ATOM     25  C   UNL     1       4.877   3.561  16.453  0.00  0.00    +0.000 A 
ENDBRANCH  18  19
ENDBRANCH  16  18
ENDBRANCH  15  16
ENDBRANCH   2  15
TORSDOF 7
ENDMDL
MODEL 5
REMARK VINA RESULT:      -6.8      1.379      1.633
REMARK  Name = 
REMARK  9 active torsions:
REMARK  status: ('A' for Active; 'I' for Inactive)
REMARK    1  A    between atoms: C_1  and  O_2
REMARK    2  A    between atoms: O_2  and  C_3
REMARK    3  A    between atoms: C_3  and  C_5
REMARK    4  A    between atoms: C_8  and  N_9
REMARK    5  A    between atoms: C_10  and  C_12
REMARK    6  A    between atoms: C_12  and  N_13
REMARK    7  A    between atoms: N_13  and  C_14
REMARK    8  A    between atoms: N_13  and  C_15
REMARK    9  A    between atoms: C_15  and  C_16
REMARK                            x       y       z     vdW  Elec       q    Type
REMARK                         _______ _______ _______ _____ _____    ______ ____
ROOT
ATOM      1  N   UNL     1       3.059   5.974  19.758  0.00  0.00    +0.000 N 
ATOM      2  C   UNL     1       2.530   4.696  19.677  0.00  0.00    +0.000 C 
ATOM      3  O   UNL     1       1.375   4.402  19.381  0.00  0.00    +0.000 OA
ATOM      4  H   UNL     1       4.043   6.011  20.011  0.00  0.00    +0.000 HD
ENDROOT
BRANCH   1   8
ATOM      5  C   UNL     1       0.942   9.627  19.365  0.00  0.00    +0.000 A 
ATOM      6  C   UNL     1       1.637   9.102  18.274  0.00  0.00    +0.000 A 
ATOM      7  C   UNL     1       2.336   7.897  18.392  0.00  0.00    +0.000 A 
ATOM      8  C   UNL     1       2.362   7.190  19.595  0.00  0.00    +0.000 A 
ATOM      9  C   UNL     1       1.653   7.709  20.686  0.00  0.00    +0.000 A 
ATOM     10  C   UNL     1       0.948   8.923  20.575  0.00  0.00    +0.000 A 
BRANCH   5  11
ATOM     11  C   UNL     1       0.222  10.914  19.163  0.00  0.00    +0.000 C 
ATOM     12  O   UNL     1       0.373  11.888  19.886  0.00  0.00    +0.000 OA
BRANCH  11  14
ATOM     13  C   UNL     1      -1.881  10.290  18.385  0.00  0.00    +0.000 C 
ATOM     14  O   UNL     1      -0.600  10.850  18.087  0.00  0.00    +0.000 OA
ENDBRANCH  11  14
ENDBRANCH   5  11
ENDBRANCH   1   8
BRANCH   2  15
ATOM     15  C   UNL     1       3.539   3.573  19.937  0.00  0.00    +0.000 C 
BRANCH  15  16
ATOM     16  N   UNL     1       4.080   2.951  18.698  0.00  0.00    +0.000 NA
ATOM     17  C   UNL     1       3.448   1.636  18.471  0.00  0.00    +0.000 C 
BRANCH  16  18
ATOM     18  C   UNL     1       3.729   3.809  17.538  0.00  0.00    +0.000 C 
BRANCH  18  19
ATOM     19  C   UNL     1       4.910   4.331  16.749  0.00  0.00    +0.000 A 
ATOM     20  C   UNL     1       5.238   3.772  15.501  0.00  0.00    +0.000 A 
ATOM     21  C   UNL     1       6.380   4.186  14.809  0.00  0.00    +0.000 A 
ATOM     22  C   UNL     1       7.204   5.167  15.356  0.00  0.00    +0.000 A 
ATOM     23  C   UNL     1       6.869   5.737  16.579  0.00  0.00    +0.000 A 
ATOM     24  F   UNL     1       7.661   6.681  17.104  0.00  0.00    +0.000 F 
ATOM     25  C   UNL     1       5.734   5.333  17.276  0.00  0.00    +0.000 A 
ENDBRANCH  18  19
ENDBRANCH  16  18
ENDBRANCH  15  16
ENDBRANCH   2  15
TORSDOF 7
ENDMDL
MODEL 6
REMARK VINA RESULT:      -6.7      5.636      7.342
REMARK  Name = 
REMARK  9 active torsions:
REMARK  status: ('A' for Active; 'I' for Inactive)
REMARK    1  A    between atoms: C_1  and  O_2
REMARK    2  A    between atoms: O_2  and  C_3
REMARK    3  A    between atoms: C_3  and  C_5
REMARK    4  A    between atoms: C_8  and  N_9
REMARK    5  A    between atoms: C_10  and  C_12
REMARK    6  A    between atoms: C_12  and  N_13
REMARK    7  A    between atoms: N_13  and  C_14
REMARK    8  A    between atoms: N_13  and  C_15
REMARK    9  A    between atoms: C_15  and  C_16
REMARK                            x       y       z     vdW  Elec       q    Type
REMARK                         _______ _______ _______ _____ _____    ______ ____
ROOT
ATOM      1  N   UNL     1       8.872   8.687  19.149  0.00  0.00    +0.000 N 
ATOM      2  C   UNL     1       8.108   8.021  18.204  0.00  0.00    +0.000 C 
ATOM      3  O   UNL     1       7.703   8.479  17.138  0.00  0.00    +0.000 OA
ATOM      4  H   UNL     1       9.115   8.133  19.965  0.00  0.00    +0.000 HD
ENDROOT
BRANCH   1   8
ATOM      5  C   UNL     1      10.063  12.757  19.148  0.00  0.00    +0.000 A 
ATOM      6  C   UNL     1       9.931  12.068  17.941  0.00  0.00    +0.000 A 
ATOM      7  C   UNL     1       9.536  10.727  17.930  0.00  0.00    +0.000 A 
ATOM      8  C   UNL     1       9.267  10.041  19.115  0.00  0.00    +0.000 A 
ATOM      9  C   UNL     1       9.385  10.736  20.326  0.00  0.00    +0.000 A 
ATOM     10  C   UNL     1       9.784  12.087  20.345  0.00  0.00    +0.000 A 
BRANCH   5  11
ATOM     11  C   UNL     1      10.488  14.182  19.079  0.00  0.00    +0.000 C 
ATOM     12  O   UNL     1      11.478  14.615  19.650  0.00  0.00    +0.000 OA
BRANCH  11  14
ATOM     13  C   UNL     1       8.689  15.659  19.067  0.00  0.00    +0.000 C 
ATOM     14  O   UNL     1       9.640  14.907  18.309  0.00  0.00    +0.000 OA
ENDBRANCH  11  14
ENDBRANCH   5  11
ENDBRANCH   1   8
BRANCH   2  15
ATOM     15  C   UNL     1       7.815   6.556  18.542  0.00  0.00    +0.000 C 
BRANCH  15  16
ATOM     16  N   UNL     1       6.623   6.004  17.843  0.00  0.00    +0.000 NA
ATOM     17  C   UNL     1       7.044   5.125  16.734  0.00  0.00    +0.000 C 
BRANCH  16  18
ATOM     18  C   UNL     1       5.854   5.165  18.796  0.00  0.00    +0.000 C 
BRANCH  18  19
ATOM     19  C   UNL     1       4.444   4.830  18.359  0.00  0.00    +0.000 A 
ATOM     20  C   UNL     1       3.439   5.813  18.377  0.00  0.00    +0.000 A 
ATOM     21  C   UNL     1       2.115   5.490  18.063  0.00  0.00    +0.000 A 
ATOM     22  C   UNL     1       1.784   4.180  17.724  0.00  0.00    +0.000 A 
ATOM     23  C   UNL     1       2.781   3.211  17.684  0.00  0.00    +0.000 A 
ATOM     24  F   UNL     1       2.462   1.952  17.355  0.00  0.00    +0.000 F 
ATOM     25  C   UNL     1       4.101   3.522  17.993  0.00  0.00    +0.000 A 
ENDBRANCH  18  19
ENDBRANCH  16  18
ENDBRANCH  15  16
ENDBRANCH   2  15
TORSDOF 7
ENDMDL
MODEL 7
REMARK VINA RESULT:      -6.7      1.385      1.961
REMARK  Name = 
REMARK  9 active torsions:
REMARK  status: ('A' for Active; 'I' for Inactive)
REMARK    1  A    between atoms: C_1  and  O_2
REMARK    2  A    between atoms: O_2  and  C_3
REMARK    3  A    between atoms: C_3  and  C_5
REMARK    4  A    between atoms: C_8  and  N_9
REMARK    5  A    between atoms: C_10  and  C_12
REMARK    6  A    between atoms: C_12  and  N_13
REMARK    7  A    between atoms: N_13  and  C_14
REMARK    8  A    between atoms: N_13  and  C_15
REMARK    9  A    between atoms: C_15  and  C_16
REMARK                            x       y       z     vdW  Elec       q    Type
REMARK                         _______ _______ _______ _____ _____    ______ ____
ROOT
ATOM      1  N   UNL     1       2.520   5.836  19.584  0.00  0.00    +0.000 N 
ATOM      2  C   UNL     1       2.104   4.747  18.835  0.00  0.00    +0.000 C 
ATOM      3  O   UNL     1       1.370   4.777  17.849  0.00  0.00    +0.000 OA
ATOM      4  H   UNL     1       3.134   5.606  20.360  0.00  0.00    +0.000 HD
ENDROOT
BRANCH   1   8
ATOM      5  C   UNL     1       1.358   9.869  18.983  0.00  0.00    +0.000 A 
ATOM      6  C   UNL     1       1.127   9.252  20.214  0.00  0.00    +0.000 A 
ATOM      7  C   UNL     1       1.509   7.924  20.423  0.00  0.00    +0.000 A 
ATOM      8  C   UNL     1       2.124   7.179  19.416  0.00  0.00    +0.000 A 
ATOM      9  C   UNL     1       2.369   7.802  18.186  0.00  0.00    +0.000 A 
ATOM     10  C   UNL     1       1.985   9.140  17.966  0.00  0.00    +0.000 A 
BRANCH   5  11
ATOM     11  C   UNL     1       0.923  11.285  18.836  0.00  0.00    +0.000 C 
ATOM     12  O   UNL     1       1.655  12.238  19.059  0.00  0.00    +0.000 OA
BRANCH  11  14
ATOM     13  C   UNL     1      -0.894  12.688  18.457  0.00  0.00    +0.000 C 
ATOM     14  O   UNL     1      -0.367  11.360  18.425  0.00  0.00    +0.000 OA
ENDBRANCH  11  14
ENDBRANCH   5  11
ENDBRANCH   1   8
BRANCH   2  15
ATOM     15  C   UNL     1       2.687   3.405  19.285  0.00  0.00    +0.000 C 
BRANCH  15  16
ATOM     16  N   UNL     1       4.150   3.444  19.554  0.00  0.00    +0.000 NA
ATOM     17  C   UNL     1       4.578   2.203  20.229  0.00  0.00    +0.000 C 
BRANCH  16  18
ATOM     18  C   UNL     1       4.874   3.507  18.259  0.00  0.00    +0.000 C 
BRANCH  18  19
ATOM     19  C   UNL     1       5.583   4.817  17.987  0.00  0.00    +0.000 A 
ATOM     20  C   UNL     1       5.128   5.677  16.972  0.00  0.00    +0.000 A 
ATOM     21  C   UNL     1       5.830   6.843  16.653  0.00  0.00    +0.000 A 
ATOM     22  C   UNL     1       6.994   7.163  17.350  0.00  0.00    +0.000 A 
ATOM     23  C   UNL     1       7.433   6.325  18.369  0.00  0.00    +0.000 A 
ATOM     24  F   UNL     1       8.551   6.635  19.039  0.00  0.00    +0.000 F 
ATOM     25  C   UNL     1       6.741   5.163  18.695  0.00  0.00    +0.000 A 
ENDBRANCH  18  19
ENDBRANCH  16  18
ENDBRANCH  15  16
ENDBRANCH   2  15
TORSDOF 7
ENDMDL
MODEL 8
REMARK VINA RESULT:      -6.7      1.198      2.043
REMARK  Name = 
REMARK  9 active torsions:
REMARK  status: ('A' for Active; 'I' for Inactive)
REMARK    1  A    between atoms: C_1  and  O_2
REMARK    2  A    between atoms: O_2  and  C_3
REMARK    3  A    between atoms: C_3  and  C_5
REMARK    4  A    between atoms: C_8  and  N_9
REMARK    5  A    between atoms: C_10  and  C_12
REMARK    6  A    between atoms: C_12  and  N_13
REMARK    7  A    between atoms: N_13  and  C_14
REMARK    8  A    between atoms: N_13  and  C_15
REMARK    9  A    between atoms: C_15  and  C_16
REMARK                            x       y       z     vdW  Elec       q    Type
REMARK                         _______ _______ _______ _____ _____    ______ ____
ROOT
ATOM      1  N   UNL     1       2.574   5.879  20.391  0.00  0.00    +0.000 N 
ATOM      2  C   UNL     1       2.086   4.654  19.966  0.00  0.00    +0.000 C 
ATOM      3  O   UNL     1       1.181   4.470  19.155  0.00  0.00    +0.000 OA
ATOM      4  H   UNL     1       3.335   5.822  21.062  0.00  0.00    +0.000 HD
ENDROOT
BRANCH   1   8
ATOM      5  C   UNL     1       1.122   9.696  19.252  0.00  0.00    +0.000 A 
ATOM      6  C   UNL     1       0.863   9.204  20.532  0.00  0.00    +0.000 A 
ATOM      7  C   UNL     1       1.340   7.948  20.919  0.00  0.00    +0.000 A 
ATOM      8  C   UNL     1       2.079   7.153  20.043  0.00  0.00    +0.000 A 
ATOM      9  C   UNL     1       2.351   7.652  18.763  0.00  0.00    +0.000 A 
ATOM     10  C   UNL     1       1.873   8.916  18.365  0.00  0.00    +0.000 A 
BRANCH   5  11
ATOM     11  C   UNL     1       0.581  11.041  18.913  0.00  0.00    +0.000 C 
ATOM     12  O   UNL     1      -0.485  11.211  18.341  0.00  0.00    +0.000 OA
BRANCH  11  14
ATOM     13  C   UNL     1       2.186  12.596  18.263  0.00  0.00    +0.000 C 
ATOM     14  O   UNL     1       1.420  12.023  19.326  0.00  0.00    +0.000 OA
ENDBRANCH  11  14
ENDBRANCH   5  11
ENDBRANCH   1   8
BRANCH   2  15
ATOM     15  C   UNL     1       2.818   3.441  20.549  0.00  0.00    +0.000 C 
BRANCH  15  16
ATOM     16  N   UNL     1       4.190   3.247  20.005  0.00  0.00    +0.000 NA
ATOM     17  C   UNL     1       4.627   1.852  20.210  0.00  0.00    +0.000 C 
BRANCH  16  18
ATOM     18  C   UNL     1       4.163   3.485  18.540  0.00  0.00    +0.000 C 
BRANCH  18  19
ATOM     19  C   UNL     1       5.107   4.562  18.049  0.00  0.00    +0.000 A 
ATOM     20  C   UNL     1       4.964   5.103  16.760  0.00  0.00    +0.000 A 
ATOM     21  C   UNL     1       5.886   6.031  16.267  0.00  0.00    +0.000 A 
ATOM     22  C   UNL     1       6.958   6.431  17.061  0.00  0.00    +0.000 A 
ATOM     23  C   UNL     1       7.088   5.914  18.345  0.00  0.00    +0.000 A 
ATOM     24  F   UNL     1       8.119   6.301  19.108  0.00  0.00    +0.000 F 
ATOM     25  C   UNL     1       6.176   4.991  18.846  0.00  0.00    +0.000 A 
ENDBRANCH  18  19
ENDBRANCH  16  18
ENDBRANCH  15  16
ENDBRANCH   2  15
TORSDOF 7
ENDMDL
MODEL 9
REMARK VINA RESULT:      -6.7      1.537      2.043
REMARK  Name = 
REMARK  9 active torsions:
REMARK  status: ('A' for Active; 'I' for Inactive)
REMARK    1  A    between atoms: C_1  and  O_2
REMARK    2  A    between atoms: O_2  and  C_3
REMARK    3  A    between atoms: C_3  and  C_5
REMARK    4  A    between atoms: C_8  and  N_9
REMARK    5  A    between atoms: C_10  and  C_12
REMARK    6  A    between atoms: C_12  and  N_13
REMARK    7  A    between atoms: N_13  and  C_14
REMARK    8  A    between atoms: N_13  and  C_15
REMARK    9  A    between atoms: C_15  and  C_16
REMARK                            x       y       z     vdW  Elec       q    Type
REMARK                         _______ _______ _______ _____ _____    ______ ____
ROOT
ATOM      1  N   UNL     1       2.851   6.099  19.850  0.00  0.00    +0.000 N 
ATOM      2  C   UNL     1       2.384   4.851  19.470  0.00  0.00    +0.000 C 
ATOM      3  O   UNL     1       1.382   4.621  18.796  0.00  0.00    +0.000 OA
ATOM      4  H   UNL     1       3.704   6.082  20.401  0.00  0.00    +0.000 HD
ENDROOT
BRANCH   1   8
ATOM      5  C   UNL     1       0.961   9.843  19.224  0.00  0.00    +0.000 A 
ATOM      6  C   UNL     1       1.675   9.240  18.188  0.00  0.00    +0.000 A 
ATOM      7  C   UNL     1       2.300   8.004  18.383  0.00  0.00    +0.000 A 
ATOM      8  C   UNL     1       2.231   7.343  19.610  0.00  0.00    +0.000 A 
ATOM      9  C   UNL     1       1.501   7.941  20.646  0.00  0.00    +0.000 A 
ATOM     10  C   UNL     1       0.871   9.186  20.457  0.00  0.00    +0.000 A 
BRANCH   5  11
ATOM     11  C   UNL     1       0.324  11.158  18.941  0.00  0.00    +0.000 C 
ATOM     12  O   UNL     1      -0.743  11.275  18.355  0.00  0.00    +0.000 OA
BRANCH  11  14
ATOM     13  C   UNL     1       1.322  13.202  18.452  0.00  0.00    +0.000 C 
ATOM     14  O   UNL     1       1.077  12.178  19.419  0.00  0.00    +0.000 OA
ENDBRANCH  11  14
ENDBRANCH   5  11
ENDBRANCH   1   8
BRANCH   2  15
ATOM     15  C   UNL     1       3.268   3.681  19.910  0.00  0.00    +0.000 C 
BRANCH  15  16
ATOM     16  N   UNL     1       4.169   3.172  18.839  0.00  0.00    +0.000 NA
ATOM     17  C   UNL     1       3.595   1.957  18.226  0.00  0.00    +0.000 C 
BRANCH  16  18
ATOM     18  C   UNL     1       4.267   4.195  17.768  0.00  0.00    +0.000 C 
BRANCH  18  19
ATOM     19  C   UNL     1       5.426   5.159  17.909  0.00  0.00    +0.000 A 
ATOM     20  C   UNL     1       5.488   6.321  17.120  0.00  0.00    +0.000 A 
ATOM     21  C   UNL     1       6.599   7.167  17.179  0.00  0.00    +0.000 A 
ATOM     22  C   UNL     1       7.658   6.862  18.031  0.00  0.00    +0.000 A 
ATOM     23  C   UNL     1       7.588   5.725  18.829  0.00  0.00    +0.000 A 
ATOM     24  F   UNL     1       8.606   5.434  19.650  0.00  0.00    +0.000 F 
ATOM     25  C   UNL     1       6.487   4.877  18.779  0.00  0.00    +0.000 A 
ENDBRANCH  18  19
ENDBRANCH  16  18
ENDBRANCH  15  16
ENDBRANCH   2  15
TORSDOF 7
ENDMDL
