MODEL 1
REMARK VINA RESULT:      -7.3      0.000      0.000
REMARK  Name = 
REMARK  7 active torsions:
REMARK  status: ('A' for Active; 'I' for Inactive)
REMARK    1  A    between atoms: O_1  and  C_2
REMARK    2  A    between atoms: C_2  and  C_3
REMARK    3  A    between atoms: C_2  and  C_11
REMARK    4  A    between atoms: C_3  and  N_4
REMARK    5  A    between atoms: N_4  and  C_5
REMARK    6  A    between atoms: C_11  and  O_12
REMARK    7  A    between atoms: O_12  and  C_13
REMARK                            x       y       z     vdW  Elec       q    Type
REMARK                         _______ _______ _______ _____ _____    ______ ____
ROOT
ATOM      1  C   UNL     1       7.054   5.109  17.869  0.00  0.00    +0.000 C 
ENDROOT
BRANCH   1   2
ATOM      2  O   UNL     1       8.047   4.117  17.555  0.00  0.00    +0.000 OA
ATOM      3  H   UNL     1       7.618   3.430  17.018  0.00  0.00    +0.000 HD
ENDBRANCH   1   2
BRANCH   1   4
ATOM      4  C   UNL     1       6.626   5.840  16.586  0.00  0.00    +0.000 C 
BRANCH   4   5
ATOM      5  N   UNL     1       7.563   5.576  15.492  0.00  0.00    +0.000 N 
ATOM      6  H   UNL     1       8.103   6.402  15.231  0.00  0.00    +0.000 HD
BRANCH   5   7
ATOM      7  C   UNL     1       7.076   4.885  14.376  0.00  0.00    +0.000 A 
ATOM      8  C   UNL     1       5.853   4.208  14.472  0.00  0.00    +0.000 A 
ATOM      9  C   UNL     1       5.319   3.528  13.374  0.00  0.00    +0.000 A 
ATOM     10  C   UNL     1       5.983   3.548  12.149  0.00  0.00    +0.000 A 
ATOM     11  C   UNL     1       7.166   4.266  12.019  0.00  0.00    +0.000 A 
ATOM     12  C   UNL     1       7.694   4.941  13.121  0.00  0.00    +0.000 A 
ENDBRANCH   5   7
ENDBRANCH   4   5
ENDBRANCH   1   4
BRANCH   1  13
ATOM     13  C   UNL     1       5.847   4.459  18.557  0.00  0.00    +0.000 C 
BRANCH  13  14
ATOM     14  O   UNL     1       4.644   4.962  17.963  0.00  0.00    +0.000 OA
BRANCH  14  15
ATOM     15  C   UNL     1       3.465   4.578  18.544  0.00  0.00    +0.000 A 
ATOM     16  C   UNL     1       3.280   5.068  19.843  0.00  0.00    +0.000 A 
ATOM     17  C   UNL     1       2.121   4.763  20.562  0.00  0.00    +0.000 A 
ATOM     18  C   UNL     1       1.126   3.972  19.989  0.00  0.00    +0.000 A 
ATOM     19  C   UNL     1       1.304   3.480  18.695  0.00  0.00    +0.000 A 
ATOM     20  C   UNL     1       2.463   3.784  17.982  0.00  0.00    +0.000 A 
ATOM     21  F   UNL     1       2.562   3.296  16.738  0.00  0.00    +0.000 F 
ENDBRANCH  14  15
ENDBRANCH  13  14
ENDBRANCH   1  13
TORSDOF 7
ENDMDL
MODEL 2
REMARK VINA RESULT:      -7.1      3.338      5.736
REMARK  Name = 
REMARK  7 active torsions:
REMARK  status: ('A' for Active; 'I' for Inactive)
REMARK    1  A    between atoms: O_1  and  C_2
REMARK    2  A    between atoms: C_2  and  C_3
REMARK    3  A    between atoms: C_2  and  C_11
REMARK    4  A    between atoms: C_3  and  N_4
REMARK    5  A    between atoms: N_4  and  C_5
REMARK    6  A    between atoms: C_11  and  O_12
REMARK    7  A    between atoms: O_12  and  C_13
REMARK                            x       y       z     vdW  Elec       q    Type
REMARK                         _______ _______ _______ _____ _____    ______ ____
ROOT
ATOM      1  C   UNL     1       5.455   4.514  17.565  0.00  0.00    +0.000 C 
ENDROOT
BRANCH   1   2
ATOM      2  O   UNL     1       6.203   3.982  18.672  0.00  0.00    +0.000 OA
ATOM      3  H   UNL     1       5.566   3.631  19.317  0.00  0.00    +0.000 HD
ENDBRANCH   1   2
BRANCH   1   4
ATOM      4  C   UNL     1       4.326   3.543  17.185  0.00  0.00    +0.000 C 
BRANCH   4   5
ATOM      5  N   UNL     1       4.178   2.488  18.190  0.00  0.00    +0.000 N 
ATOM      6  H   UNL     1       4.223   1.553  17.785  0.00  0.00    +0.000 HD
BRANCH   5   7
ATOM      7  C   UNL     1       3.134   2.618  19.115  0.00  0.00    +0.000 A 
ATOM      8  C   UNL     1       3.436   2.673  20.482  0.00  0.00    +0.000 A 
ATOM      9  C   UNL     1       2.426   2.829  21.435  0.00  0.00    +0.000 A 
ATOM     10  C   UNL     1       1.100   2.973  21.032  0.00  0.00    +0.000 A 
ATOM     11  C   UNL     1       0.790   2.983  19.677  0.00  0.00    +0.000 A 
ATOM     12  C   UNL     1       1.804   2.824  18.731  0.00  0.00    +0.000 A 
ENDBRANCH   5   7
ENDBRANCH   4   5
ENDBRANCH   1   4
BRANCH   1  13
ATOM     13  C   UNL     1       4.894   5.897  17.915  0.00  0.00    +0.000 C 
BRANCH  13  14
ATOM     14  O   UNL     1       3.735   5.735  18.742  0.00  0.00    +0.000 OA
BRANCH  14  15
ATOM     15  C   UNL     1       2.935   6.834  18.903  0.00  0.00    +0.000 A 
ATOM     16  C   UNL     1       3.010   7.756  17.852  0.00  0.00    +0.000 A 
ATOM     17  C   UNL     1       2.247   8.926  17.874  0.00  0.00    +0.000 A 
ATOM     18  C   UNL     1       1.391   9.188  18.943  0.00  0.00    +0.000 A 
ATOM     19  C   UNL     1       1.311   8.274  19.994  0.00  0.00    +0.000 A 
ATOM     20  C   UNL     1       2.077   7.109  19.970  0.00  0.00    +0.000 A 
ATOM     21  F   UNL     1       1.938   6.264  21.002  0.00  0.00    +0.000 F 
ENDBRANCH  14  15
ENDBRANCH  13  14
ENDBRANCH   1  13
TORSDOF 7
ENDMDL
MODEL 3
REMARK VINA RESULT:      -7.0      0.530      1.217
REMARK  Name = 
REMARK  7 active torsions:
REMARK  status: ('A' for Active; 'I' for Inactive)
REMARK    1  A    between atoms: O_1  and  C_2
REMARK    2  A    between atoms: C_2  and  C_3
REMARK    3  A    between atoms: C_2  and  C_11
REMARK    4  A    between atoms: C_3  and  N_4
REMARK    5  A    between atoms: N_4  and  C_5
REMARK    6  A    between atoms: C_11  and  O_12
REMARK    7  A    between atoms: O_12  and  C_13
REMARK                            x       y       z     vdW  Elec       q    Type
REMARK                         _______ _______ _______ _____ _____    ______ ____
ROOT
ATOM      1  C   UNL     1       6.567   5.440  18.074  0.00  0.00    +0.000 C 
ENDROOT
BRANCH   1   2
ATOM      2  O   UNL     1       7.030   4.084  17.954  0.00  0.00    +0.000 OA
ATOM      3  H   UNL     1       6.261   3.527  17.745  0.00  0.00    +0.000 HD
ENDBRANCH   1   2
BRANCH   1   4
ATOM      4  C   UNL     1       6.382   6.052  16.676  0.00  0.00    +0.000 C 
BRANCH   4   5
ATOM      5  N   UNL     1       7.420   5.586  15.755  0.00  0.00    +0.000 N 
ATOM      6  H   UNL     1       8.148   6.284  15.601  0.00  0.00    +0.000 HD
BRANCH   5   7
ATOM      7  C   UNL     1       7.003   4.979  14.564  0.00  0.00    +0.000 A 
ATOM      8  C   UNL     1       7.784   5.129  13.410  0.00  0.00    +0.000 A 
ATOM      9  C   UNL     1       7.416   4.519  12.208  0.00  0.00    +0.000 A 
ATOM     10  C   UNL     1       6.280   3.715  12.152  0.00  0.00    +0.000 A 
ATOM     11  C   UNL     1       5.527   3.505  13.302  0.00  0.00    +0.000 A 
ATOM     12  C   UNL     1       5.900   4.120  14.498  0.00  0.00    +0.000 A 
ENDBRANCH   5   7
ENDBRANCH   4   5
ENDBRANCH   1   4
BRANCH   1  13
ATOM     13  C   UNL     1       5.257   5.489  18.871  0.00  0.00    +0.000 C 
BRANCH  13  14
ATOM     14  O   UNL     1       4.183   5.048  18.032  0.00  0.00    +0.000 OA
BRANCH  14  15
ATOM     15  C   UNL     1       3.083   4.533  18.663  0.00  0.00    +0.000 A 
ATOM     16  C   UNL     1       2.828   5.092  19.921  0.00  0.00    +0.000 A 
ATOM     17  C   UNL     1       1.736   4.670  20.683  0.00  0.00    +0.000 A 
ATOM     18  C   UNL     1       0.876   3.688  20.193  0.00  0.00    +0.000 A 
ATOM     19  C   UNL     1       1.123   3.125  18.940  0.00  0.00    +0.000 A 
ATOM     20  C   UNL     1       2.216   3.547  18.185  0.00  0.00    +0.000 A 
ATOM     21  F   UNL     1       2.384   2.980  16.982  0.00  0.00    +0.000 F 
ENDBRANCH  14  15
ENDBRANCH  13  14
ENDBRANCH   1  13
TORSDOF 7
ENDMDL
MODEL 4
REMARK VINA RESULT:      -7.0      1.253      1.255
REMARK  Name = 
REMARK  7 active torsions:
REMARK  status: ('A' for Active; 'I' for Inactive)
REMARK    1  A    between atoms: O_1  and  C_2
REMARK    2  A    between atoms: C_2  and  C_3
REMARK    3  A    between atoms: C_2  and  C_11
REMARK    4  A    between atoms: C_3  and  N_4
REMARK    5  A    between atoms: N_4  and  C_5
REMARK    6  A    between atoms: C_11  and  O_12
REMARK    7  A    between atoms: O_12  and  C_13
REMARK                            x       y       z     vdW  Elec       q    Type
REMARK                         _______ _______ _______ _____ _____    ______ ____
ROOT
ATOM      1  C   UNL     1       6.385   4.967  18.014  0.00  0.00    +0.000 C 
ENDROOT
BRANCH   1   2
ATOM      2  O   UNL     1       7.014   5.024  19.306  0.00  0.00    +0.000 OA
ATOM      3  H   UNL     1       7.853   5.503  19.204  0.00  0.00    +0.000 HD
ENDBRANCH   1   2
BRANCH   1   4
ATOM      4  C   UNL     1       7.436   4.652  16.937  0.00  0.00    +0.000 C 
BRANCH   4   5
ATOM      5  N   UNL     1       7.275   5.524  15.772  0.00  0.00    +0.000 N 
ATOM      6  H   UNL     1       6.649   6.309  15.954  0.00  0.00    +0.000 HD
BRANCH   5   7
ATOM      7  C   UNL     1       7.018   4.913  14.538  0.00  0.00    +0.000 A 
ATOM      8  C   UNL     1       5.897   4.082  14.408  0.00  0.00    +0.000 A 
ATOM      9  C   UNL     1       5.591   3.474  13.187  0.00  0.00    +0.000 A 
ATOM     10  C   UNL     1       6.380   3.722  12.066  0.00  0.00    +0.000 A 
ATOM     11  C   UNL     1       7.459   4.593  12.162  0.00  0.00    +0.000 A 
ATOM     12  C   UNL     1       7.760   5.194  13.385  0.00  0.00    +0.000 A 
ENDBRANCH   5   7
ENDBRANCH   4   5
ENDBRANCH   1   4
BRANCH   1  13
ATOM     13  C   UNL     1       5.266   3.918  18.010  0.00  0.00    +0.000 C 
BRANCH  13  14
ATOM     14  O   UNL     1       4.905   3.617  19.364  0.00  0.00    +0.000 OA
BRANCH  14  15
ATOM     15  C   UNL     1       3.567   3.588  19.651  0.00  0.00    +0.000 A 
ATOM     16  C   UNL     1       3.080   4.763  20.236  0.00  0.00    +0.000 A 
ATOM     17  C   UNL     1       1.732   4.883  20.582  0.00  0.00    +0.000 A 
ATOM     18  C   UNL     1       0.848   3.833  20.338  0.00  0.00    +0.000 A 
ATOM     19  C   UNL     1       1.326   2.658  19.756  0.00  0.00    +0.000 A 
ATOM     20  C   UNL     1       2.673   2.541  19.416  0.00  0.00    +0.000 A 
ATOM     21  F   UNL     1       3.061   1.394  18.841  0.00  0.00    +0.000 F 
ENDBRANCH  14  15
ENDBRANCH  13  14
ENDBRANCH   1  13
TORSDOF 7
ENDMDL
MODEL 5
REMARK VINA RESULT:      -7.0      2.537      6.232
REMARK  Name = 
REMARK  7 active torsions:
REMARK  status: ('A' for Active; 'I' for Inactive)
REMARK    1  A    between atoms: O_1  and  C_2
REMARK    2  A    between atoms: C_2  and  C_3
REMARK    3  A    between atoms: C_2  and  C_11
REMARK    4  A    between atoms: C_3  and  N_4
REMARK    5  A    between atoms: N_4  and  C_5
REMARK    6  A    between atoms: C_11  and  O_12
REMARK    7  A    between atoms: O_12  and  C_13
REMARK                            x       y       z     vdW  Elec       q    Type
REMARK                         _______ _______ _______ _____ _____    ______ ____
ROOT
ATOM      1  C   UNL     1       6.706   6.230  17.607  0.00  0.00    +0.000 C 
ENDROOT
BRANCH   1   2
ATOM      2  O   UNL     1       7.040   7.481  16.983  0.00  0.00    +0.000 OA
ATOM      3  H   UNL     1       7.849   7.344  16.462  0.00  0.00    +0.000 HD
ENDBRANCH   1   2
BRANCH   1   4
ATOM      4  C   UNL     1       5.223   6.231  18.013  0.00  0.00    +0.000 C 
BRANCH   4   5
ATOM      5  N   UNL     1       4.955   5.218  19.035  0.00  0.00    +0.000 N 
ATOM      6  H   UNL     1       5.807   4.773  19.378  0.00  0.00    +0.000 HD
BRANCH   5   7
ATOM      7  C   UNL     1       3.938   4.291  18.776  0.00  0.00    +0.000 A 
ATOM      8  C   UNL     1       2.765   4.723  18.143  0.00  0.00    +0.000 A 
ATOM      9  C   UNL     1       1.737   3.825  17.843  0.00  0.00    +0.000 A 
ATOM     10  C   UNL     1       1.884   2.471  18.136  0.00  0.00    +0.000 A 
ATOM     11  C   UNL     1       3.067   2.015  18.707  0.00  0.00    +0.000 A 
ATOM     12  C   UNL     1       4.088   2.918  19.006  0.00  0.00    +0.000 A 
ENDBRANCH   5   7
ENDBRANCH   4   5
ENDBRANCH   1   4
BRANCH   1  13
ATOM     13  C   UNL     1       7.014   5.062  16.662  0.00  0.00    +0.000 C 
BRANCH  13  14
ATOM     14  O   UNL     1       7.557   5.581  15.442  0.00  0.00    +0.000 OA
BRANCH  14  15
ATOM     15  C   UNL     1       7.178   4.953  14.285  0.00  0.00    +0.000 A 
ATOM     16  C   UNL     1       6.050   4.134  14.420  0.00  0.00    +0.000 A 
ATOM     17  C   UNL     1       5.543   3.431  13.325  0.00  0.00    +0.000 A 
ATOM     18  C   UNL     1       6.151   3.545  12.075  0.00  0.00    +0.000 A 
ATOM     19  C   UNL     1       7.275   4.359  11.932  0.00  0.00    +0.000 A 
ATOM     20  C   UNL     1       7.780   5.056  13.029  0.00  0.00    +0.000 A 
ATOM     21  F   UNL     1       8.850   5.835  12.819  0.00  0.00    +0.000 F 
ENDBRANCH  14  15
ENDBRANCH  13  14
ENDBRANCH   1  13
TORSDOF 7
ENDMDL
MODEL 6
REMARK VINA RESULT:      -7.0      1.390      1.618
REMARK  Name = 
REMARK  7 active torsions:
REMARK  status: ('A' for Active; 'I' for Inactive)
REMARK    1  A    between atoms: O_1  and  C_2
REMARK    2  A    between atoms: C_2  and  C_3
REMARK    3  A    between atoms: C_2  and  C_11
REMARK    4  A    between atoms: C_3  and  N_4
REMARK    5  A    between atoms: N_4  and  C_5
REMARK    6  A    between atoms: C_11  and  O_12
REMARK    7  A    between atoms: O_12  and  C_13
REMARK                            x       y       z     vdW  Elec       q    Type
REMARK                         _______ _______ _______ _____ _____    ______ ____
ROOT
ATOM      1  C   UNL     1       6.702   5.893  17.957  0.00  0.00    +0.000 C 
ENDROOT
BRANCH   1   2
ATOM      2  O   UNL     1       7.848   6.666  18.353  0.00  0.00    +0.000 OA
ATOM      3  H   UNL     1       8.407   6.788  17.567  0.00  0.00    +0.000 HD
ENDBRANCH   1   2
BRANCH   1   4
ATOM      4  C   UNL     1       7.110   4.870  16.885  0.00  0.00    +0.000 C 
BRANCH   4   5
ATOM      5  N   UNL     1       7.443   5.533  15.623  0.00  0.00    +0.000 N 
ATOM      6  H   UNL     1       7.190   6.522  15.621  0.00  0.00    +0.000 HD
BRANCH   5   7
ATOM      7  C   UNL     1       7.074   4.887  14.436  0.00  0.00    +0.000 A 
ATOM      8  C   UNL     1       5.925   4.086  14.423  0.00  0.00    +0.000 A 
ATOM      9  C   UNL     1       5.509   3.445  13.253  0.00  0.00    +0.000 A 
ATOM     10  C   UNL     1       6.215   3.629  12.066  0.00  0.00    +0.000 A 
ATOM     11  C   UNL     1       7.322   4.469  12.047  0.00  0.00    +0.000 A 
ATOM     12  C   UNL     1       7.733   5.103  13.220  0.00  0.00    +0.000 A 
ENDBRANCH   5   7
ENDBRANCH   4   5
ENDBRANCH   1   4
BRANCH   1  13
ATOM     13  C   UNL     1       6.082   5.195  19.174  0.00  0.00    +0.000 C 
BRANCH  13  14
ATOM     14  O   UNL     1       4.688   5.516  19.237  0.00  0.00    +0.000 OA
BRANCH  14  15
ATOM     15  C   UNL     1       3.817   4.570  18.766  0.00  0.00    +0.000 A 
ATOM     16  C   UNL     1       4.253   3.252  18.942  0.00  0.00    +0.000 A 
ATOM     17  C   UNL     1       3.469   2.177  18.514  0.00  0.00    +0.000 A 
ATOM     18  C   UNL     1       2.232   2.406  17.914  0.00  0.00    +0.000 A 
ATOM     19  C   UNL     1       1.790   3.718  17.735  0.00  0.00    +0.000 A 
ATOM     20  C   UNL     1       2.577   4.787  18.160  0.00  0.00    +0.000 A 
ATOM     21  F   UNL     1       2.085   6.020  17.976  0.00  0.00    +0.000 F 
ENDBRANCH  14  15
ENDBRANCH  13  14
ENDBRANCH   1  13
TORSDOF 7
ENDMDL
MODEL 7
REMARK VINA RESULT:      -6.9      2.291      6.688
REMARK  Name = 
REMARK  7 active torsions:
REMARK  status: ('A' for Active; 'I' for Inactive)
REMARK    1  A    between atoms: O_1  and  C_2
REMARK    2  A    between atoms: C_2  and  C_3
REMARK    3  A    between atoms: C_2  and  C_11
REMARK    4  A    between atoms: C_3  and  N_4
REMARK    5  A    between atoms: N_4  and  C_5
REMARK    6  A    between atoms: C_11  and  O_12
REMARK    7  A    between atoms: O_12  and  C_13
REMARK                            x       y       z     vdW  Elec       q    Type
REMARK                         _______ _______ _______ _____ _____    ______ ____
ROOT
ATOM      1  C   UNL     1       6.184   5.855  17.627  0.00  0.00    +0.000 C 
ENDROOT
BRANCH   1   2
ATOM      2  O   UNL     1       5.498   6.842  16.836  0.00  0.00    +0.000 OA
ATOM      3  H   UNL     1       5.836   6.779  15.928  0.00  0.00    +0.000 HD
ENDBRANCH   1   2
BRANCH   1   4
ATOM      4  C   UNL     1       5.162   5.012  18.406  0.00  0.00    +0.000 C 
BRANCH   4   5
ATOM      5  N   UNL     1       3.793   5.442  18.117  0.00  0.00    +0.000 N 
ATOM      6  H   UNL     1       3.657   6.443  18.267  0.00  0.00    +0.000 HD
BRANCH   5   7
ATOM      7  C   UNL     1       2.748   4.677  18.650  0.00  0.00    +0.000 A 
ATOM      8  C   UNL     1       2.321   3.532  17.965  0.00  0.00    +0.000 A 
ATOM      9  C   UNL     1       1.299   2.727  18.477  0.00  0.00    +0.000 A 
ATOM     10  C   UNL     1       0.717   3.034  19.705  0.00  0.00    +0.000 A 
ATOM     11  C   UNL     1       1.171   4.131  20.428  0.00  0.00    +0.000 A 
ATOM     12  C   UNL     1       2.190   4.931  19.908  0.00  0.00    +0.000 A 
ENDBRANCH   5   7
ENDBRANCH   4   5
ENDBRANCH   1   4
BRANCH   1  13
ATOM     13  C   UNL     1       7.058   4.967  16.732  0.00  0.00    +0.000 C 
BRANCH  13  14
ATOM     14  O   UNL     1       7.331   5.662  15.510  0.00  0.00    +0.000 OA
BRANCH  14  15
ATOM     15  C   UNL     1       7.039   5.000  14.348  0.00  0.00    +0.000 A 
ATOM     16  C   UNL     1       5.904   4.184  14.423  0.00  0.00    +0.000 A 
ATOM     17  C   UNL     1       5.479   3.448  13.314  0.00  0.00    +0.000 A 
ATOM     18  C   UNL     1       6.179   3.524  12.110  0.00  0.00    +0.000 A 
ATOM     19  C   UNL     1       7.312   4.335  12.027  0.00  0.00    +0.000 A 
ATOM     20  C   UNL     1       7.734   5.065  13.138  0.00  0.00    +0.000 A 
ATOM     21  F   UNL     1       8.817   5.839  12.985  0.00  0.00    +0.000 F 
ENDBRANCH  14  15
ENDBRANCH  13  14
ENDBRANCH   1  13
TORSDOF 7
ENDMDL
MODEL 8
REMARK VINA RESULT:      -6.9      1.101      1.578
REMARK  Name = 
REMARK  7 active torsions:
REMARK  status: ('A' for Active; 'I' for Inactive)
REMARK    1  A    between atoms: O_1  and  C_2
REMARK    2  A    between atoms: C_2  and  C_3
REMARK    3  A    between atoms: C_2  and  C_11
REMARK    4  A    between atoms: C_3  and  N_4
REMARK    5  A    between atoms: N_4  and  C_5
REMARK    6  A    between atoms: C_11  and  O_12
REMARK    7  A    between atoms: O_12  and  C_13
REMARK                            x       y       z     vdW  Elec       q    Type
REMARK                         _______ _______ _______ _____ _____    ______ ____
ROOT
ATOM      1  C   UNL     1       6.191   4.992  17.985  0.00  0.00    +0.000 C 
ENDROOT
BRANCH   1   2
ATOM      2  O   UNL     1       6.714   4.784  19.308  0.00  0.00    +0.000 OA
ATOM      3  H   UNL     1       7.420   4.119  19.245  0.00  0.00    +0.000 HD
ENDBRANCH   1   2
BRANCH   1   4
ATOM      4  C   UNL     1       7.244   4.590  16.940  0.00  0.00    +0.000 C 
BRANCH   4   5
ATOM      5  N   UNL     1       7.221   5.497  15.791  0.00  0.00    +0.000 N 
ATOM      6  H   UNL     1       6.679   6.343  15.971  0.00  0.00    +0.000 HD
BRANCH   5   7
ATOM      7  C   UNL     1       6.942   4.943  14.535  0.00  0.00    +0.000 A 
ATOM      8  C   UNL     1       7.779   5.247  13.453  0.00  0.00    +0.000 A 
ATOM      9  C   UNL     1       7.550   4.695  12.191  0.00  0.00    +0.000 A 
ATOM     10  C   UNL     1       6.502   3.796  12.000  0.00  0.00    +0.000 A 
ATOM     11  C   UNL     1       5.700   3.435  13.077  0.00  0.00    +0.000 A 
ATOM     12  C   UNL     1       5.934   3.994  14.334  0.00  0.00    +0.000 A 
ENDBRANCH   5   7
ENDBRANCH   4   5
ENDBRANCH   1   4
BRANCH   1  13
ATOM     13  C   UNL     1       4.895   4.196  17.791  0.00  0.00    +0.000 C 
BRANCH  13  14
ATOM     14  O   UNL     1       3.796   4.963  18.299  0.00  0.00    +0.000 OA
BRANCH  14  15
ATOM     15  C   UNL     1       2.867   4.286  19.043  0.00  0.00    +0.000 A 
ATOM     16  C   UNL     1       3.313   3.914  20.317  0.00  0.00    +0.000 A 
ATOM     17  C   UNL     1       2.474   3.220  21.193  0.00  0.00    +0.000 A 
ATOM     18  C   UNL     1       1.172   2.898  20.811  0.00  0.00    +0.000 A 
ATOM     19  C   UNL     1       0.720   3.266  19.543  0.00  0.00    +0.000 A 
ATOM     20  C   UNL     1       1.562   3.954  18.671  0.00  0.00    +0.000 A 
ATOM     21  F   UNL     1       1.059   4.295  17.476  0.00  0.00    +0.000 F 
ENDBRANCH  14  15
ENDBRANCH  13  14
ENDBRANCH   1  13
TORSDOF 7
ENDMDL
MODEL 9
REMARK VINA RESULT:      -6.9      1.557      2.099
REMARK  Name = 
REMARK  7 active torsions:
REMARK  status: ('A' for Active; 'I' for Inactive)
REMARK    1  A    between atoms: O_1  and  C_2
REMARK    2  A    between atoms: C_2  and  C_3
REMARK    3  A    between atoms: C_2  and  C_11
REMARK    4  A    between atoms: C_3  and  N_4
REMARK    5  A    between atoms: N_4  and  C_5
REMARK    6  A    between atoms: C_11  and  O_12
REMARK    7  A    between atoms: O_12  and  C_13
REMARK                            x       y       z     vdW  Elec       q    Type
REMARK                         _______ _______ _______ _____ _____    ______ ____
ROOT
ATOM      1  C   UNL     1       5.485   5.291  17.665  0.00  0.00    +0.000 C 
ENDROOT
BRANCH   1   2
ATOM      2  O   UNL     1       6.291   4.107  17.793  0.00  0.00    +0.000 OA
ATOM      3  H   UNL     1       5.821   3.492  18.380  0.00  0.00    +0.000 HD
ENDBRANCH   1   2
BRANCH   1   4
ATOM      4  C   UNL     1       5.987   6.137  16.484  0.00  0.00    +0.000 C 
BRANCH   4   5
ATOM      5  N   UNL     1       7.131   5.500  15.829  0.00  0.00    +0.000 N 
ATOM      6  H   UNL     1       7.978   6.067  15.882  0.00  0.00    +0.000 HD
BRANCH   5   7
ATOM      7  C   UNL     1       6.928   4.965  14.550  0.00  0.00    +0.000 A 
ATOM      8  C   UNL     1       7.773   5.355  13.504  0.00  0.00    +0.000 A 
ATOM      9  C   UNL     1       7.620   4.825  12.220  0.00  0.00    +0.000 A 
ATOM     10  C   UNL     1       6.643   3.863  11.973  0.00  0.00    +0.000 A 
ATOM     11  C   UNL     1       5.836   3.418  13.014  0.00  0.00    +0.000 A 
ATOM     12  C   UNL     1       5.994   3.955  14.293  0.00  0.00    +0.000 A 
ENDBRANCH   5   7
ENDBRANCH   4   5
ENDBRANCH   1   4
BRANCH   1  13
ATOM     13  C   UNL     1       4.009   4.916  17.483  0.00  0.00    +0.000 C 
BRANCH  13  14
ATOM     14  O   UNL     1       3.813   3.566  17.923  0.00  0.00    +0.000 OA
BRANCH  14  15
ATOM     15  C   UNL     1       3.079   3.394  19.066  0.00  0.00    +0.000 A 
ATOM     16  C   UNL     1       1.788   3.933  19.005  0.00  0.00    +0.000 A 
ATOM     17  C   UNL     1       0.920   3.831  20.094  0.00  0.00    +0.000 A 
ATOM     18  C   UNL     1       1.326   3.179  21.258  0.00  0.00    +0.000 A 
ATOM     19  C   UNL     1       2.611   2.638  21.326  0.00  0.00    +0.000 A 
ATOM     20  C   UNL     1       3.475   2.746  20.238  0.00  0.00    +0.000 A 
ATOM     21  F   UNL     1       4.688   2.188  20.362  0.00  0.00    +0.000 F 
ENDBRANCH  14  15
ENDBRANCH  13  14
ENDBRANCH   1  13
TORSDOF 7
ENDMDL
