MODEL 1
REMARK VINA RESULT:      -7.6      0.000      0.000
REMARK  Name = 
REMARK  6 active torsions:
REMARK  status: ('A' for Active; 'I' for Inactive)
REMARK    1  A    between atoms: C_2  and  O_3
REMARK    2  A    between atoms: C_2  and  C_4
REMARK    3  A    between atoms: C_4  and  O_5
REMARK    4  A    between atoms: O_5  and  C_6
REMARK    5  A    between atoms: C_8  and  O_9
REMARK    6  A    between atoms: C_13  and  C_14
REMARK                            x       y       z     vdW  Elec       q    Type
REMARK                         _______ _______ _______ _____ _____    ______ ____
ROOT
ATOM      1  C   UNL     1       4.236   4.238  16.906  0.00  0.00    +0.000 A 
ATOM      2  C   UNL     1       3.873   2.922  17.230  0.00  0.00    +0.000 A 
ATOM      3  C   UNL     1       2.929   2.686  18.224  0.00  0.00    +0.000 A 
ATOM      4  C   UNL     1       2.327   3.739  18.900  0.00  0.00    +0.000 A 
ATOM      5  C   UNL     1       2.655   5.051  18.561  0.00  0.00    +0.000 A 
ATOM      6  O   UNL     1       2.014   6.038  19.275  0.00  0.00    +0.000 OA
ATOM      7  C   UNL     1       2.322   7.350  18.983  0.00  0.00    +0.000 A 
ATOM      8  C   UNL     1       3.171   7.743  18.028  0.00  0.00    +0.000 A 
ATOM      9  C   UNL     1       3.867   6.727  17.220  0.00  0.00    +0.000 A 
ATOM     10  O   UNL     1       4.625   7.085  16.328  0.00  0.00    +0.000 OA
ATOM     11  C   UNL     1       3.592   5.309  17.552  0.00  0.00    +0.000 A 
ENDROOT
BRANCH   7  12
ATOM     12  C   UNL     1       1.652   8.351  19.819  0.00  0.00    +0.000 A 
ATOM     13  C   UNL     1       1.424   8.107  21.179  0.00  0.00    +0.000 A 
ATOM     14  C   UNL     1       0.690   9.017  21.943  0.00  0.00    +0.000 A 
ATOM     15  C   UNL     1       0.187  10.178  21.356  0.00  0.00    +0.000 A 
ATOM     16  C   UNL     1       0.428  10.438  20.008  0.00  0.00    +0.000 A 
ATOM     17  C   UNL     1       1.160   9.529  19.241  0.00  0.00    +0.000 A 
ENDBRANCH   7  12
BRANCH   3  18
ATOM     18  O   UNL     1       2.568   1.416  18.565  0.00  0.00    +0.000 OA
ATOM     19  H   UNL     1       3.321   0.966  18.984  0.00  0.00    +0.000 HD
ENDBRANCH   3  18
BRANCH   1  20
ATOM     20  O   UNL     1       5.168   4.506  15.932  0.00  0.00    +0.000 OA
BRANCH  20  21
ATOM     21  C   UNL     1       6.461   3.928  16.131  0.00  0.00    +0.000 C 
BRANCH  21  23
ATOM     22  O   UNL     1       7.831   4.471  18.059  0.00  0.00    +0.000 OA
ATOM     23  C   UNL     1       7.312   4.827  17.012  0.00  0.00    +0.000 C 
BRANCH  23  24
ATOM     24  O   UNL     1       7.454   6.077  16.511  0.00  0.00    +0.000 OA
ATOM     25  H   UNL     1       7.996   6.059  15.689  0.00  0.00    +0.000 HD
ENDBRANCH  23  24
ENDBRANCH  21  23
ENDBRANCH  20  21
ENDBRANCH   1  20
TORSDOF 6
ENDMDL
MODEL 2
REMARK VINA RESULT:      -7.5      1.107      1.474
REMARK  Name = 
REMARK  6 active torsions:
REMARK  status: ('A' for Active; 'I' for Inactive)
REMARK    1  A    between atoms: C_2  and  O_3
REMARK    2  A    between atoms: C_2  and  C_4
REMARK    3  A    between atoms: C_4  and  O_5
REMARK    4  A    between atoms: O_5  and  C_6
REMARK    5  A    between atoms: C_8  and  O_9
REMARK    6  A    between atoms: C_13  and  C_14
REMARK                            x       y       z     vdW  Elec       q    Type
REMARK                         _______ _______ _______ _____ _____    ______ ____
ROOT
ATOM      1  C   UNL     1       4.653   4.070  17.186  0.00  0.00    +0.000 A 
ATOM      2  C   UNL     1       4.085   2.810  17.425  0.00  0.00    +0.000 A 
ATOM      3  C   UNL     1       2.852   2.712  18.063  0.00  0.00    +0.000 A 
ATOM      4  C   UNL     1       2.163   3.850  18.461  0.00  0.00    +0.000 A 
ATOM      5  C   UNL     1       2.702   5.108  18.196  0.00  0.00    +0.000 A 
ATOM      6  O   UNL     1       1.958   6.186  18.620  0.00  0.00    +0.000 OA
ATOM      7  C   UNL     1       2.463   7.449  18.393  0.00  0.00    +0.000 A 
ATOM      8  C   UNL     1       3.607   7.712  17.755  0.00  0.00    +0.000 A 
ATOM      9  C   UNL     1       4.431   6.595  17.262  0.00  0.00    +0.000 A 
ATOM     10  O   UNL     1       5.467   6.836  16.655  0.00  0.00    +0.000 OA
ATOM     11  C   UNL     1       3.935   5.228  17.542  0.00  0.00    +0.000 A 
ENDROOT
BRANCH   7  12
ATOM     12  C   UNL     1       1.652   8.550  18.922  0.00  0.00    +0.000 A 
ATOM     13  C   UNL     1       1.308   8.595  20.278  0.00  0.00    +0.000 A 
ATOM     14  C   UNL     1       0.447   9.588  20.752  0.00  0.00    +0.000 A 
ATOM     15  C   UNL     1      -0.068  10.544  19.877  0.00  0.00    +0.000 A 
ATOM     16  C   UNL     1       0.288  10.519  18.530  0.00  0.00    +0.000 A 
ATOM     17  C   UNL     1       1.147   9.527  18.053  0.00  0.00    +0.000 A 
ENDBRANCH   7  12
BRANCH   3  18
ATOM     18  O   UNL     1       2.286   1.498  18.316  0.00  0.00    +0.000 OA
ATOM     19  H   UNL     1       1.777   1.543  19.144  0.00  0.00    +0.000 HD
ENDBRANCH   3  18
BRANCH   1  20
ATOM     20  O   UNL     1       5.869   4.203  16.563  0.00  0.00    +0.000 OA
BRANCH  20  21
ATOM     21  C   UNL     1       5.953   3.670  15.238  0.00  0.00    +0.000 C 
BRANCH  21  23
ATOM     22  O   UNL     1       6.890   4.467  13.146  0.00  0.00    +0.000 OA
ATOM     23  C   UNL     1       6.814   4.563  14.362  0.00  0.00    +0.000 C 
BRANCH  23  24
ATOM     24  O   UNL     1       7.492   5.500  15.067  0.00  0.00    +0.000 OA
ATOM     25  H   UNL     1       6.873   6.029  15.620  0.00  0.00    +0.000 HD
ENDBRANCH  23  24
ENDBRANCH  21  23
ENDBRANCH  20  21
ENDBRANCH   1  20
TORSDOF 6
ENDMDL
MODEL 3
REMARK VINA RESULT:      -7.5      0.294      1.049
REMARK  Name = 
REMARK  6 active torsions:
REMARK  status: ('A' for Active; 'I' for Inactive)
REMARK    1  A    between atoms: C_2  and  O_3
REMARK    2  A    between atoms: C_2  and  C_4
REMARK    3  A    between atoms: C_4  and  O_5
REMARK    4  A    between atoms: O_5  and  C_6
REMARK    5  A    between atoms: C_8  and  O_9
REMARK    6  A    between atoms: C_13  and  C_14
REMARK                            x       y       z     vdW  Elec       q    Type
REMARK                         _______ _______ _______ _____ _____    ______ ____
ROOT
ATOM      1  C   UNL     1       4.101   4.295  17.005  0.00  0.00    +0.000 A 
ATOM      2  C   UNL     1       3.757   2.975  17.332  0.00  0.00    +0.000 A 
ATOM      3  C   UNL     1       2.836   2.726  18.344  0.00  0.00    +0.000 A 
ATOM      4  C   UNL     1       2.238   3.770  19.035  0.00  0.00    +0.000 A 
ATOM      5  C   UNL     1       2.545   5.087  18.694  0.00  0.00    +0.000 A 
ATOM      6  O   UNL     1       1.909   6.065  19.424  0.00  0.00    +0.000 OA
ATOM      7  C   UNL     1       2.198   7.381  19.131  0.00  0.00    +0.000 A 
ATOM      8  C   UNL     1       3.023   7.785  18.160  0.00  0.00    +0.000 A 
ATOM      9  C   UNL     1       3.713   6.779  17.334  0.00  0.00    +0.000 A 
ATOM     10  O   UNL     1       4.449   7.148  16.429  0.00  0.00    +0.000 OA
ATOM     11  C   UNL     1       3.459   5.358  17.668  0.00  0.00    +0.000 A 
ENDROOT
BRANCH   7  12
ATOM     12  C   UNL     1       1.534   8.372  19.983  0.00  0.00    +0.000 A 
ATOM     13  C   UNL     1       1.044   9.566  19.440  0.00  0.00    +0.000 A 
ATOM     14  C   UNL     1       0.511  10.551  20.275  0.00  0.00    +0.000 A 
ATOM     15  C   UNL     1       0.456  10.346  21.654  0.00  0.00    +0.000 A 
ATOM     16  C   UNL     1       0.921   9.151  22.199  0.00  0.00    +0.000 A 
ATOM     17  C   UNL     1       1.457   8.165  21.367  0.00  0.00    +0.000 A 
ENDBRANCH   7  12
BRANCH   3  18
ATOM     18  O   UNL     1       2.496   1.451  18.688  0.00  0.00    +0.000 OA
ATOM     19  H   UNL     1       3.180   1.078  19.269  0.00  0.00    +0.000 HD
ENDBRANCH   3  18
BRANCH   1  20
ATOM     20  O   UNL     1       5.009   4.576  16.013  0.00  0.00    +0.000 OA
BRANCH  20  21
ATOM     21  C   UNL     1       6.225   3.823  16.051  0.00  0.00    +0.000 C 
BRANCH  21  23
ATOM     22  O   UNL     1       8.202   4.238  17.396  0.00  0.00    +0.000 OA
ATOM     23  C   UNL     1       7.350   4.663  16.631  0.00  0.00    +0.000 C 
BRANCH  23  24
ATOM     24  O   UNL     1       7.326   5.947  16.200  0.00  0.00    +0.000 OA
ATOM     25  H   UNL     1       7.187   5.981  15.226  0.00  0.00    +0.000 HD
ENDBRANCH  23  24
ENDBRANCH  21  23
ENDBRANCH  20  21
ENDBRANCH   1  20
TORSDOF 6
ENDMDL
MODEL 4
REMARK VINA RESULT:      -7.4      1.225      1.858
REMARK  Name = 
REMARK  6 active torsions:
REMARK  status: ('A' for Active; 'I' for Inactive)
REMARK    1  A    between atoms: C_2  and  O_3
REMARK    2  A    between atoms: C_2  and  C_4
REMARK    3  A    between atoms: C_4  and  O_5
REMARK    4  A    between atoms: O_5  and  C_6
REMARK    5  A    between atoms: C_8  and  O_9
REMARK    6  A    between atoms: C_13  and  C_14
REMARK                            x       y       z     vdW  Elec       q    Type
REMARK                         _______ _______ _______ _____ _____    ______ ____
ROOT
ATOM      1  C   UNL     1       4.754   4.083  16.926  0.00  0.00    +0.000 A 
ATOM      2  C   UNL     1       4.181   2.824  17.162  0.00  0.00    +0.000 A 
ATOM      3  C   UNL     1       2.968   2.727  17.837  0.00  0.00    +0.000 A 
ATOM      4  C   UNL     1       2.304   3.864  18.275  0.00  0.00    +0.000 A 
ATOM      5  C   UNL     1       2.845   5.122  18.014  0.00  0.00    +0.000 A 
ATOM      6  O   UNL     1       2.126   6.199  18.478  0.00  0.00    +0.000 OA
ATOM      7  C   UNL     1       2.635   7.461  18.256  0.00  0.00    +0.000 A 
ATOM      8  C   UNL     1       3.762   7.725  17.586  0.00  0.00    +0.000 A 
ATOM      9  C   UNL     1       4.559   6.609  17.049  0.00  0.00    +0.000 A 
ATOM     10  O   UNL     1       5.577   6.849  16.415  0.00  0.00    +0.000 OA
ATOM     11  C   UNL     1       4.059   5.241  17.323  0.00  0.00    +0.000 A 
ENDROOT
BRANCH   7  12
ATOM     12  C   UNL     1       1.852   8.561  18.828  0.00  0.00    +0.000 A 
ATOM     13  C   UNL     1       1.600   9.719  18.082  0.00  0.00    +0.000 A 
ATOM     14  C   UNL     1       0.947  10.805  18.671  0.00  0.00    +0.000 A 
ATOM     15  C   UNL     1       0.536  10.737  20.001  0.00  0.00    +0.000 A 
ATOM     16  C   UNL     1       0.764   9.580  20.743  0.00  0.00    +0.000 A 
ATOM     17  C   UNL     1       1.418   8.493  20.158  0.00  0.00    +0.000 A 
ENDBRANCH   7  12
BRANCH   3  18
ATOM     18  O   UNL     1       2.399   1.514  18.088  0.00  0.00    +0.000 OA
ATOM     19  H   UNL     1       2.870   1.080  18.819  0.00  0.00    +0.000 HD
ENDBRANCH   3  18
BRANCH   1  20
ATOM     20  O   UNL     1       5.952   4.215  16.267  0.00  0.00    +0.000 OA
BRANCH  20  21
ATOM     21  C   UNL     1       5.953   3.821  14.892  0.00  0.00    +0.000 C 
BRANCH  21  23
ATOM     22  O   UNL     1       7.129   4.557  12.900  0.00  0.00    +0.000 OA
ATOM     23  C   UNL     1       6.959   4.646  14.107  0.00  0.00    +0.000 C 
BRANCH  23  24
ATOM     24  O   UNL     1       7.652   5.513  14.883  0.00  0.00    +0.000 OA
ATOM     25  H   UNL     1       8.540   5.688  14.496  0.00  0.00    +0.000 HD
ENDBRANCH  23  24
ENDBRANCH  21  23
ENDBRANCH  20  21
ENDBRANCH   1  20
TORSDOF 6
ENDMDL
MODEL 5
REMARK VINA RESULT:      -7.4      2.262      7.101
REMARK  Name = 
REMARK  6 active torsions:
REMARK  status: ('A' for Active; 'I' for Inactive)
REMARK    1  A    between atoms: C_2  and  O_3
REMARK    2  A    between atoms: C_2  and  C_4
REMARK    3  A    between atoms: C_4  and  O_5
REMARK    4  A    between atoms: O_5  and  C_6
REMARK    5  A    between atoms: C_8  and  O_9
REMARK    6  A    between atoms: C_13  and  C_14
REMARK                            x       y       z     vdW  Elec       q    Type
REMARK                         _______ _______ _______ _____ _____    ______ ____
ROOT
ATOM      1  C   UNL     1       3.132   5.708  19.436  0.00  0.00    +0.000 A 
ATOM      2  C   UNL     1       2.519   6.968  19.500  0.00  0.00    +0.000 A 
ATOM      3  C   UNL     1       2.640   7.855  18.435  0.00  0.00    +0.000 A 
ATOM      4  C   UNL     1       3.353   7.508  17.296  0.00  0.00    +0.000 A 
ATOM      5  C   UNL     1       3.936   6.245  17.208  0.00  0.00    +0.000 A 
ATOM      6  O   UNL     1       4.624   5.976  16.046  0.00  0.00    +0.000 OA
ATOM      7  C   UNL     1       5.231   4.744  15.924  0.00  0.00    +0.000 A 
ATOM      8  C   UNL     1       5.170   3.768  16.836  0.00  0.00    +0.000 A 
ATOM      9  C   UNL     1       4.428   3.995  18.088  0.00  0.00    +0.000 A 
ATOM     10  O   UNL     1       4.351   3.094  18.912  0.00  0.00    +0.000 OA
ATOM     11  C   UNL     1       3.814   5.332  18.263  0.00  0.00    +0.000 A 
ENDROOT
BRANCH   7  12
ATOM     12  C   UNL     1       5.998   4.544  14.691  0.00  0.00    +0.000 A 
ATOM     13  C   UNL     1       7.171   5.271  14.454  0.00  0.00    +0.000 A 
ATOM     14  C   UNL     1       7.836   5.153  13.231  0.00  0.00    +0.000 A 
ATOM     15  C   UNL     1       7.338   4.304  12.243  0.00  0.00    +0.000 A 
ATOM     16  C   UNL     1       6.183   3.561  12.479  0.00  0.00    +0.000 A 
ATOM     17  C   UNL     1       5.515   3.677  13.700  0.00  0.00    +0.000 A 
ENDBRANCH   7  12
BRANCH   3  18
ATOM     18  O   UNL     1       2.063   9.090  18.479  0.00  0.00    +0.000 OA
ATOM     19  H   UNL     1       1.345   9.089  19.135  0.00  0.00    +0.000 HD
ENDBRANCH   3  18
BRANCH   1  20
ATOM     20  O   UNL     1       3.037   4.810  20.471  0.00  0.00    +0.000 OA
BRANCH  20  21
ATOM     21  C   UNL     1       1.709   4.445  20.860  0.00  0.00    +0.000 C 
BRANCH  21  23
ATOM     22  O   UNL     1       1.581   2.469  22.263  0.00  0.00    +0.000 OA
ATOM     23  C   UNL     1       1.631   2.955  21.143  0.00  0.00    +0.000 C 
BRANCH  23  24
ATOM     24  O   UNL     1       1.608   2.204  20.016  0.00  0.00    +0.000 OA
ATOM     25  H   UNL     1       0.947   1.480  20.098  0.00  0.00    +0.000 HD
ENDBRANCH  23  24
ENDBRANCH  21  23
ENDBRANCH  20  21
ENDBRANCH   1  20
TORSDOF 6
ENDMDL
MODEL 6
REMARK VINA RESULT:      -7.4      3.113      7.059
REMARK  Name = 
REMARK  6 active torsions:
REMARK  status: ('A' for Active; 'I' for Inactive)
REMARK    1  A    between atoms: C_2  and  O_3
REMARK    2  A    between atoms: C_2  and  C_4
REMARK    3  A    between atoms: C_4  and  O_5
REMARK    4  A    between atoms: O_5  and  C_6
REMARK    5  A    between atoms: C_8  and  O_9
REMARK    6  A    between atoms: C_13  and  C_14
REMARK                            x       y       z     vdW  Elec       q    Type
REMARK                         _______ _______ _______ _____ _____    ______ ____
ROOT
ATOM      1  C   UNL     1       0.919  10.491  19.939  0.00  0.00    +0.000 A 
ATOM      2  C   UNL     1       0.526  10.709  21.268  0.00  0.00    +0.000 A 
ATOM      3  C   UNL     1       0.605   9.675  22.195  0.00  0.00    +0.000 A 
ATOM      4  C   UNL     1       1.079   8.423  21.827  0.00  0.00    +0.000 A 
ATOM      5  C   UNL     1       1.505   8.206  20.518  0.00  0.00    +0.000 A 
ATOM      6  O   UNL     1       1.963   6.939  20.233  0.00  0.00    +0.000 OA
ATOM      7  C   UNL     1       2.378   6.677  18.944  0.00  0.00    +0.000 A 
ATOM      8  C   UNL     1       2.408   7.573  17.953  0.00  0.00    +0.000 A 
ATOM      9  C   UNL     1       1.948   8.949  18.210  0.00  0.00    +0.000 A 
ATOM     10  O   UNL     1       1.998   9.776  17.310  0.00  0.00    +0.000 OA
ATOM     11  C   UNL     1       1.447   9.239  19.573  0.00  0.00    +0.000 A 
ENDROOT
BRANCH   7  12
ATOM     12  C   UNL     1       2.797   5.295  18.692  0.00  0.00    +0.000 A 
ATOM     13  C   UNL     1       2.042   4.463  17.856  0.00  0.00    +0.000 A 
ATOM     14  C   UNL     1       2.388   3.118  17.706  0.00  0.00    +0.000 A 
ATOM     15  C   UNL     1       3.492   2.599  18.383  0.00  0.00    +0.000 A 
ATOM     16  C   UNL     1       4.261   3.427  19.199  0.00  0.00    +0.000 A 
ATOM     17  C   UNL     1       3.917   4.771  19.352  0.00  0.00    +0.000 A 
ENDBRANCH   7  12
BRANCH   3  18
ATOM     18  O   UNL     1       0.219   9.859  23.490  0.00  0.00    +0.000 OA
ATOM     19  H   UNL     1       0.011   8.999  23.892  0.00  0.00    +0.000 HD
ENDBRANCH   3  18
BRANCH   1  20
ATOM     20  O   UNL     1       0.850  11.489  18.997  0.00  0.00    +0.000 OA
BRANCH  20  21
ATOM     21  C   UNL     1       1.362  12.762  19.400  0.00  0.00    +0.000 C 
BRANCH  21  23
ATOM     22  O   UNL     1       3.379  13.979  18.818  0.00  0.00    +0.000 OA
ATOM     23  C   UNL     1       2.513  13.178  18.500  0.00  0.00    +0.000 C 
BRANCH  23  24
ATOM     24  O   UNL     1       2.495  12.555  17.298  0.00  0.00    +0.000 OA
ATOM     25  H   UNL     1       3.348  12.692  16.826  0.00  0.00    +0.000 HD
ENDBRANCH  23  24
ENDBRANCH  21  23
ENDBRANCH  20  21
ENDBRANCH   1  20
TORSDOF 6
ENDMDL
MODEL 7
REMARK VINA RESULT:      -7.3      1.513      2.072
REMARK  Name = 
REMARK  6 active torsions:
REMARK  status: ('A' for Active; 'I' for Inactive)
REMARK    1  A    between atoms: C_2  and  O_3
REMARK    2  A    between atoms: C_2  and  C_4
REMARK    3  A    between atoms: C_4  and  O_5
REMARK    4  A    between atoms: O_5  and  C_6
REMARK    5  A    between atoms: C_8  and  O_9
REMARK    6  A    between atoms: C_13  and  C_14
REMARK                            x       y       z     vdW  Elec       q    Type
REMARK                         _______ _______ _______ _____ _____    ______ ____
ROOT
ATOM      1  C   UNL     1       3.417   5.137  18.489  0.00  0.00    +0.000 A 
ATOM      2  C   UNL     1       3.426   3.888  19.129  0.00  0.00    +0.000 A 
ATOM      3  C   UNL     1       2.780   3.728  20.350  0.00  0.00    +0.000 A 
ATOM      4  C   UNL     1       2.113   4.788  20.948  0.00  0.00    +0.000 A 
ATOM      5  C   UNL     1       2.068   6.024  20.304  0.00  0.00    +0.000 A 
ATOM      6  O   UNL     1       1.385   7.023  20.960  0.00  0.00    +0.000 OA
ATOM      7  C   UNL     1       1.331   8.267  20.366  0.00  0.00    +0.000 A 
ATOM      8  C   UNL     1       1.860   8.570  19.176  0.00  0.00    +0.000 A 
ATOM      9  C   UNL     1       2.583   7.531  18.422  0.00  0.00    +0.000 A 
ATOM     10  O   UNL     1       3.045   7.800  17.322  0.00  0.00    +0.000 OA
ATOM     11  C   UNL     1       2.700   6.201  19.066  0.00  0.00    +0.000 A 
ENDROOT
BRANCH   7  12
ATOM     12  C   UNL     1       0.642   9.302  21.143  0.00  0.00    +0.000 A 
ATOM     13  C   UNL     1       0.216   9.045  22.451  0.00  0.00    +0.000 A 
ATOM     14  C   UNL     1      -0.533   9.998  23.145  0.00  0.00    +0.000 A 
ATOM     15  C   UNL     1      -0.854  11.213  22.540  0.00  0.00    +0.000 A 
ATOM     16  C   UNL     1      -0.415  11.484  21.246  0.00  0.00    +0.000 A 
ATOM     17  C   UNL     1       0.333  10.533  20.549  0.00  0.00    +0.000 A 
ENDBRANCH   7  12
BRANCH   3  18
ATOM     18  O   UNL     1       2.784   2.527  20.996  0.00  0.00    +0.000 OA
ATOM     19  H   UNL     1       2.517   2.655  21.922  0.00  0.00    +0.000 HD
ENDBRANCH   3  18
BRANCH   1  20
ATOM     20  O   UNL     1       4.049   5.331  17.285  0.00  0.00    +0.000 OA
BRANCH  20  21
ATOM     21  C   UNL     1       5.453   5.059  17.266  0.00  0.00    +0.000 C 
BRANCH  21  23
ATOM     22  O   UNL     1       7.387   6.239  16.396  0.00  0.00    +0.000 OA
ATOM     23  C   UNL     1       6.177   6.073  16.397  0.00  0.00    +0.000 C 
BRANCH  23  24
ATOM     24  O   UNL     1       5.339   6.779  15.600  0.00  0.00    +0.000 OA
ATOM     25  H   UNL     1       5.210   6.316  14.741  0.00  0.00    +0.000 HD
ENDBRANCH  23  24
ENDBRANCH  21  23
ENDBRANCH  20  21
ENDBRANCH   1  20
TORSDOF 6
ENDMDL
MODEL 8
REMARK VINA RESULT:      -7.3      3.269      7.709
REMARK  Name = 
REMARK  6 active torsions:
REMARK  status: ('A' for Active; 'I' for Inactive)
REMARK    1  A    between atoms: C_2  and  O_3
REMARK    2  A    between atoms: C_2  and  C_4
REMARK    3  A    between atoms: C_4  and  O_5
REMARK    4  A    between atoms: O_5  and  C_6
REMARK    5  A    between atoms: C_8  and  O_9
REMARK    6  A    between atoms: C_13  and  C_14
REMARK                            x       y       z     vdW  Elec       q    Type
REMARK                         _______ _______ _______ _____ _____    ______ ____
ROOT
ATOM      1  C   UNL     1       0.239  10.740  20.501  0.00  0.00    +0.000 A 
ATOM      2  C   UNL     1      -0.049  10.645  21.871  0.00  0.00    +0.000 A 
ATOM      3  C   UNL     1       0.320   9.508  22.583  0.00  0.00    +0.000 A 
ATOM      4  C   UNL     1       0.983   8.461  21.958  0.00  0.00    +0.000 A 
ATOM      5  C   UNL     1       1.306   8.559  20.606  0.00  0.00    +0.000 A 
ATOM      6  O   UNL     1       1.964   7.480  20.060  0.00  0.00    +0.000 OA
ATOM      7  C   UNL     1       2.287   7.530  18.720  0.00  0.00    +0.000 A 
ATOM      8  C   UNL     1       2.043   8.567  17.912  0.00  0.00    +0.000 A 
ATOM      9  C   UNL     1       1.360   9.755  18.450  0.00  0.00    +0.000 A 
ATOM     10  O   UNL     1       1.159  10.715  17.718  0.00  0.00    +0.000 OA
ATOM     11  C   UNL     1       0.956   9.703  19.875  0.00  0.00    +0.000 A 
ENDROOT
BRANCH   7  12
ATOM     12  C   UNL     1       2.933   6.326  18.188  0.00  0.00    +0.000 A 
ATOM     13  C   UNL     1       4.225   6.388  17.652  0.00  0.00    +0.000 A 
ATOM     14  C   UNL     1       4.790   5.262  17.050  0.00  0.00    +0.000 A 
ATOM     15  C   UNL     1       4.073   4.067  16.987  0.00  0.00    +0.000 A 
ATOM     16  C   UNL     1       2.795   3.992  17.537  0.00  0.00    +0.000 A 
ATOM     17  C   UNL     1       2.226   5.117  18.138  0.00  0.00    +0.000 A 
ENDBRANCH   7  12
BRANCH   3  18
ATOM     18  O   UNL     1       0.041   9.389  23.912  0.00  0.00    +0.000 OA
ATOM     19  H   UNL     1       0.838   9.592  24.430  0.00  0.00    +0.000 HD
ENDBRANCH   3  18
BRANCH   1  20
ATOM     20  O   UNL     1      -0.115  11.846  19.768  0.00  0.00    +0.000 OA
BRANCH  20  21
ATOM     21  C   UNL     1      -1.517  12.119  19.689  0.00  0.00    +0.000 C 
BRANCH  21  23
ATOM     22  O   UNL     1      -3.019  11.382  17.931  0.00  0.00    +0.000 OA
ATOM     23  C   UNL     1      -2.003  11.978  18.257  0.00  0.00    +0.000 C 
BRANCH  23  24
ATOM     24  O   UNL     1      -1.198  12.598  17.362  0.00  0.00    +0.000 OA
ATOM     25  H   UNL     1      -0.940  11.978  16.643  0.00  0.00    +0.000 HD
ENDBRANCH  23  24
ENDBRANCH  21  23
ENDBRANCH  20  21
ENDBRANCH   1  20
TORSDOF 6
ENDMDL
MODEL 9
REMARK VINA RESULT:      -7.3      3.143      7.433
REMARK  Name = 
REMARK  6 active torsions:
REMARK  status: ('A' for Active; 'I' for Inactive)
REMARK    1  A    between atoms: C_2  and  O_3
REMARK    2  A    between atoms: C_2  and  C_4
REMARK    3  A    between atoms: C_4  and  O_5
REMARK    4  A    between atoms: O_5  and  C_6
REMARK    5  A    between atoms: C_8  and  O_9
REMARK    6  A    between atoms: C_13  and  C_14
REMARK                            x       y       z     vdW  Elec       q    Type
REMARK                         _______ _______ _______ _____ _____    ______ ____
ROOT
ATOM      1  C   UNL     1       0.722  10.651  19.996  0.00  0.00    +0.000 A 
ATOM      2  C   UNL     1       0.312  10.856  21.322  0.00  0.00    +0.000 A 
ATOM      3  C   UNL     1       0.430   9.828  22.253  0.00  0.00    +0.000 A 
ATOM      4  C   UNL     1       0.959   8.597  21.891  0.00  0.00    +0.000 A 
ATOM      5  C   UNL     1       1.402   8.395  20.585  0.00  0.00    +0.000 A 
ATOM      6  O   UNL     1       1.916   7.148  20.306  0.00  0.00    +0.000 OA
ATOM      7  C   UNL     1       2.350   6.901  19.021  0.00  0.00    +0.000 A 
ATOM      8  C   UNL     1       2.347   7.795  18.027  0.00  0.00    +0.000 A 
ATOM      9  C   UNL     1       1.828   9.150  18.277  0.00  0.00    +0.000 A 
ATOM     10  O   UNL     1       1.848   9.976  17.375  0.00  0.00    +0.000 OA
ATOM     11  C   UNL     1       1.306   9.422  19.637  0.00  0.00    +0.000 A 
ENDROOT
BRANCH   7  12
ATOM     12  C   UNL     1       2.829   5.537  18.775  0.00  0.00    +0.000 A 
ATOM     13  C   UNL     1       4.005   5.075  19.379  0.00  0.00    +0.000 A 
ATOM     14  C   UNL     1       4.512   3.814  19.055  0.00  0.00    +0.000 A 
ATOM     15  C   UNL     1       3.845   3.007  18.134  0.00  0.00    +0.000 A 
ATOM     16  C   UNL     1       2.663   3.451  17.546  0.00  0.00    +0.000 A 
ATOM     17  C   UNL     1       2.154   4.711  17.866  0.00  0.00    +0.000 A 
ENDBRANCH   7  12
BRANCH   3  18
ATOM     18  O   UNL     1       0.028   9.999  23.544  0.00  0.00    +0.000 OA
ATOM     19  H   UNL     1       0.599  10.657  23.977  0.00  0.00    +0.000 HD
ENDBRANCH   3  18
BRANCH   1  20
ATOM     20  O   UNL     1       0.616  11.643  19.051  0.00  0.00    +0.000 OA
BRANCH  20  21
ATOM     21  C   UNL     1      -0.668  12.263  18.940  0.00  0.00    +0.000 C 
BRANCH  21  23
ATOM     22  O   UNL     1      -2.818  11.200  18.569  0.00  0.00    +0.000 OA
ATOM     23  C   UNL     1      -1.647  11.332  18.246  0.00  0.00    +0.000 C 
BRANCH  23  24
ATOM     24  O   UNL     1      -1.093  10.662  17.207  0.00  0.00    +0.000 OA
ATOM     25  H   UNL     1      -1.772  10.118  16.747  0.00  0.00    +0.000 HD
ENDBRANCH  23  24
ENDBRANCH  21  23
ENDBRANCH  20  21
ENDBRANCH   1  20
TORSDOF 6
ENDMDL
