MODEL 1
REMARK VINA RESULT:      -8.4      0.000      0.000
REMARK  Name = 
REMARK  8 active torsions:
REMARK  status: ('A' for Active; 'I' for Inactive)
REMARK    1  A    between atoms: C_1  and  C_2
REMARK    2  A    between atoms: C_2  and  C_3
REMARK    3  A    between atoms: C_3  and  C_4
REMARK    4  A    between atoms: C_3  and  N_10
REMARK    5  A    between atoms: N_10  and  C_11
REMARK    6  A    between atoms: C_12  and  C_14
REMARK    7  A    between atoms: N_21  and  C_22
REMARK    8  A    between atoms: C_26  and  C_27
REMARK                            x       y       z     vdW  Elec       q    Type
REMARK                         _______ _______ _______ _____ _____    ______ ____
ROOT
ATOM      1  C   UNL     1       2.388   6.487  19.191  0.00  0.00    +0.000 A 
ATOM      2  C   UNL     1       1.915   6.353  20.472  0.00  0.00    +0.000 A 
ATOM      3  N   UNL     1       1.342   7.337  21.181  0.00  0.00    +0.000 NA
ATOM      4  C   UNL     1       1.270   8.552  20.624  0.00  0.00    +0.000 A 
ATOM      5  N   UNL     1       0.543   9.508  21.290  0.00  0.00    +0.000 N 
ATOM      6  C   UNL     1       0.398   9.340  22.738  0.00  0.00    +0.000 C 
ATOM      7  C   UNL     1      -0.863  10.090  23.215  0.00  0.00    +0.000 C 
ATOM      8  N   UNL     1      -0.859  11.519  22.831  0.00  0.00    +0.000 NA
ATOM      9  C   UNL     1      -2.117  12.144  23.236  0.00  0.00    +0.000 C 
ATOM     10  C   UNL     1      -0.663  11.640  21.365  0.00  0.00    +0.000 C 
ATOM     11  C   UNL     1       0.600  10.899  20.851  0.00  0.00    +0.000 C 
ATOM     12  N   UNL     1       1.802   8.812  19.419  0.00  0.00    +0.000 NA
ATOM     13  C   UNL     1       2.371   7.789  18.715  0.00  0.00    +0.000 A 
ATOM     14  C   UNL     1       3.021   8.205  17.427  0.00  0.00    +0.000 C 
ENDROOT
BRANCH   1  17
ATOM     15  N   UNL     1       4.241   4.890  18.601  0.00  0.00    +0.000 N 
ATOM     16  C   UNL     1       5.229   5.505  19.488  0.00  0.00    +0.000 C 
ATOM     17  C   UNL     1       2.908   5.320  18.434  0.00  0.00    +0.000 C 
ATOM     18  O   UNL     1       2.125   4.747  17.682  0.00  0.00    +0.000 OA
BRANCH  15  19
ATOM     19  C   UNL     1       4.693   3.689  17.847  0.00  0.00    +0.000 C 
BRANCH  19  20
ATOM     20  C   UNL     1       5.477   4.126  16.606  0.00  0.00    +0.000 A 
ATOM     21  C   UNL     1       4.864   4.107  15.343  0.00  0.00    +0.000 A 
ATOM     22  C   UNL     1       5.598   4.413  14.200  0.00  0.00    +0.000 A 
ATOM     23  C   UNL     1       6.930   4.753  14.348  0.00  0.00    +0.000 A 
ATOM     24  N   UNL     1       7.555   4.815  15.540  0.00  0.00    +0.000 NA
ATOM     25  C   UNL     1       6.816   4.502  16.635  0.00  0.00    +0.000 A 
ENDBRANCH  19  20
BRANCH  19  27
ATOM     26  C   UNL     1       3.453   1.499  18.439  0.00  0.00    +0.000 C 
ATOM     27  C   UNL     1       3.507   2.735  17.551  0.00  0.00    +0.000 C 
ENDBRANCH  19  27
ENDBRANCH  15  19
ENDBRANCH   1  17
TORSDOF 4
ENDMDL
MODEL 2
REMARK VINA RESULT:      -8.1      1.416      2.322
REMARK  Name = 
REMARK  8 active torsions:
REMARK  status: ('A' for Active; 'I' for Inactive)
REMARK    1  A    between atoms: C_1  and  C_2
REMARK    2  A    between atoms: C_2  and  C_3
REMARK    3  A    between atoms: C_3  and  C_4
REMARK    4  A    between atoms: C_3  and  N_10
REMARK    5  A    between atoms: N_10  and  C_11
REMARK    6  A    between atoms: C_12  and  C_14
REMARK    7  A    between atoms: N_21  and  C_22
REMARK    8  A    between atoms: C_26  and  C_27
REMARK                            x       y       z     vdW  Elec       q    Type
REMARK                         _______ _______ _______ _____ _____    ______ ____
ROOT
ATOM      1  C   UNL     1       2.819   6.963  19.014  0.00  0.00    +0.000 A 
ATOM      2  C   UNL     1       2.713   8.026  18.153  0.00  0.00    +0.000 A 
ATOM      3  N   UNL     1       1.956   9.112  18.370  0.00  0.00    +0.000 NA
ATOM      4  C   UNL     1       1.209   9.144  19.480  0.00  0.00    +0.000 A 
ATOM      5  N   UNL     1       0.564  10.322  19.772  0.00  0.00    +0.000 N 
ATOM      6  C   UNL     1       0.268  11.210  18.646  0.00  0.00    +0.000 C 
ATOM      7  C   UNL     1       0.113  12.655  19.163  0.00  0.00    +0.000 C 
ATOM      8  N   UNL     1      -0.903  12.775  20.232  0.00  0.00    +0.000 NA
ATOM      9  C   UNL     1      -0.933  14.148  20.734  0.00  0.00    +0.000 C 
ATOM     10  C   UNL     1      -0.587  11.824  21.327  0.00  0.00    +0.000 C 
ATOM     11  C   UNL     1      -0.428  10.358  20.842  0.00  0.00    +0.000 C 
ATOM     12  N   UNL     1       1.159   8.107  20.332  0.00  0.00    +0.000 NA
ATOM     13  C   UNL     1       1.947   7.018  20.091  0.00  0.00    +0.000 A 
ATOM     14  C   UNL     1       1.744   5.877  21.046  0.00  0.00    +0.000 C 
ENDROOT
BRANCH   1  17
ATOM     15  N   UNL     1       3.346   4.699  18.052  0.00  0.00    +0.000 N 
ATOM     16  C   UNL     1       2.001   4.465  17.526  0.00  0.00    +0.000 C 
ATOM     17  C   UNL     1       3.765   5.849  18.752  0.00  0.00    +0.000 C 
ATOM     18  O   UNL     1       4.918   5.987  19.153  0.00  0.00    +0.000 OA
BRANCH  15  19
ATOM     19  C   UNL     1       4.349   3.633  17.782  0.00  0.00    +0.000 C 
BRANCH  19  20
ATOM     20  C   UNL     1       5.307   4.096  16.679  0.00  0.00    +0.000 A 
ATOM     21  C   UNL     1       4.869   4.159  15.347  0.00  0.00    +0.000 A 
ATOM     22  C   UNL     1       5.760   4.488  14.328  0.00  0.00    +0.000 A 
ATOM     23  C   UNL     1       7.070   4.768  14.669  0.00  0.00    +0.000 A 
ATOM     24  N   UNL     1       7.531   4.752  15.934  0.00  0.00    +0.000 NA
ATOM     25  C   UNL     1       6.641   4.417  16.905  0.00  0.00    +0.000 A 
ENDBRANCH  19  20
BRANCH  19  27
ATOM     26  C   UNL     1       3.587   1.340  18.701  0.00  0.00    +0.000 C 
ATOM     27  C   UNL     1       3.660   2.274  17.500  0.00  0.00    +0.000 C 
ENDBRANCH  19  27
ENDBRANCH  15  19
ENDBRANCH   1  17
TORSDOF 4
ENDMDL
MODEL 3
REMARK VINA RESULT:      -7.8      1.143      2.096
REMARK  Name = 
REMARK  8 active torsions:
REMARK  status: ('A' for Active; 'I' for Inactive)
REMARK    1  A    between atoms: C_1  and  C_2
REMARK    2  A    between atoms: C_2  and  C_3
REMARK    3  A    between atoms: C_3  and  C_4
REMARK    4  A    between atoms: C_3  and  N_10
REMARK    5  A    between atoms: N_10  and  C_11
REMARK    6  A    between atoms: C_12  and  C_14
REMARK    7  A    between atoms: N_21  and  C_22
REMARK    8  A    between atoms: C_26  and  C_27
REMARK                            x       y       z     vdW  Elec       q    Type
REMARK                         _______ _______ _______ _____ _____    ______ ____
ROOT
ATOM      1  C   UNL     1       2.848   6.341  19.549  0.00  0.00    +0.000 A 
ATOM      2  C   UNL     1       2.686   7.572  18.966  0.00  0.00    +0.000 A 
ATOM      3  N   UNL     1       1.886   8.540  19.435  0.00  0.00    +0.000 NA
ATOM      4  C   UNL     1       1.150   8.275  20.521  0.00  0.00    +0.000 A 
ATOM      5  N   UNL     1       0.458   9.319  21.085  0.00  0.00    +0.000 N 
ATOM      6  C   UNL     1       0.112  10.436  20.203  0.00  0.00    +0.000 C 
ATOM      7  C   UNL     1      -0.099  11.708  21.049  0.00  0.00    +0.000 C 
ATOM      8  N   UNL     1      -1.108  11.525  22.116  0.00  0.00    +0.000 NA
ATOM      9  C   UNL     1      -1.192  12.736  22.931  0.00  0.00    +0.000 C 
ATOM     10  C   UNL     1      -0.740  10.356  22.953  0.00  0.00    +0.000 C 
ATOM     11  C   UNL     1      -0.523   9.057  22.133  0.00  0.00    +0.000 C 
ATOM     12  N   UNL     1       1.154   7.064  21.101  0.00  0.00    +0.000 NA
ATOM     13  C   UNL     1       1.985   6.099  20.608  0.00  0.00    +0.000 A 
ATOM     14  C   UNL     1       1.842   4.756  21.264  0.00  0.00    +0.000 C 
ENDROOT
BRANCH   1  17
ATOM     15  N   UNL     1       3.475   4.432  18.035  0.00  0.00    +0.000 N 
ATOM     16  C   UNL     1       2.151   4.309  17.425  0.00  0.00    +0.000 C 
ATOM     17  C   UNL     1       3.838   5.365  19.029  0.00  0.00    +0.000 C 
ATOM     18  O   UNL     1       4.976   5.423  19.487  0.00  0.00    +0.000 OA
BRANCH  15  19
ATOM     19  C   UNL     1       4.521   3.505  17.523  0.00  0.00    +0.000 C 
BRANCH  19  20
ATOM     20  C   UNL     1       5.185   4.114  16.283  0.00  0.00    +0.000 A 
ATOM     21  C   UNL     1       5.643   3.283  15.250  0.00  0.00    +0.000 A 
ATOM     22  C   UNL     1       6.330   3.822  14.165  0.00  0.00    +0.000 A 
ATOM     23  C   UNL     1       6.526   5.190  14.128  0.00  0.00    +0.000 A 
ATOM     24  N   UNL     1       6.078   6.033  15.078  0.00  0.00    +0.000 NA
ATOM     25  C   UNL     1       5.421   5.477  16.129  0.00  0.00    +0.000 A 
ENDBRANCH  19  20
BRANCH  19  27
ATOM     26  C   UNL     1       3.579   1.346  18.588  0.00  0.00    +0.000 C 
ATOM     27  C   UNL     1       3.950   2.081  17.306  0.00  0.00    +0.000 C 
ENDBRANCH  19  27
ENDBRANCH  15  19
ENDBRANCH   1  17
TORSDOF 4
ENDMDL
MODEL 4
REMARK VINA RESULT:      -7.7      2.992      9.496
REMARK  Name = 
REMARK  8 active torsions:
REMARK  status: ('A' for Active; 'I' for Inactive)
REMARK    1  A    between atoms: C_1  and  C_2
REMARK    2  A    between atoms: C_2  and  C_3
REMARK    3  A    between atoms: C_3  and  C_4
REMARK    4  A    between atoms: C_3  and  N_10
REMARK    5  A    between atoms: N_10  and  C_11
REMARK    6  A    between atoms: C_12  and  C_14
REMARK    7  A    between atoms: N_21  and  C_22
REMARK    8  A    between atoms: C_26  and  C_27
REMARK                            x       y       z     vdW  Elec       q    Type
REMARK                         _______ _______ _______ _____ _____    ______ ____
ROOT
ATOM      1  C   UNL     1       1.114   9.336  20.327  0.00  0.00    +0.000 A 
ATOM      2  C   UNL     1       0.831   8.314  21.197  0.00  0.00    +0.000 A 
ATOM      3  N   UNL     1       1.257   7.050  21.055  0.00  0.00    +0.000 NA
ATOM      4  C   UNL     1       1.965   6.746  19.961  0.00  0.00    +0.000 A 
ATOM      5  N   UNL     1       2.529   5.495  19.903  0.00  0.00    +0.000 N 
ATOM      6  C   UNL     1       1.887   4.442  20.693  0.00  0.00    +0.000 C 
ATOM      7  C   UNL     1       2.913   3.331  20.993  0.00  0.00    +0.000 C 
ATOM      8  N   UNL     1       3.542   2.785  19.770  0.00  0.00    +0.000 NA
ATOM      9  C   UNL     1       4.563   1.805  20.133  0.00  0.00    +0.000 C 
ATOM     10  C   UNL     1       4.136   3.892  18.981  0.00  0.00    +0.000 C 
ATOM     11  C   UNL     1       3.129   5.027  18.657  0.00  0.00    +0.000 C 
ATOM     12  N   UNL     1       2.202   7.650  18.996  0.00  0.00    +0.000 NA
ATOM     13  C   UNL     1       1.765   8.931  19.171  0.00  0.00    +0.000 A 
ATOM     14  C   UNL     1       1.994   9.835  17.995  0.00  0.00    +0.000 C 
ENDROOT
BRANCH   1  17
ATOM     15  N   UNL     1      -0.477  11.264  20.046  0.00  0.00    +0.000 N 
ATOM     16  C   UNL     1      -1.386  10.553  19.147  0.00  0.00    +0.000 C 
ATOM     17  C   UNL     1       0.698  10.732  20.615  0.00  0.00    +0.000 C 
ATOM     18  O   UNL     1       1.409  11.382  21.377  0.00  0.00    +0.000 OA
BRANCH  15  19
ATOM     19  C   UNL     1      -0.866  12.656  20.404  0.00  0.00    +0.000 C 
BRANCH  19  20
ATOM     20  C   UNL     1      -2.217  12.643  21.125  0.00  0.00    +0.000 A 
ATOM     21  C   UNL     1      -3.362  13.143  20.485  0.00  0.00    +0.000 A 
ATOM     22  C   UNL     1      -4.573  13.221  21.168  0.00  0.00    +0.000 A 
ATOM     23  C   UNL     1      -4.617  12.775  22.476  0.00  0.00    +0.000 A 
ATOM     24  N   UNL     1      -3.555  12.258  23.124  0.00  0.00    +0.000 NA
ATOM     25  C   UNL     1      -2.385  12.205  22.435  0.00  0.00    +0.000 A 
ENDBRANCH  19  20
BRANCH  19  27
ATOM     26  C   UNL     1       0.593  14.009  18.753  0.00  0.00    +0.000 C 
ATOM     27  C   UNL     1      -0.811  13.588  19.166  0.00  0.00    +0.000 C 
ENDBRANCH  19  27
ENDBRANCH  15  19
ENDBRANCH   1  17
TORSDOF 4
ENDMDL
MODEL 5
REMARK VINA RESULT:      -7.4      2.997      9.699
REMARK  Name = 
REMARK  8 active torsions:
REMARK  status: ('A' for Active; 'I' for Inactive)
REMARK    1  A    between atoms: C_1  and  C_2
REMARK    2  A    between atoms: C_2  and  C_3
REMARK    3  A    between atoms: C_3  and  C_4
REMARK    4  A    between atoms: C_3  and  N_10
REMARK    5  A    between atoms: N_10  and  C_11
REMARK    6  A    between atoms: C_12  and  C_14
REMARK    7  A    between atoms: N_21  and  C_22
REMARK    8  A    between atoms: C_26  and  C_27
REMARK                            x       y       z     vdW  Elec       q    Type
REMARK                         _______ _______ _______ _____ _____    ______ ____
ROOT
ATOM      1  C   UNL     1       1.064   9.857  20.415  0.00  0.00    +0.000 A 
ATOM      2  C   UNL     1       0.806   8.821  21.276  0.00  0.00    +0.000 A 
ATOM      3  N   UNL     1       1.200   7.553  21.085  0.00  0.00    +0.000 NA
ATOM      4  C   UNL     1       1.847   7.261  19.950  0.00  0.00    +0.000 A 
ATOM      5  N   UNL     1       2.384   6.002  19.837  0.00  0.00    +0.000 N 
ATOM      6  C   UNL     1       1.762   4.943  20.636  0.00  0.00    +0.000 C 
ATOM      7  C   UNL     1       2.782   3.808  20.860  0.00  0.00    +0.000 C 
ATOM      8  N   UNL     1       3.337   3.278  19.595  0.00  0.00    +0.000 NA
ATOM      9  C   UNL     1       4.357   2.272  19.885  0.00  0.00    +0.000 C 
ATOM     10  C   UNL     1       3.912   4.392  18.800  0.00  0.00    +0.000 C 
ATOM     11  C   UNL     1       2.911   5.552  18.552  0.00  0.00    +0.000 C 
ATOM     12  N   UNL     1       2.052   8.182  18.994  0.00  0.00    +0.000 NA
ATOM     13  C   UNL     1       1.648   9.467  19.219  0.00  0.00    +0.000 A 
ATOM     14  C   UNL     1       1.836  10.393  18.052  0.00  0.00    +0.000 C 
ENDROOT
BRANCH   1  17
ATOM     15  N   UNL     1      -0.534  11.797  20.311  0.00  0.00    +0.000 N 
ATOM     16  C   UNL     1      -1.535  11.098  19.505  0.00  0.00    +0.000 C 
ATOM     17  C   UNL     1       0.690  11.253  20.753  0.00  0.00    +0.000 C 
ATOM     18  O   UNL     1       1.479  11.894  21.442  0.00  0.00    +0.000 OA
BRANCH  15  19
ATOM     19  C   UNL     1      -0.874  13.188  20.717  0.00  0.00    +0.000 C 
BRANCH  19  20
ATOM     20  C   UNL     1      -2.112  13.173  21.620  0.00  0.00    +0.000 A 
ATOM     21  C   UNL     1      -2.131  12.373  22.774  0.00  0.00    +0.000 A 
ATOM     22  C   UNL     1      -3.286  12.283  23.547  0.00  0.00    +0.000 A 
ATOM     23  C   UNL     1      -4.393  13.014  23.160  0.00  0.00    +0.000 A 
ATOM     24  N   UNL     1      -4.414  13.819  22.080  0.00  0.00    +0.000 NA
ATOM     25  C   UNL     1      -3.277  13.878  21.339  0.00  0.00    +0.000 A 
ENDBRANCH  19  20
BRANCH  19  27
ATOM     26  C   UNL     1       0.289  14.282  18.683  0.00  0.00    +0.000 C 
ATOM     27  C   UNL     1      -0.998  14.117  19.481  0.00  0.00    +0.000 C 
ENDBRANCH  19  27
ENDBRANCH  15  19
ENDBRANCH   1  17
TORSDOF 4
ENDMDL
MODEL 6
REMARK VINA RESULT:      -7.4      1.492      1.762
REMARK  Name = 
REMARK  8 active torsions:
REMARK  status: ('A' for Active; 'I' for Inactive)
REMARK    1  A    between atoms: C_1  and  C_2
REMARK    2  A    between atoms: C_2  and  C_3
REMARK    3  A    between atoms: C_3  and  C_4
REMARK    4  A    between atoms: C_3  and  N_10
REMARK    5  A    between atoms: N_10  and  C_11
REMARK    6  A    between atoms: C_12  and  C_14
REMARK    7  A    between atoms: N_21  and  C_22
REMARK    8  A    between atoms: C_26  and  C_27
REMARK                            x       y       z     vdW  Elec       q    Type
REMARK                         _______ _______ _______ _____ _____    ______ ____
ROOT
ATOM      1  C   UNL     1       2.414   7.156  19.614  0.00  0.00    +0.000 A 
ATOM      2  C   UNL     1       1.815   7.427  20.818  0.00  0.00    +0.000 A 
ATOM      3  N   UNL     1       1.031   8.488  21.058  0.00  0.00    +0.000 NA
ATOM      4  C   UNL     1       0.858   9.378  20.073  0.00  0.00    +0.000 A 
ATOM      5  N   UNL     1      -0.069  10.371  20.276  0.00  0.00    +0.000 N 
ATOM      6  C   UNL     1      -0.361  10.730  21.665  0.00  0.00    +0.000 C 
ATOM      7  C   UNL     1      -1.760  11.372  21.742  0.00  0.00    +0.000 C 
ATOM      8  N   UNL     1      -1.909  12.534  20.838  0.00  0.00    +0.000 NA
ATOM      9  C   UNL     1      -3.280  13.036  20.898  0.00  0.00    +0.000 C 
ATOM     10  C   UNL     1      -1.558  12.134  19.453  0.00  0.00    +0.000 C 
ATOM     11  C   UNL     1      -0.152  11.486  19.338  0.00  0.00    +0.000 C 
ATOM     12  N   UNL     1       1.489   9.259  18.893  0.00  0.00    +0.000 NA
ATOM     13  C   UNL     1       2.275   8.164  18.672  0.00  0.00    +0.000 A 
ATOM     14  C   UNL     1       3.010   8.178  17.363  0.00  0.00    +0.000 C 
ENDROOT
BRANCH   1  17
ATOM     15  N   UNL     1       2.706   4.917  18.504  0.00  0.00    +0.000 N 
ATOM     16  C   UNL     1       1.473   4.999  17.720  0.00  0.00    +0.000 C 
ATOM     17  C   UNL     1       3.177   5.901  19.397  0.00  0.00    +0.000 C 
ATOM     18  O   UNL     1       4.233   5.773  20.013  0.00  0.00    +0.000 OA
BRANCH  15  19
ATOM     19  C   UNL     1       3.535   3.698  18.296  0.00  0.00    +0.000 C 
BRANCH  19  20
ATOM     20  C   UNL     1       4.717   4.030  17.380  0.00  0.00    +0.000 A 
ATOM     21  C   UNL     1       4.538   4.082  15.989  0.00  0.00    +0.000 A 
ATOM     22  C   UNL     1       5.627   4.291  15.147  0.00  0.00    +0.000 A 
ATOM     23  C   UNL     1       6.874   4.464  15.719  0.00  0.00    +0.000 A 
ATOM     24  N   UNL     1       7.092   4.454  17.048  0.00  0.00    +0.000 NA
ATOM     25  C   UNL     1       6.013   4.238  17.843  0.00  0.00    +0.000 A 
ENDBRANCH  19  20
BRANCH  19  27
ATOM     26  C   UNL     1       1.904   1.791  18.918  0.00  0.00    +0.000 C 
ATOM     27  C   UNL     1       2.667   2.508  17.812  0.00  0.00    +0.000 C 
ENDBRANCH  19  27
ENDBRANCH  15  19
ENDBRANCH   1  17
TORSDOF 4
ENDMDL
MODEL 7
REMARK VINA RESULT:      -7.4      1.168      2.018
REMARK  Name = 
REMARK  8 active torsions:
REMARK  status: ('A' for Active; 'I' for Inactive)
REMARK    1  A    between atoms: C_1  and  C_2
REMARK    2  A    between atoms: C_2  and  C_3
REMARK    3  A    between atoms: C_3  and  C_4
REMARK    4  A    between atoms: C_3  and  N_10
REMARK    5  A    between atoms: N_10  and  C_11
REMARK    6  A    between atoms: C_12  and  C_14
REMARK    7  A    between atoms: N_21  and  C_22
REMARK    8  A    between atoms: C_26  and  C_27
REMARK                            x       y       z     vdW  Elec       q    Type
REMARK                         _______ _______ _______ _____ _____    ______ ____
ROOT
ATOM      1  C   UNL     1       2.534   6.661  18.564  0.00  0.00    +0.000 A 
ATOM      2  C   UNL     1       2.390   7.814  17.835  0.00  0.00    +0.000 A 
ATOM      3  N   UNL     1       1.844   8.948  18.299  0.00  0.00    +0.000 NA
ATOM      4  C   UNL     1       1.354   8.945  19.544  0.00  0.00    +0.000 A 
ATOM      5  N   UNL     1       0.944  10.149  20.063  0.00  0.00    +0.000 N 
ATOM      6  C   UNL     1       0.539  11.179  19.104  0.00  0.00    +0.000 C 
ATOM      7  C   UNL     1       0.685  12.569  19.756  0.00  0.00    +0.000 C 
ATOM      8  N   UNL     1      -0.062  12.687  21.028  0.00  0.00    +0.000 NA
ATOM      9  C   UNL     1       0.192  13.993  21.632  0.00  0.00    +0.000 C 
ATOM     10  C   UNL     1       0.347  11.596  21.948  0.00  0.00    +0.000 C 
ATOM     11  C   UNL     1       0.209  10.182  21.324  0.00  0.00    +0.000 C 
ATOM     12  N   UNL     1       1.348   7.835  20.300  0.00  0.00    +0.000 NA
ATOM     13  C   UNL     1       1.919   6.697  19.806  0.00  0.00    +0.000 A 
ATOM     14  C   UNL     1       1.772   5.492  20.689  0.00  0.00    +0.000 C 
ENDROOT
BRANCH   1  17
ATOM     15  N   UNL     1       4.572   5.194  18.412  0.00  0.00    +0.000 N 
ATOM     16  C   UNL     1       5.364   5.973  19.364  0.00  0.00    +0.000 C 
ATOM     17  C   UNL     1       3.251   5.484  18.013  0.00  0.00    +0.000 C 
ATOM     18  O   UNL     1       2.637   4.776  17.218  0.00  0.00    +0.000 OA
BRANCH  15  19
ATOM     19  C   UNL     1       5.225   3.977  17.857  0.00  0.00    +0.000 C 
BRANCH  19  20
ATOM     20  C   UNL     1       5.858   4.305  16.501  0.00  0.00    +0.000 A 
ATOM     21  C   UNL     1       5.368   3.703  15.331  0.00  0.00    +0.000 A 
ATOM     22  C   UNL     1       5.998   3.924  14.110  0.00  0.00    +0.000 A 
ATOM     23  C   UNL     1       7.097   4.764  14.081  0.00  0.00    +0.000 A 
ATOM     24  N   UNL     1       7.585   5.389  15.170  0.00  0.00    +0.000 NA
ATOM     25  C   UNL     1       6.956   5.145  16.349  0.00  0.00    +0.000 A 
ENDBRANCH  19  20
BRANCH  19  27
ATOM     26  C   UNL     1       3.969   2.153  19.192  0.00  0.00    +0.000 C 
ATOM     27  C   UNL     1       4.242   2.779  17.830  0.00  0.00    +0.000 C 
ENDBRANCH  19  27
ENDBRANCH  15  19
ENDBRANCH   1  17
TORSDOF 4
ENDMDL
MODEL 8
REMARK VINA RESULT:      -7.3      2.852      9.761
REMARK  Name = 
REMARK  8 active torsions:
REMARK  status: ('A' for Active; 'I' for Inactive)
REMARK    1  A    between atoms: C_1  and  C_2
REMARK    2  A    between atoms: C_2  and  C_3
REMARK    3  A    between atoms: C_3  and  C_4
REMARK    4  A    between atoms: C_3  and  N_10
REMARK    5  A    between atoms: N_10  and  C_11
REMARK    6  A    between atoms: C_12  and  C_14
REMARK    7  A    between atoms: N_21  and  C_22
REMARK    8  A    between atoms: C_26  and  C_27
REMARK                            x       y       z     vdW  Elec       q    Type
REMARK                         _______ _______ _______ _____ _____    ______ ____
ROOT
ATOM      1  C   UNL     1       1.144   9.786  20.351  0.00  0.00    +0.000 A 
ATOM      2  C   UNL     1       1.782   9.449  19.185  0.00  0.00    +0.000 A 
ATOM      3  N   UNL     1       2.191   8.212  18.869  0.00  0.00    +0.000 NA
ATOM      4  C   UNL     1       2.014   7.242  19.773  0.00  0.00    +0.000 A 
ATOM      5  N   UNL     1       2.289   5.955  19.380  0.00  0.00    +0.000 N 
ATOM      6  C   UNL     1       3.247   5.788  18.284  0.00  0.00    +0.000 C 
ATOM      7  C   UNL     1       3.003   4.431  17.595  0.00  0.00    +0.000 C 
ATOM      8  N   UNL     1       3.052   3.291  18.538  0.00  0.00    +0.000 NA
ATOM      9  C   UNL     1       2.726   2.052  17.835  0.00  0.00    +0.000 C 
ATOM     10  C   UNL     1       2.101   3.527  19.652  0.00  0.00    +0.000 C 
ATOM     11  C   UNL     1       2.321   4.884  20.372  0.00  0.00    +0.000 C 
ATOM     12  N   UNL     1       1.498   7.491  20.988  0.00  0.00    +0.000 NA
ATOM     13  C   UNL     1       1.082   8.758  21.280  0.00  0.00    +0.000 A 
ATOM     14  C   UNL     1       0.613   8.951  22.693  0.00  0.00    +0.000 C 
ENDROOT
BRANCH   1  17
ATOM     15  N   UNL     1      -0.624  11.551  20.048  0.00  0.00    +0.000 N 
ATOM     16  C   UNL     1      -1.515  10.707  19.252  0.00  0.00    +0.000 C 
ATOM     17  C   UNL     1       0.623  11.158  20.577  0.00  0.00    +0.000 C 
ATOM     18  O   UNL     1       1.315  11.916  21.253  0.00  0.00    +0.000 OA
BRANCH  15  19
ATOM     19  C   UNL     1      -1.113  12.925  20.343  0.00  0.00    +0.000 C 
BRANCH  19  20
ATOM     20  C   UNL     1      -2.447  12.847  21.093  0.00  0.00    +0.000 A 
ATOM     21  C   UNL     1      -3.617  13.350  20.503  0.00  0.00    +0.000 A 
ATOM     22  C   UNL     1      -4.813  13.367  21.216  0.00  0.00    +0.000 A 
ATOM     23  C   UNL     1      -4.817  12.859  22.502  0.00  0.00    +0.000 A 
ATOM     24  N   UNL     1      -3.728  12.337  23.100  0.00  0.00    +0.000 NA
ATOM     25  C   UNL     1      -2.574  12.344  22.383  0.00  0.00    +0.000 A 
ENDBRANCH  19  20
BRANCH  19  27
ATOM     26  C   UNL     1       0.123  14.578  18.786  0.00  0.00    +0.000 C 
ATOM     27  C   UNL     1      -1.153  13.792  19.058  0.00  0.00    +0.000 C 
ENDBRANCH  19  27
ENDBRANCH  15  19
ENDBRANCH   1  17
TORSDOF 4
ENDMDL
MODEL 9
REMARK VINA RESULT:      -7.2      2.717      9.394
REMARK  Name = 
REMARK  8 active torsions:
REMARK  status: ('A' for Active; 'I' for Inactive)
REMARK    1  A    between atoms: C_1  and  C_2
REMARK    2  A    between atoms: C_2  and  C_3
REMARK    3  A    between atoms: C_3  and  C_4
REMARK    4  A    between atoms: C_3  and  N_10
REMARK    5  A    between atoms: N_10  and  C_11
REMARK    6  A    between atoms: C_12  and  C_14
REMARK    7  A    between atoms: N_21  and  C_22
REMARK    8  A    between atoms: C_26  and  C_27
REMARK                            x       y       z     vdW  Elec       q    Type
REMARK                         _______ _______ _______ _____ _____    ______ ____
ROOT
ATOM      1  C   UNL     1       1.041   9.388  19.194  0.00  0.00    +0.000 A 
ATOM      2  C   UNL     1       1.728   9.569  18.022  0.00  0.00    +0.000 A 
ATOM      3  N   UNL     1       2.653   8.725  17.540  0.00  0.00    +0.000 NA
ATOM      4  C   UNL     1       2.969   7.654  18.278  0.00  0.00    +0.000 A 
ATOM      5  N   UNL     1       3.795   6.717  17.706  0.00  0.00    +0.000 N 
ATOM      6  C   UNL     1       4.690   7.183  16.645  0.00  0.00    +0.000 C 
ATOM      7  C   UNL     1       5.079   5.992  15.747  0.00  0.00    +0.000 C 
ATOM      8  N   UNL     1       5.676   4.871  16.507  0.00  0.00    +0.000 NA
ATOM      9  C   UNL     1       5.937   3.747  15.609  0.00  0.00    +0.000 C 
ATOM     10  C   UNL     1       4.756   4.466  17.598  0.00  0.00    +0.000 C 
ATOM     11  C   UNL     1       4.346   5.641  18.525  0.00  0.00    +0.000 C 
ATOM     12  N   UNL     1       2.432   7.445  19.491  0.00  0.00    +0.000 NA
ATOM     13  C   UNL     1       1.486   8.316  19.952  0.00  0.00    +0.000 A 
ATOM     14  C   UNL     1       1.023   8.048  21.355  0.00  0.00    +0.000 C 
ENDROOT
BRANCH   1  17
ATOM     15  N   UNL     1       0.227  11.434  20.412  0.00  0.00    +0.000 N 
ATOM     16  C   UNL     1       1.543  11.809  20.931  0.00  0.00    +0.000 C 
ATOM     17  C   UNL     1      -0.047  10.313  19.601  0.00  0.00    +0.000 C 
ATOM     18  O   UNL     1      -1.177  10.066  19.187  0.00  0.00    +0.000 OA
BRANCH  15  19
ATOM     19  C   UNL     1      -0.897  12.349  20.754  0.00  0.00    +0.000 C 
BRANCH  19  20
ATOM     20  C   UNL     1      -0.593  13.755  20.227  0.00  0.00    +0.000 A 
ATOM     21  C   UNL     1      -0.595  14.851  21.104  0.00  0.00    +0.000 A 
ATOM     22  C   UNL     1      -0.413  16.142  20.617  0.00  0.00    +0.000 A 
ATOM     23  C   UNL     1      -0.211  16.308  19.259  0.00  0.00    +0.000 A 
ATOM     24  N   UNL     1      -0.169  15.287  18.382  0.00  0.00    +0.000 NA
ATOM     25  C   UNL     1      -0.361  14.040  18.886  0.00  0.00    +0.000 A 
ENDBRANCH  19  20
BRANCH  19  27
ATOM     26  C   UNL     1      -1.169  10.894  22.874  0.00  0.00    +0.000 C 
ATOM     27  C   UNL     1      -1.225  12.290  22.268  0.00  0.00    +0.000 C 
ENDBRANCH  19  27
ENDBRANCH  15  19
ENDBRANCH   1  17
TORSDOF 4
ENDMDL
