MODEL 1
REMARK VINA RESULT:      -8.4      0.000      0.000
REMARK  Name = 
REMARK  5 active torsions:
REMARK  status: ('A' for Active; 'I' for Inactive)
REMARK    1  A    between atoms: C_1  and  C_2
REMARK    2  A    between atoms: C_5  and  N_6
REMARK    3  A    between atoms: N_9  and  C_10
REMARK    4  A    between atoms: C_10  and  C_11
REMARK    5  A    between atoms: C_17  and  C_18
REMARK                            x       y       z     vdW  Elec       q    Type
REMARK                         _______ _______ _______ _____ _____    ______ ____
ROOT
ATOM      1  N   UNL     1       3.838   6.604  18.167  0.00  0.00    +0.000 N 
ATOM      2  C   UNL     1       5.057   7.311  17.719  0.00  0.00    +0.000 C 
ATOM      3  C   UNL     1       5.914   6.225  17.096  0.00  0.00    +0.000 C 
ATOM      4  N   UNL     1       4.945   5.522  16.245  0.00  0.00    +0.000 NA
ATOM      5  C   UNL     1       3.714   5.480  17.167  0.00  0.00    +0.000 C 
ENDROOT
BRANCH   1  10
ATOM      6  C   UNL     1      -0.200  10.398  19.868  0.00  0.00    +0.000 C 
ATOM      7  C   UNL     1       0.810   9.364  19.449  0.00  0.00    +0.000 A 
ATOM      8  C   UNL     1       1.250   8.335  20.296  0.00  0.00    +0.000 A 
ATOM      9  C   UNL     1       2.241   7.397  19.885  0.00  0.00    +0.000 A 
ATOM     10  C   UNL     1       2.827   7.461  18.614  0.00  0.00    +0.000 A 
ATOM     11  C   UNL     1       2.371   8.543  17.806  0.00  0.00    +0.000 A 
ATOM     12  C   UNL     1       1.380   9.448  18.199  0.00  0.00    +0.000 A 
ENDBRANCH   1  10
BRANCH   5  13
ATOM     13  C   UNL     1       3.528   4.054  17.766  0.00  0.00    +0.000 A 
ATOM     14  C   UNL     1       2.563   3.149  17.293  0.00  0.00    +0.000 A 
ATOM     15  C   UNL     1       1.984   2.215  18.171  0.00  0.00    +0.000 A 
ATOM     16  C   UNL     1       2.354   2.179  19.518  0.00  0.00    +0.000 A 
ATOM     17  C   UNL     1       3.413   2.964  19.956  0.00  0.00    +0.000 A 
ATOM     18  C   UNL     1       4.047   3.839  19.066  0.00  0.00    +0.000 A 
ENDBRANCH   5  13
BRANCH   4  19
ATOM     19  C   UNL     1       5.492   4.241  15.777  0.00  0.00    +0.000 C 
BRANCH  19  20
ATOM     20  C   UNL     1       6.169   4.195  14.417  0.00  0.00    +0.000 A 
ATOM     21  C   UNL     1       5.593   3.389  13.414  0.00  0.00    +0.000 A 
ATOM     22  C   UNL     1       6.095   3.391  12.113  0.00  0.00    +0.000 A 
ATOM     23  C   UNL     1       7.180   4.198  11.794  0.00  0.00    +0.000 A 
ATOM     24  C   UNL     1       7.762   5.003  12.776  0.00  0.00    +0.000 A 
ATOM     25  C   UNL     1       7.252   5.010  14.079  0.00  0.00    +0.000 A 
ENDBRANCH  19  20
ENDBRANCH   4  19
TORSDOF 4
ENDMDL
MODEL 2
REMARK VINA RESULT:      -8.2      1.849      7.699
REMARK  Name = 
REMARK  5 active torsions:
REMARK  status: ('A' for Active; 'I' for Inactive)
REMARK    1  A    between atoms: C_1  and  C_2
REMARK    2  A    between atoms: C_5  and  N_6
REMARK    3  A    between atoms: N_9  and  C_10
REMARK    4  A    between atoms: C_10  and  C_11
REMARK    5  A    between atoms: C_17  and  C_18
REMARK                            x       y       z     vdW  Elec       q    Type
REMARK                         _______ _______ _______ _____ _____    ______ ____
ROOT
ATOM      1  N   UNL     1       2.810   6.353  18.125  0.00  0.00    +0.000 N 
ATOM      2  C   UNL     1       2.373   7.712  17.739  0.00  0.00    +0.000 C 
ATOM      3  C   UNL     1       1.404   8.121  18.832  0.00  0.00    +0.000 C 
ATOM      4  N   UNL     1       2.140   7.747  20.048  0.00  0.00    +0.000 NA
ATOM      5  C   UNL     1       2.733   6.390  19.632  0.00  0.00    +0.000 C 
ENDROOT
BRANCH   1  10
ATOM      6  C   UNL     1       7.091   4.542  14.663  0.00  0.00    +0.000 C 
ATOM      7  C   UNL     1       5.998   4.967  15.606  0.00  0.00    +0.000 A 
ATOM      8  C   UNL     1       5.132   4.058  16.236  0.00  0.00    +0.000 A 
ATOM      9  C   UNL     1       4.079   4.495  17.089  0.00  0.00    +0.000 A 
ATOM     10  C   UNL     1       3.854   5.856  17.339  0.00  0.00    +0.000 A 
ATOM     11  C   UNL     1       4.738   6.737  16.649  0.00  0.00    +0.000 A 
ATOM     12  C   UNL     1       5.789   6.309  15.832  0.00  0.00    +0.000 A 
ENDBRANCH   1  10
BRANCH   5  13
ATOM     13  C   UNL     1       1.948   5.223  20.302  0.00  0.00    +0.000 A 
ATOM     14  C   UNL     1       2.373   4.601  21.489  0.00  0.00    +0.000 A 
ATOM     15  C   UNL     1       2.081   3.245  21.716  0.00  0.00    +0.000 A 
ATOM     16  C   UNL     1       1.375   2.499  20.769  0.00  0.00    +0.000 A 
ATOM     17  C   UNL     1       0.822   3.143  19.669  0.00  0.00    +0.000 A 
ATOM     18  C   UNL     1       1.042   4.512  19.478  0.00  0.00    +0.000 A 
ENDBRANCH   5  13
BRANCH   4  19
ATOM     19  C   UNL     1       1.257   7.777  21.222  0.00  0.00    +0.000 C 
BRANCH  19  20
ATOM     20  C   UNL     1       0.548   9.077  21.565  0.00  0.00    +0.000 A 
ATOM     21  C   UNL     1      -0.321   9.090  22.674  0.00  0.00    +0.000 A 
ATOM     22  C   UNL     1      -0.912  10.274  23.112  0.00  0.00    +0.000 A 
ATOM     23  C   UNL     1      -0.643  11.465  22.448  0.00  0.00    +0.000 A 
ATOM     24  C   UNL     1       0.217  11.470  21.348  0.00  0.00    +0.000 A 
ATOM     25  C   UNL     1       0.818  10.284  20.915  0.00  0.00    +0.000 A 
ENDBRANCH  19  20
ENDBRANCH   4  19
TORSDOF 4
ENDMDL
MODEL 3
REMARK VINA RESULT:      -8.1      0.196      1.368
REMARK  Name = 
REMARK  5 active torsions:
REMARK  status: ('A' for Active; 'I' for Inactive)
REMARK    1  A    between atoms: C_1  and  C_2
REMARK    2  A    between atoms: C_5  and  N_6
REMARK    3  A    between atoms: N_9  and  C_10
REMARK    4  A    between atoms: C_10  and  C_11
REMARK    5  A    between atoms: C_17  and  C_18
REMARK                            x       y       z     vdW  Elec       q    Type
REMARK                         _______ _______ _______ _____ _____    ______ ____
ROOT
ATOM      1  N   UNL     1       3.860   6.651  18.182  0.00  0.00    +0.000 N 
ATOM      2  C   UNL     1       5.092   7.340  17.740  0.00  0.00    +0.000 C 
ATOM      3  C   UNL     1       5.921   6.247  17.090  0.00  0.00    +0.000 C 
ATOM      4  N   UNL     1       4.931   5.582  16.232  0.00  0.00    +0.000 NA
ATOM      5  C   UNL     1       3.705   5.550  17.161  0.00  0.00    +0.000 C 
ENDROOT
BRANCH   1  10
ATOM      6  C   UNL     1      -0.377  10.010  20.271  0.00  0.00    +0.000 C 
ATOM      7  C   UNL     1       0.754   9.192  19.709  0.00  0.00    +0.000 A 
ATOM      8  C   UNL     1       1.277   9.390  18.421  0.00  0.00    +0.000 A 
ATOM      9  C   UNL     1       2.319   8.570  17.900  0.00  0.00    +0.000 A 
ATOM     10  C   UNL     1       2.871   7.522  18.651  0.00  0.00    +0.000 A 
ATOM     11  C   UNL     1       2.283   7.342  19.936  0.00  0.00    +0.000 A 
ATOM     12  C   UNL     1       1.278   8.163  20.458  0.00  0.00    +0.000 A 
ENDBRANCH   1  10
BRANCH   5  13
ATOM     13  C   UNL     1       3.491   4.117  17.734  0.00  0.00    +0.000 A 
ATOM     14  C   UNL     1       2.469   3.262  17.287  0.00  0.00    +0.000 A 
ATOM     15  C   UNL     1       1.895   2.330  18.170  0.00  0.00    +0.000 A 
ATOM     16  C   UNL     1       2.326   2.245  19.495  0.00  0.00    +0.000 A 
ATOM     17  C   UNL     1       3.436   2.977  19.900  0.00  0.00    +0.000 A 
ATOM     18  C   UNL     1       4.062   3.849  19.002  0.00  0.00    +0.000 A 
ENDBRANCH   5  13
BRANCH   4  19
ATOM     19  C   UNL     1       5.447   4.298  15.737  0.00  0.00    +0.000 C 
BRANCH  19  20
ATOM     20  C   UNL     1       5.952   4.223  14.306  0.00  0.00    +0.000 A 
ATOM     21  C   UNL     1       7.135   4.916  13.979  0.00  0.00    +0.000 A 
ATOM     22  C   UNL     1       7.715   4.796  12.717  0.00  0.00    +0.000 A 
ATOM     23  C   UNL     1       7.121   3.980  11.761  0.00  0.00    +0.000 A 
ATOM     24  C   UNL     1       5.949   3.286  12.068  0.00  0.00    +0.000 A 
ATOM     25  C   UNL     1       5.373   3.398  13.338  0.00  0.00    +0.000 A 
ENDBRANCH  19  20
ENDBRANCH   4  19
TORSDOF 4
ENDMDL
MODEL 4
REMARK VINA RESULT:      -8.0      0.299      1.010
REMARK  Name = 
REMARK  5 active torsions:
REMARK  status: ('A' for Active; 'I' for Inactive)
REMARK    1  A    between atoms: C_1  and  C_2
REMARK    2  A    between atoms: C_5  and  N_6
REMARK    3  A    between atoms: N_9  and  C_10
REMARK    4  A    between atoms: C_10  and  C_11
REMARK    5  A    between atoms: C_17  and  C_18
REMARK                            x       y       z     vdW  Elec       q    Type
REMARK                         _______ _______ _______ _____ _____    ______ ____
ROOT
ATOM      1  N   UNL     1       3.644   6.823  18.241  0.00  0.00    +0.000 N 
ATOM      2  C   UNL     1       4.842   7.537  17.748  0.00  0.00    +0.000 C 
ATOM      3  C   UNL     1       5.695   6.450  17.121  0.00  0.00    +0.000 C 
ATOM      4  N   UNL     1       4.712   5.721  16.309  0.00  0.00    +0.000 NA
ATOM      5  C   UNL     1       3.508   5.680  17.265  0.00  0.00    +0.000 C 
ENDROOT
BRANCH   1  10
ATOM      6  C   UNL     1      -0.414  10.589  19.956  0.00  0.00    +0.000 C 
ATOM      7  C   UNL     1       0.606   9.564  19.541  0.00  0.00    +0.000 A 
ATOM      8  C   UNL     1       1.170   8.639  20.434  0.00  0.00    +0.000 A 
ATOM      9  C   UNL     1       2.167   7.709  20.021  0.00  0.00    +0.000 A 
ATOM     10  C   UNL     1       2.635   7.676  18.699  0.00  0.00    +0.000 A 
ATOM     11  C   UNL     1       2.055   8.656  17.842  0.00  0.00    +0.000 A 
ATOM     12  C   UNL     1       1.058   9.552  18.241  0.00  0.00    +0.000 A 
ENDBRANCH   1  10
BRANCH   5  13
ATOM     13  C   UNL     1       3.356   4.263  17.894  0.00  0.00    +0.000 A 
ATOM     14  C   UNL     1       2.422   3.320  17.432  0.00  0.00    +0.000 A 
ATOM     15  C   UNL     1       1.861   2.390  18.325  0.00  0.00    +0.000 A 
ATOM     16  C   UNL     1       2.216   2.394  19.675  0.00  0.00    +0.000 A 
ATOM     17  C   UNL     1       3.248   3.219  20.106  0.00  0.00    +0.000 A 
ATOM     18  C   UNL     1       3.867   4.092  19.204  0.00  0.00    +0.000 A 
ENDBRANCH   5  13
BRANCH   4  19
ATOM     19  C   UNL     1       5.264   4.438  15.850  0.00  0.00    +0.000 C 
BRANCH  19  20
ATOM     20  C   UNL     1       5.886   4.370  14.465  0.00  0.00    +0.000 A 
ATOM     21  C   UNL     1       7.058   5.115  14.224  0.00  0.00    +0.000 A 
ATOM     22  C   UNL     1       7.743   5.007  13.014  0.00  0.00    +0.000 A 
ATOM     23  C   UNL     1       7.267   4.153  12.026  0.00  0.00    +0.000 A 
ATOM     24  C   UNL     1       6.108   3.408  12.249  0.00  0.00    +0.000 A 
ATOM     25  C   UNL     1       5.426   3.507  13.467  0.00  0.00    +0.000 A 
ENDBRANCH  19  20
ENDBRANCH   4  19
TORSDOF 4
ENDMDL
MODEL 5
REMARK VINA RESULT:      -7.8      1.854      7.777
REMARK  Name = 
REMARK  5 active torsions:
REMARK  status: ('A' for Active; 'I' for Inactive)
REMARK    1  A    between atoms: C_1  and  C_2
REMARK    2  A    between atoms: C_5  and  N_6
REMARK    3  A    between atoms: N_9  and  C_10
REMARK    4  A    between atoms: C_10  and  C_11
REMARK    5  A    between atoms: C_17  and  C_18
REMARK                            x       y       z     vdW  Elec       q    Type
REMARK                         _______ _______ _______ _____ _____    ______ ____
ROOT
ATOM      1  N   UNL     1       2.777   6.523  18.134  0.00  0.00    +0.000 N 
ATOM      2  C   UNL     1       2.319   7.888  17.795  0.00  0.00    +0.000 C 
ATOM      3  C   UNL     1       1.338   8.239  18.898  0.00  0.00    +0.000 C 
ATOM      4  N   UNL     1       2.074   7.835  20.102  0.00  0.00    +0.000 NA
ATOM      5  C   UNL     1       2.692   6.504  19.641  0.00  0.00    +0.000 C 
ENDROOT
BRANCH   1  10
ATOM      6  C   UNL     1       7.168   4.397  15.004  0.00  0.00    +0.000 C 
ATOM      7  C   UNL     1       6.021   4.996  15.772  0.00  0.00    +0.000 A 
ATOM      8  C   UNL     1       5.934   6.365  16.076  0.00  0.00    +0.000 A 
ATOM      9  C   UNL     1       4.858   6.895  16.843  0.00  0.00    +0.000 A 
ATOM     10  C   UNL     1       3.834   6.074  17.335  0.00  0.00    +0.000 A 
ATOM     11  C   UNL     1       3.987   4.691  17.029  0.00  0.00    +0.000 A 
ATOM     12  C   UNL     1       5.029   4.172  16.253  0.00  0.00    +0.000 A 
ENDBRANCH   1  10
BRANCH   5  13
ATOM     13  C   UNL     1       1.925   5.300  20.264  0.00  0.00    +0.000 A 
ATOM     14  C   UNL     1       2.313   4.690  21.469  0.00  0.00    +0.000 A 
ATOM     15  C   UNL     1       2.069   3.320  21.675  0.00  0.00    +0.000 A 
ATOM     16  C   UNL     1       1.448   2.551  20.689  0.00  0.00    +0.000 A 
ATOM     17  C   UNL     1       0.926   3.177  19.563  0.00  0.00    +0.000 A 
ATOM     18  C   UNL     1       1.096   4.555  19.389  0.00  0.00    +0.000 A 
ENDBRANCH   5  13
BRANCH   4  19
ATOM     19  C   UNL     1       1.186   7.806  21.273  0.00  0.00    +0.000 C 
BRANCH  19  20
ATOM     20  C   UNL     1       0.570   9.111  21.748  0.00  0.00    +0.000 A 
ATOM     21  C   UNL     1       0.813  10.277  20.993  0.00  0.00    +0.000 A 
ATOM     22  C   UNL     1       0.186  11.482  21.308  0.00  0.00    +0.000 A 
ATOM     23  C   UNL     1      -0.695  11.541  22.381  0.00  0.00    +0.000 A 
ATOM     24  C   UNL     1      -0.948  10.396  23.138  0.00  0.00    +0.000 A 
ATOM     25  C   UNL     1      -0.327   9.184  22.817  0.00  0.00    +0.000 A 
ENDBRANCH  19  20
ENDBRANCH   4  19
TORSDOF 4
ENDMDL
MODEL 6
REMARK VINA RESULT:      -7.7      0.675      1.172
REMARK  Name = 
REMARK  5 active torsions:
REMARK  status: ('A' for Active; 'I' for Inactive)
REMARK    1  A    between atoms: C_1  and  C_2
REMARK    2  A    between atoms: C_5  and  N_6
REMARK    3  A    between atoms: N_9  and  C_10
REMARK    4  A    between atoms: C_10  and  C_11
REMARK    5  A    between atoms: C_17  and  C_18
REMARK                            x       y       z     vdW  Elec       q    Type
REMARK                         _______ _______ _______ _____ _____    ______ ____
ROOT
ATOM      1  N   UNL     1       3.450   6.906  18.375  0.00  0.00    +0.000 N 
ATOM      2  C   UNL     1       4.661   7.582  17.860  0.00  0.00    +0.000 C 
ATOM      3  C   UNL     1       5.517   6.455  17.314  0.00  0.00    +0.000 C 
ATOM      4  N   UNL     1       4.543   5.683  16.531  0.00  0.00    +0.000 NA
ATOM      5  C   UNL     1       3.322   5.707  17.467  0.00  0.00    +0.000 C 
ENDROOT
BRANCH   1  10
ATOM      6  C   UNL     1      -0.605  10.794  19.801  0.00  0.00    +0.000 C 
ATOM      7  C   UNL     1       0.412   9.739  19.461  0.00  0.00    +0.000 A 
ATOM      8  C   UNL     1       0.927   8.838  20.408  0.00  0.00    +0.000 A 
ATOM      9  C   UNL     1       1.923   7.878  20.065  0.00  0.00    +0.000 A 
ATOM     10  C   UNL     1       2.439   7.790  18.765  0.00  0.00    +0.000 A 
ATOM     11  C   UNL     1       1.909   8.748  17.852  0.00  0.00    +0.000 A 
ATOM     12  C   UNL     1       0.912   9.673  18.181  0.00  0.00    +0.000 A 
ENDBRANCH   1  10
BRANCH   5  13
ATOM     13  C   UNL     1       3.151   4.331  18.177  0.00  0.00    +0.000 A 
ATOM     14  C   UNL     1       4.044   3.863  19.158  0.00  0.00    +0.000 A 
ATOM     15  C   UNL     1       4.269   2.483  19.303  0.00  0.00    +0.000 A 
ATOM     16  C   UNL     1       3.618   1.564  18.477  0.00  0.00    +0.000 A 
ATOM     17  C   UNL     1       2.624   2.007  17.613  0.00  0.00    +0.000 A 
ATOM     18  C   UNL     1       2.339   3.375  17.521  0.00  0.00    +0.000 A 
ENDBRANCH   5  13
BRANCH   4  19
ATOM     19  C   UNL     1       5.093   4.372  16.159  0.00  0.00    +0.000 C 
BRANCH  19  20
ATOM     20  C   UNL     1       5.830   4.244  14.836  0.00  0.00    +0.000 A 
ATOM     21  C   UNL     1       5.208   3.528  13.794  0.00  0.00    +0.000 A 
ATOM     22  C   UNL     1       5.775   3.469  12.521  0.00  0.00    +0.000 A 
ATOM     23  C   UNL     1       6.973   4.128  12.270  0.00  0.00    +0.000 A 
ATOM     24  C   UNL     1       7.601   4.843  13.291  0.00  0.00    +0.000 A 
ATOM     25  C   UNL     1       7.027   4.910  14.565  0.00  0.00    +0.000 A 
ENDBRANCH  19  20
ENDBRANCH   4  19
TORSDOF 4
ENDMDL
MODEL 7
REMARK VINA RESULT:      -7.4      1.328      7.448
REMARK  Name = 
REMARK  5 active torsions:
REMARK  status: ('A' for Active; 'I' for Inactive)
REMARK    1  A    between atoms: C_1  and  C_2
REMARK    2  A    between atoms: C_5  and  N_6
REMARK    3  A    between atoms: N_9  and  C_10
REMARK    4  A    between atoms: C_10  and  C_11
REMARK    5  A    between atoms: C_17  and  C_18
REMARK                            x       y       z     vdW  Elec       q    Type
REMARK                         _______ _______ _______ _____ _____    ______ ____
ROOT
ATOM      1  N   UNL     1       5.219   4.411  16.317  0.00  0.00    +0.000 N 
ATOM      2  C   UNL     1       4.156   3.450  16.683  0.00  0.00    +0.000 C 
ATOM      3  C   UNL     1       3.635   3.956  18.015  0.00  0.00    +0.000 C 
ATOM      4  N   UNL     1       3.468   5.392  17.752  0.00  0.00    +0.000 NA
ATOM      5  C   UNL     1       4.742   5.698  16.945  0.00  0.00    +0.000 C 
ENDROOT
BRANCH   1  10
ATOM      6  C   UNL     1       7.377   3.962  10.956  0.00  0.00    +0.000 C 
ATOM      7  C   UNL     1       6.806   4.014  12.347  0.00  0.00    +0.000 A 
ATOM      8  C   UNL     1       5.588   3.410  12.699  0.00  0.00    +0.000 A 
ATOM      9  C   UNL     1       5.052   3.514  14.014  0.00  0.00    +0.000 A 
ATOM     10  C   UNL     1       5.714   4.230  15.021  0.00  0.00    +0.000 A 
ATOM     11  C   UNL     1       6.927   4.852  14.604  0.00  0.00    +0.000 A 
ATOM     12  C   UNL     1       7.468   4.728  13.320  0.00  0.00    +0.000 A 
ENDBRANCH   1  10
BRANCH   5  13
ATOM     13  C   UNL     1       5.781   6.449  17.830  0.00  0.00    +0.000 A 
ATOM     14  C   UNL     1       6.351   7.679  17.458  0.00  0.00    +0.000 A 
ATOM     15  C   UNL     1       7.655   8.004  17.870  0.00  0.00    +0.000 A 
ATOM     16  C   UNL     1       8.400   7.112  18.645  0.00  0.00    +0.000 A 
ATOM     17  C   UNL     1       7.791   5.966  19.142  0.00  0.00    +0.000 A 
ATOM     18  C   UNL     1       6.465   5.677  18.800  0.00  0.00    +0.000 A 
ENDBRANCH   5  13
BRANCH   4  19
ATOM     19  C   UNL     1       3.258   6.131  19.004  0.00  0.00    +0.000 C 
BRANCH  19  20
ATOM     20  C   UNL     1       2.418   7.398  18.967  0.00  0.00    +0.000 A 
ATOM     21  C   UNL     1       1.777   7.807  20.153  0.00  0.00    +0.000 A 
ATOM     22  C   UNL     1       1.088   9.017  20.219  0.00  0.00    +0.000 A 
ATOM     23  C   UNL     1       1.029   9.838  19.099  0.00  0.00    +0.000 A 
ATOM     24  C   UNL     1       1.660   9.448  17.916  0.00  0.00    +0.000 A 
ATOM     25  C   UNL     1       2.360   8.239  17.853  0.00  0.00    +0.000 A 
ENDBRANCH  19  20
ENDBRANCH   4  19
TORSDOF 4
ENDMDL
MODEL 8
REMARK VINA RESULT:      -7.1      4.514     11.179
REMARK  Name = 
REMARK  5 active torsions:
REMARK  status: ('A' for Active; 'I' for Inactive)
REMARK    1  A    between atoms: C_1  and  C_2
REMARK    2  A    between atoms: C_5  and  N_6
REMARK    3  A    between atoms: N_9  and  C_10
REMARK    4  A    between atoms: C_10  and  C_11
REMARK    5  A    between atoms: C_17  and  C_18
REMARK                            x       y       z     vdW  Elec       q    Type
REMARK                         _______ _______ _______ _____ _____    ______ ____
ROOT
ATOM      1  N   UNL     1       0.079  11.077  19.499  0.00  0.00    +0.000 N 
ATOM      2  C   UNL     1       0.736  11.968  20.480  0.00  0.00    +0.000 C 
ATOM      3  C   UNL     1      -0.301  13.036  20.772  0.00  0.00    +0.000 C 
ATOM      4  N   UNL     1      -1.512  12.234  20.989  0.00  0.00    +0.000 NA
ATOM      5  C   UNL     1      -1.380  11.186  19.871  0.00  0.00    +0.000 C 
ENDROOT
BRANCH   1  10
ATOM      6  C   UNL     1       3.222   6.279  18.668  0.00  0.00    +0.000 C 
ATOM      7  C   UNL     1       2.372   7.510  18.829  0.00  0.00    +0.000 A 
ATOM      8  C   UNL     1       2.127   8.415  17.783  0.00  0.00    +0.000 A 
ATOM      9  C   UNL     1       1.354   9.595  17.979  0.00  0.00    +0.000 A 
ATOM     10  C   UNL     1       0.804   9.913  19.229  0.00  0.00    +0.000 A 
ATOM     11  C   UNL     1       1.111   8.981  20.263  0.00  0.00    +0.000 A 
ATOM     12  C   UNL     1       1.847   7.808  20.066  0.00  0.00    +0.000 A 
ENDBRANCH   1  10
BRANCH   5  13
ATOM     13  C   UNL     1      -2.358  11.508  18.702  0.00  0.00    +0.000 A 
ATOM     14  C   UNL     1      -3.745  11.299  18.789  0.00  0.00    +0.000 A 
ATOM     15  C   UNL     1      -4.482  10.975  17.636  0.00  0.00    +0.000 A 
ATOM     16  C   UNL     1      -3.849  10.851  16.397  0.00  0.00    +0.000 A 
ATOM     17  C   UNL     1      -2.510  11.204  16.277  0.00  0.00    +0.000 A 
ATOM     18  C   UNL     1      -1.790  11.605  17.408  0.00  0.00    +0.000 A 
ENDBRANCH   5  13
BRANCH   4  19
ATOM     19  C   UNL     1      -2.710  13.086  20.989  0.00  0.00    +0.000 C 
BRANCH  19  20
ATOM     20  C   UNL     1      -3.749  12.878  22.079  0.00  0.00    +0.000 A 
ATOM     21  C   UNL     1      -3.298  12.571  23.378  0.00  0.00    +0.000 A 
ATOM     22  C   UNL     1      -4.189  12.481  24.447  0.00  0.00    +0.000 A 
ATOM     23  C   UNL     1      -5.545  12.699  24.233  0.00  0.00    +0.000 A 
ATOM     24  C   UNL     1      -6.008  13.005  22.952  0.00  0.00    +0.000 A 
ATOM     25  C   UNL     1      -5.113  13.105  21.882  0.00  0.00    +0.000 A 
ENDBRANCH  19  20
ENDBRANCH   4  19
TORSDOF 4
ENDMDL
MODEL 9
REMARK VINA RESULT:      -6.9      4.453     11.090
REMARK  Name = 
REMARK  5 active torsions:
REMARK  status: ('A' for Active; 'I' for Inactive)
REMARK    1  A    between atoms: C_1  and  C_2
REMARK    2  A    between atoms: C_5  and  N_6
REMARK    3  A    between atoms: N_9  and  C_10
REMARK    4  A    between atoms: C_10  and  C_11
REMARK    5  A    between atoms: C_17  and  C_18
REMARK                            x       y       z     vdW  Elec       q    Type
REMARK                         _______ _______ _______ _____ _____    ______ ____
ROOT
ATOM      1  N   UNL     1       0.196  11.209  19.521  0.00  0.00    +0.000 N 
ATOM      2  C   UNL     1       0.873  12.178  20.410  0.00  0.00    +0.000 C 
ATOM      3  C   UNL     1      -0.171  13.249  20.664  0.00  0.00    +0.000 C 
ATOM      4  N   UNL     1      -1.359  12.446  20.984  0.00  0.00    +0.000 NA
ATOM      5  C   UNL     1      -1.250  11.322  19.940  0.00  0.00    +0.000 C 
ENDROOT
BRANCH   1  10
ATOM      6  C   UNL     1       3.123   6.348  18.337  0.00  0.00    +0.000 C 
ATOM      7  C   UNL     1       2.397   7.615  18.700  0.00  0.00    +0.000 A 
ATOM      8  C   UNL     1       1.819   7.832  19.962  0.00  0.00    +0.000 A 
ATOM      9  C   UNL     1       1.099   9.025  20.261  0.00  0.00    +0.000 A 
ATOM     10  C   UNL     1       0.931  10.038  19.307  0.00  0.00    +0.000 A 
ATOM     11  C   UNL     1       1.506   9.754  18.035  0.00  0.00    +0.000 A 
ATOM     12  C   UNL     1       2.235   8.595  17.748  0.00  0.00    +0.000 A 
ENDBRANCH   1  10
BRANCH   5  13
ATOM     13  C   UNL     1      -2.276  11.544  18.789  0.00  0.00    +0.000 A 
ATOM     14  C   UNL     1      -3.643  11.245  18.919  0.00  0.00    +0.000 A 
ATOM     15  C   UNL     1      -4.385  10.839  17.796  0.00  0.00    +0.000 A 
ATOM     16  C   UNL     1      -3.776  10.722  16.544  0.00  0.00    +0.000 A 
ATOM     17  C   UNL     1      -2.468  11.161  16.378  0.00  0.00    +0.000 A 
ATOM     18  C   UNL     1      -1.749  11.641  17.478  0.00  0.00    +0.000 A 
ENDBRANCH   5  13
BRANCH   4  19
ATOM     19  C   UNL     1      -2.571  13.278  20.969  0.00  0.00    +0.000 C 
BRANCH  19  20
ATOM     20  C   UNL     1      -3.552  13.152  22.123  0.00  0.00    +0.000 A 
ATOM     21  C   UNL     1      -4.920  13.361  21.859  0.00  0.00    +0.000 A 
ATOM     22  C   UNL     1      -5.884  13.149  22.845  0.00  0.00    +0.000 A 
ATOM     23  C   UNL     1      -5.494  12.722  24.109  0.00  0.00    +0.000 A 
ATOM     24  C   UNL     1      -4.143  12.509  24.386  0.00  0.00    +0.000 A 
ATOM     25  C   UNL     1      -3.177  12.712  23.395  0.00  0.00    +0.000 A 
ENDBRANCH  19  20
ENDBRANCH   4  19
TORSDOF 4
ENDMDL
