MODEL 1
REMARK VINA RESULT:      -5.8      0.000      0.000
REMARK  Name = 
REMARK  7 active torsions:
REMARK  status: ('A' for Active; 'I' for Inactive)
REMARK    1  A    between atoms: N_1  and  C_2
REMARK    2  A    between atoms: C_2  and  C_3
REMARK    3  A    between atoms: C_3  and  O_4
REMARK    4  A    between atoms: O_4  and  C_5
REMARK    5  A    between atoms: C_5  and  S_7
REMARK    6  A    between atoms: S_7  and  C_8
REMARK    7  A    between atoms: C_8  and  C_9
REMARK                            x       y       z     vdW  Elec       q    Type
REMARK                         _______ _______ _______ _____ _____    ______ ____
ROOT
ATOM      1  S   UNL     1       5.253   4.359  15.975  0.00  0.00    +0.000 S 
ENDROOT
BRANCH   1   2
ATOM      2  C   UNL     1       6.705   5.408  15.912  0.00  0.00    +0.000 C 
ATOM      3  O   UNL     1       7.659   5.071  15.227  0.00  0.00    +0.000 OA
BRANCH   2   4
ATOM      4  O   UNL     1       6.746   6.538  16.663  0.00  0.00    +0.000 OA
BRANCH   4   5
ATOM      5  C   UNL     1       7.561   6.697  17.769  0.00  0.00    +0.000 C 
BRANCH   5   6
ATOM      6  C   UNL     1       7.679   5.360  18.509  0.00  0.00    +0.000 C 
BRANCH   6   7
ATOM      7  N   UNL     1       7.072   5.441  19.833  0.00  0.00    +0.000 NA
ATOM      8  H   UNL     1       6.996   6.452  20.093  0.00  0.00    +0.000 HD
ATOM      9  H   UNL     1       7.706   4.984  20.527  0.00  0.00    +0.000 HD
ENDBRANCH   6   7
ENDBRANCH   5   6
ENDBRANCH   4   5
ENDBRANCH   2   4
ENDBRANCH   1   2
BRANCH   1  10
ATOM     10  C   UNL     1       4.317   5.578  16.972  0.00  0.00    +0.000 C 
BRANCH  10  11
ATOM     11  C   UNL     1       3.656   4.924  18.162  0.00  0.00    +0.000 A 
ATOM     12  C   UNL     1       3.916   3.568  18.436  0.00  0.00    +0.000 A 
ATOM     13  C   UNL     1       3.328   2.939  19.537  0.00  0.00    +0.000 A 
ATOM     14  C   UNL     1       2.476   3.654  20.379  0.00  0.00    +0.000 A 
ATOM     15 CL   UNL     1       1.741   2.863  21.762  0.00  0.00    +0.000 Cl
ATOM     16  C   UNL     1       2.212   5.004  20.126  0.00  0.00    +0.000 A 
ATOM     17  C   UNL     1       2.797   5.643  19.023  0.00  0.00    +0.000 A 
ATOM     18 CL   UNL     1       2.442   7.351  18.781  0.00  0.00    +0.000 Cl
ENDBRANCH  10  11
ENDBRANCH   1  10
TORSDOF 7
ENDMDL
MODEL 2
REMARK VINA RESULT:      -5.8      2.393      2.870
REMARK  Name = 
REMARK  7 active torsions:
REMARK  status: ('A' for Active; 'I' for Inactive)
REMARK    1  A    between atoms: N_1  and  C_2
REMARK    2  A    between atoms: C_2  and  C_3
REMARK    3  A    between atoms: C_3  and  O_4
REMARK    4  A    between atoms: O_4  and  C_5
REMARK    5  A    between atoms: C_5  and  S_7
REMARK    6  A    between atoms: S_7  and  C_8
REMARK    7  A    between atoms: C_8  and  C_9
REMARK                            x       y       z     vdW  Elec       q    Type
REMARK                         _______ _______ _______ _____ _____    ______ ____
ROOT
ATOM      1  S   UNL     1       6.424   5.542  18.208  0.00  0.00    +0.000 S 
ENDROOT
BRANCH   1   2
ATOM      2  C   UNL     1       7.295   5.935  16.692  0.00  0.00    +0.000 C 
ATOM      3  O   UNL     1       7.658   7.084  16.489  0.00  0.00    +0.000 OA
BRANCH   2   4
ATOM      4  O   UNL     1       7.499   4.961  15.767  0.00  0.00    +0.000 OA
BRANCH   4   5
ATOM      5  C   UNL     1       7.104   5.062  14.446  0.00  0.00    +0.000 C 
BRANCH   5   6
ATOM      6  C   UNL     1       5.848   4.212  14.226  0.00  0.00    +0.000 C 
BRANCH   6   7
ATOM      7  N   UNL     1       6.095   3.161  13.245  0.00  0.00    +0.000 NA
ATOM      8  H   UNL     1       6.754   3.539  12.524  0.00  0.00    +0.000 HD
ATOM      9  H   UNL     1       5.199   2.928  12.761  0.00  0.00    +0.000 HD
ENDBRANCH   6   7
ENDBRANCH   5   6
ENDBRANCH   4   5
ENDBRANCH   2   4
ENDBRANCH   1   2
BRANCH   1  10
ATOM     10  C   UNL     1       4.821   6.112  17.529  0.00  0.00    +0.000 C 
BRANCH  10  11
ATOM     11  C   UNL     1       3.720   5.119  17.814  0.00  0.00    +0.000 A 
ATOM     12  C   UNL     1       3.790   3.831  17.252  0.00  0.00    +0.000 A 
ATOM     13  C   UNL     1       2.792   2.887  17.507  0.00  0.00    +0.000 A 
ATOM     14  C   UNL     1       1.712   3.215  18.327  0.00  0.00    +0.000 A 
ATOM     15 CL   UNL     1       0.460   2.028  18.647  0.00  0.00    +0.000 Cl
ATOM     16  C   UNL     1       1.628   4.488  18.899  0.00  0.00    +0.000 A 
ATOM     17  C   UNL     1       2.625   5.442  18.648  0.00  0.00    +0.000 A 
ATOM     18 CL   UNL     1       2.469   7.016  19.423  0.00  0.00    +0.000 Cl
ENDBRANCH  10  11
ENDBRANCH   1  10
TORSDOF 7
ENDMDL
MODEL 3
REMARK VINA RESULT:      -5.8      2.518      3.101
REMARK  Name = 
REMARK  7 active torsions:
REMARK  status: ('A' for Active; 'I' for Inactive)
REMARK    1  A    between atoms: N_1  and  C_2
REMARK    2  A    between atoms: C_2  and  C_3
REMARK    3  A    between atoms: C_3  and  O_4
REMARK    4  A    between atoms: O_4  and  C_5
REMARK    5  A    between atoms: C_5  and  S_7
REMARK    6  A    between atoms: S_7  and  C_8
REMARK    7  A    between atoms: C_8  and  C_9
REMARK                            x       y       z     vdW  Elec       q    Type
REMARK                         _______ _______ _______ _____ _____    ______ ____
ROOT
ATOM      1  S   UNL     1       7.315   4.789  17.803  0.00  0.00    +0.000 S 
ENDROOT
BRANCH   1   2
ATOM      2  C   UNL     1       6.879   5.851  16.428  0.00  0.00    +0.000 C 
ATOM      3  O   UNL     1       6.557   7.010  16.643  0.00  0.00    +0.000 OA
BRANCH   2   4
ATOM      4  O   UNL     1       6.865   5.342  15.169  0.00  0.00    +0.000 OA
BRANCH   4   5
ATOM      5  C   UNL     1       6.526   4.034  14.872  0.00  0.00    +0.000 C 
BRANCH   5   6
ATOM      6  C   UNL     1       5.767   3.995  13.541  0.00  0.00    +0.000 C 
BRANCH   6   7
ATOM      7  N   UNL     1       6.341   2.999  12.643  0.00  0.00    +0.000 NA
ATOM      8  H   UNL     1       7.089   3.465  12.079  0.00  0.00    +0.000 HD
ATOM      9  H   UNL     1       5.602   2.673  11.979  0.00  0.00    +0.000 HD
ENDBRANCH   6   7
ENDBRANCH   5   6
ENDBRANCH   4   5
ENDBRANCH   2   4
ENDBRANCH   1   2
BRANCH   1  10
ATOM     10  C   UNL     1       6.044   5.538  18.889  0.00  0.00    +0.000 C 
BRANCH  10  11
ATOM     11  C   UNL     1       4.738   4.785  18.807  0.00  0.00    +0.000 A 
ATOM     12  C   UNL     1       4.690   3.438  19.212  0.00  0.00    +0.000 A 
ATOM     13  C   UNL     1       3.493   2.720  19.157  0.00  0.00    +0.000 A 
ATOM     14  C   UNL     1       2.328   3.336  18.701  0.00  0.00    +0.000 A 
ATOM     15 CL   UNL     1       0.825   2.432  18.636  0.00  0.00    +0.000 Cl
ATOM     16  C   UNL     1       2.354   4.675  18.301  0.00  0.00    +0.000 A 
ATOM     17  C   UNL     1       3.551   5.404  18.351  0.00  0.00    +0.000 A 
ATOM     18 CL   UNL     1       3.506   7.094  17.858  0.00  0.00    +0.000 Cl
ENDBRANCH  10  11
ENDBRANCH   1  10
TORSDOF 7
ENDMDL
MODEL 4
REMARK VINA RESULT:      -5.7      3.014      3.564
REMARK  Name = 
REMARK  7 active torsions:
REMARK  status: ('A' for Active; 'I' for Inactive)
REMARK    1  A    between atoms: N_1  and  C_2
REMARK    2  A    between atoms: C_2  and  C_3
REMARK    3  A    between atoms: C_3  and  O_4
REMARK    4  A    between atoms: O_4  and  C_5
REMARK    5  A    between atoms: C_5  and  S_7
REMARK    6  A    between atoms: S_7  and  C_8
REMARK    7  A    between atoms: C_8  and  C_9
REMARK                            x       y       z     vdW  Elec       q    Type
REMARK                         _______ _______ _______ _____ _____    ______ ____
ROOT
ATOM      1  S   UNL     1       5.385   5.519  15.467  0.00  0.00    +0.000 S 
ENDROOT
BRANCH   1   2
ATOM      2  C   UNL     1       7.006   5.072  14.848  0.00  0.00    +0.000 C 
ATOM      3  O   UNL     1       7.829   4.590  15.613  0.00  0.00    +0.000 OA
BRANCH   2   4
ATOM      4  O   UNL     1       7.317   5.318  13.549  0.00  0.00    +0.000 OA
BRANCH   4   5
ATOM      5  C   UNL     1       7.359   4.342  12.571  0.00  0.00    +0.000 C 
BRANCH   5   6
ATOM      6  C   UNL     1       6.062   3.527  12.611  0.00  0.00    +0.000 C 
BRANCH   6   7
ATOM      7  N   UNL     1       6.234   2.240  11.946  0.00  0.00    +0.000 NA
ATOM      8  H   UNL     1       5.379   1.665  12.126  0.00  0.00    +0.000 HD
ATOM      9  H   UNL     1       7.046   1.740  12.376  0.00  0.00    +0.000 HD
ENDBRANCH   6   7
ENDBRANCH   5   6
ENDBRANCH   4   5
ENDBRANCH   2   4
ENDBRANCH   1   2
BRANCH   1  10
ATOM     10  C   UNL     1       5.216   3.946  16.391  0.00  0.00    +0.000 C 
BRANCH  10  11
ATOM     11  C   UNL     1       4.131   4.038  17.437  0.00  0.00    +0.000 A 
ATOM     12  C   UNL     1       2.837   3.574  17.133  0.00  0.00    +0.000 A 
ATOM     13  C   UNL     1       1.817   3.635  18.085  0.00  0.00    +0.000 A 
ATOM     14  C   UNL     1       2.073   4.157  19.353  0.00  0.00    +0.000 A 
ATOM     15 CL   UNL     1       0.790   4.231  20.548  0.00  0.00    +0.000 Cl
ATOM     16  C   UNL     1       3.354   4.616  19.676  0.00  0.00    +0.000 A 
ATOM     17  C   UNL     1       4.384   4.559  18.726  0.00  0.00    +0.000 A 
ATOM     18 CL   UNL     1       5.979   5.130  19.210  0.00  0.00    +0.000 Cl
ENDBRANCH  10  11
ENDBRANCH   1  10
TORSDOF 7
ENDMDL
MODEL 5
REMARK VINA RESULT:      -5.7      2.142      2.551
REMARK  Name = 
REMARK  7 active torsions:
REMARK  status: ('A' for Active; 'I' for Inactive)
REMARK    1  A    between atoms: N_1  and  C_2
REMARK    2  A    between atoms: C_2  and  C_3
REMARK    3  A    between atoms: C_3  and  O_4
REMARK    4  A    between atoms: O_4  and  C_5
REMARK    5  A    between atoms: C_5  and  S_7
REMARK    6  A    between atoms: S_7  and  C_8
REMARK    7  A    between atoms: C_8  and  C_9
REMARK                            x       y       z     vdW  Elec       q    Type
REMARK                         _______ _______ _______ _____ _____    ______ ____
ROOT
ATOM      1  S   UNL     1       7.040   4.682  17.219  0.00  0.00    +0.000 S 
ENDROOT
BRANCH   1   2
ATOM      2  C   UNL     1       7.403   5.819  18.555  0.00  0.00    +0.000 C 
ATOM      3  O   UNL     1       7.009   5.565  19.684  0.00  0.00    +0.000 OA
BRANCH   2   4
ATOM      4  O   UNL     1       8.070   6.972  18.289  0.00  0.00    +0.000 OA
BRANCH   4   5
ATOM      5  C   UNL     1       7.467   8.108  17.779  0.00  0.00    +0.000 C 
BRANCH   5   6
ATOM      6  C   UNL     1       8.408   9.304  17.956  0.00  0.00    +0.000 C 
BRANCH   6   7
ATOM      7  N   UNL     1       8.989   9.317  19.294  0.00  0.00    +0.000 NA
ATOM      8  H   UNL     1       8.827  10.264  19.709  0.00  0.00    +0.000 HD
ATOM      9  H   UNL     1      10.023   9.179  19.218  0.00  0.00    +0.000 HD
ENDBRANCH   6   7
ENDBRANCH   5   6
ENDBRANCH   4   5
ENDBRANCH   2   4
ENDBRANCH   1   2
BRANCH   1  10
ATOM     10  C   UNL     1       5.494   5.562  16.783  0.00  0.00    +0.000 C 
BRANCH  10  11
ATOM     11  C   UNL     1       4.278   4.815  17.276  0.00  0.00    +0.000 A 
ATOM     12  C   UNL     1       4.251   3.410  17.196  0.00  0.00    +0.000 A 
ATOM     13  C   UNL     1       3.145   2.692  17.656  0.00  0.00    +0.000 A 
ATOM     14  C   UNL     1       2.052   3.363  18.203  0.00  0.00    +0.000 A 
ATOM     15 CL   UNL     1       0.664   2.459  18.782  0.00  0.00    +0.000 Cl
ATOM     16  C   UNL     1       2.063   4.758  18.297  0.00  0.00    +0.000 A 
ATOM     17  C   UNL     1       3.169   5.488  17.838  0.00  0.00    +0.000 A 
ATOM     18 CL   UNL     1       3.127   7.240  18.012  0.00  0.00    +0.000 Cl
ENDBRANCH  10  11
ENDBRANCH   1  10
TORSDOF 7
ENDMDL
MODEL 6
REMARK VINA RESULT:      -5.7      2.209      2.737
REMARK  Name = 
REMARK  7 active torsions:
REMARK  status: ('A' for Active; 'I' for Inactive)
REMARK    1  A    between atoms: N_1  and  C_2
REMARK    2  A    between atoms: C_2  and  C_3
REMARK    3  A    between atoms: C_3  and  O_4
REMARK    4  A    between atoms: O_4  and  C_5
REMARK    5  A    between atoms: C_5  and  S_7
REMARK    6  A    between atoms: S_7  and  C_8
REMARK    7  A    between atoms: C_8  and  C_9
REMARK                            x       y       z     vdW  Elec       q    Type
REMARK                         _______ _______ _______ _____ _____    ______ ____
ROOT
ATOM      1  S   UNL     1       6.505   4.756  17.742  0.00  0.00    +0.000 S 
ENDROOT
BRANCH   1   2
ATOM      2  C   UNL     1       6.887   5.767  16.313  0.00  0.00    +0.000 C 
ATOM      3  O   UNL     1       6.432   6.899  16.240  0.00  0.00    +0.000 OA
BRANCH   2   4
ATOM      4  O   UNL     1       7.636   5.247  15.307  0.00  0.00    +0.000 OA
BRANCH   4   5
ATOM      5  C   UNL     1       7.178   5.083  14.013  0.00  0.00    +0.000 C 
BRANCH   5   6
ATOM      6  C   UNL     1       6.208   3.898  13.964  0.00  0.00    +0.000 C 
BRANCH   6   7
ATOM      7  N   UNL     1       6.327   3.179  12.700  0.00  0.00    +0.000 NA
ATOM      8  H   UNL     1       6.010   2.194  12.856  0.00  0.00    +0.000 HD
ATOM      9  H   UNL     1       7.333   3.146  12.419  0.00  0.00    +0.000 HD
ENDBRANCH   6   7
ENDBRANCH   5   6
ENDBRANCH   4   5
ENDBRANCH   2   4
ENDBRANCH   1   2
BRANCH   1  10
ATOM     10  C   UNL     1       4.762   4.536  17.222  0.00  0.00    +0.000 C 
BRANCH  10  11
ATOM     11  C   UNL     1       3.895   4.099  18.377  0.00  0.00    +0.000 A 
ATOM     12  C   UNL     1       4.161   2.873  19.015  0.00  0.00    +0.000 A 
ATOM     13  C   UNL     1       3.383   2.448  20.095  0.00  0.00    +0.000 A 
ATOM     14  C   UNL     1       2.330   3.240  20.553  0.00  0.00    +0.000 A 
ATOM     15 CL   UNL     1       1.355   2.704  21.910  0.00  0.00    +0.000 Cl
ATOM     16  C   UNL     1       2.054   4.464  19.936  0.00  0.00    +0.000 A 
ATOM     17  C   UNL     1       2.830   4.898  18.852  0.00  0.00    +0.000 A 
ATOM     18 CL   UNL     1       2.444   6.462  18.140  0.00  0.00    +0.000 Cl
ENDBRANCH  10  11
ENDBRANCH   1  10
TORSDOF 7
ENDMDL
MODEL 7
REMARK VINA RESULT:      -5.6      3.346      3.950
REMARK  Name = 
REMARK  7 active torsions:
REMARK  status: ('A' for Active; 'I' for Inactive)
REMARK    1  A    between atoms: N_1  and  C_2
REMARK    2  A    between atoms: C_2  and  C_3
REMARK    3  A    between atoms: C_3  and  O_4
REMARK    4  A    between atoms: O_4  and  C_5
REMARK    5  A    between atoms: C_5  and  S_7
REMARK    6  A    between atoms: S_7  and  C_8
REMARK    7  A    between atoms: C_8  and  C_9
REMARK                            x       y       z     vdW  Elec       q    Type
REMARK                         _______ _______ _______ _____ _____    ______ ____
ROOT
ATOM      1  S   UNL     1       5.437   5.490  15.382  0.00  0.00    +0.000 S 
ENDROOT
BRANCH   1   2
ATOM      2  C   UNL     1       6.735   4.813  14.349  0.00  0.00    +0.000 C 
ATOM      3  O   UNL     1       7.779   5.433  14.213  0.00  0.00    +0.000 OA
BRANCH   2   4
ATOM      4  O   UNL     1       6.525   3.643  13.692  0.00  0.00    +0.000 OA
BRANCH   4   5
ATOM      5  C   UNL     1       6.134   3.565  12.368  0.00  0.00    +0.000 C 
BRANCH   5   6
ATOM      6  C   UNL     1       4.635   3.257  12.299  0.00  0.00    +0.000 C 
BRANCH   6   7
ATOM      7  N   UNL     1       4.130   3.429  10.941  0.00  0.00    +0.000 NA
ATOM      8  H   UNL     1       3.317   4.088  10.979  0.00  0.00    +0.000 HD
ATOM      9  H   UNL     1       3.775   2.511  10.590  0.00  0.00    +0.000 HD
ENDBRANCH   6   7
ENDBRANCH   5   6
ENDBRANCH   4   5
ENDBRANCH   2   4
ENDBRANCH   1   2
BRANCH   1  10
ATOM     10  C   UNL     1       5.452   4.034  16.494  0.00  0.00    +0.000 C 
BRANCH  10  11
ATOM     11  C   UNL     1       4.318   4.092  17.490  0.00  0.00    +0.000 A 
ATOM     12  C   UNL     1       3.057   3.583  17.129  0.00  0.00    +0.000 A 
ATOM     13  C   UNL     1       1.992   3.612  18.034  0.00  0.00    +0.000 A 
ATOM     14  C   UNL     1       2.172   4.146  19.309  0.00  0.00    +0.000 A 
ATOM     15 CL   UNL     1       0.834   4.179  20.444  0.00  0.00    +0.000 Cl
ATOM     16  C   UNL     1       3.420   4.650  19.688  0.00  0.00    +0.000 A 
ATOM     17  C   UNL     1       4.494   4.625  18.787  0.00  0.00    +0.000 A 
ATOM     18 CL   UNL     1       6.045   5.252  19.340  0.00  0.00    +0.000 Cl
ENDBRANCH  10  11
ENDBRANCH   1  10
TORSDOF 7
ENDMDL
MODEL 8
REMARK VINA RESULT:      -5.6      3.829      5.921
REMARK  Name = 
REMARK  7 active torsions:
REMARK  status: ('A' for Active; 'I' for Inactive)
REMARK    1  A    between atoms: N_1  and  C_2
REMARK    2  A    between atoms: C_2  and  C_3
REMARK    3  A    between atoms: C_3  and  O_4
REMARK    4  A    between atoms: O_4  and  C_5
REMARK    5  A    between atoms: C_5  and  S_7
REMARK    6  A    between atoms: S_7  and  C_8
REMARK    7  A    between atoms: C_8  and  C_9
REMARK                            x       y       z     vdW  Elec       q    Type
REMARK                         _______ _______ _______ _____ _____    ______ ____
ROOT
ATOM      1  S   UNL     1       3.485   2.359  17.972  0.00  0.00    +0.000 S 
ENDROOT
BRANCH   1   2
ATOM      2  C   UNL     1       1.921   3.181  18.270  0.00  0.00    +0.000 C 
ATOM      3  O   UNL     1       1.480   3.954  17.433  0.00  0.00    +0.000 OA
BRANCH   2   4
ATOM      4  O   UNL     1       1.268   2.972  19.443  0.00  0.00    +0.000 OA
BRANCH   4   5
ATOM      5  C   UNL     1       0.878   3.987  20.296  0.00  0.00    +0.000 C 
BRANCH   5   6
ATOM      6  C   UNL     1       2.116   4.591  20.967  0.00  0.00    +0.000 C 
BRANCH   6   7
ATOM      7  N   UNL     1       2.110   6.046  20.859  0.00  0.00    +0.000 NA
ATOM      8  H   UNL     1       2.404   6.441  21.782  0.00  0.00    +0.000 HD
ATOM      9  H   UNL     1       1.134   6.370  20.673  0.00  0.00    +0.000 HD
ENDBRANCH   6   7
ENDBRANCH   5   6
ENDBRANCH   4   5
ENDBRANCH   2   4
ENDBRANCH   1   2
BRANCH   1  10
ATOM     10  C   UNL     1       4.438   3.898  18.246  0.00  0.00    +0.000 C 
BRANCH  10  11
ATOM     11  C   UNL     1       5.291   4.238  17.046  0.00  0.00    +0.000 A 
ATOM     12  C   UNL     1       4.824   3.923  15.757  0.00  0.00    +0.000 A 
ATOM     13  C   UNL     1       5.585   4.235  14.628  0.00  0.00    +0.000 A 
ATOM     14  C   UNL     1       6.820   4.867  14.769  0.00  0.00    +0.000 A 
ATOM     15 CL   UNL     1       7.774   5.260  13.350  0.00  0.00    +0.000 Cl
ATOM     16  C   UNL     1       7.298   5.194  16.042  0.00  0.00    +0.000 A 
ATOM     17  C   UNL     1       6.541   4.883  17.181  0.00  0.00    +0.000 A 
ATOM     18 CL   UNL     1       7.190   5.348  18.751  0.00  0.00    +0.000 Cl
ENDBRANCH  10  11
ENDBRANCH   1  10
TORSDOF 7
ENDMDL
MODEL 9
REMARK VINA RESULT:      -5.6      3.901      5.809
REMARK  Name = 
REMARK  7 active torsions:
REMARK  status: ('A' for Active; 'I' for Inactive)
REMARK    1  A    between atoms: N_1  and  C_2
REMARK    2  A    between atoms: C_2  and  C_3
REMARK    3  A    between atoms: C_3  and  O_4
REMARK    4  A    between atoms: O_4  and  C_5
REMARK    5  A    between atoms: C_5  and  S_7
REMARK    6  A    between atoms: S_7  and  C_8
REMARK    7  A    between atoms: C_8  and  C_9
REMARK                            x       y       z     vdW  Elec       q    Type
REMARK                         _______ _______ _______ _____ _____    ______ ____
ROOT
ATOM      1  S   UNL     1       2.961   6.046  19.333  0.00  0.00    +0.000 S 
ENDROOT
BRANCH   1   2
ATOM      2  C   UNL     1       2.148   4.638  20.087  0.00  0.00    +0.000 C 
ATOM      3  O   UNL     1       2.181   4.505  21.301  0.00  0.00    +0.000 OA
BRANCH   2   4
ATOM      4  O   UNL     1       1.548   3.711  19.296  0.00  0.00    +0.000 OA
BRANCH   4   5
ATOM      5  C   UNL     1       1.874   2.367  19.304  0.00  0.00    +0.000 C 
BRANCH   5   6
ATOM      6  C   UNL     1       2.620   2.018  18.011  0.00  0.00    +0.000 C 
BRANCH   6   7
ATOM      7  N   UNL     1       3.939   1.467  18.303  0.00  0.00    +0.000 NA
ATOM      8  H   UNL     1       3.882   0.954  19.213  0.00  0.00    +0.000 HD
ATOM      9  H   UNL     1       4.617   2.252  18.426  0.00  0.00    +0.000 HD
ENDBRANCH   6   7
ENDBRANCH   5   6
ENDBRANCH   4   5
ENDBRANCH   2   4
ENDBRANCH   1   2
BRANCH   1  10
ATOM     10  C   UNL     1       4.611   5.262  19.456  0.00  0.00    +0.000 C 
BRANCH  10  11
ATOM     11  C   UNL     1       5.274   5.162  18.103  0.00  0.00    +0.000 A 
ATOM     12  C   UNL     1       4.489   4.885  16.968  0.00  0.00    +0.000 A 
ATOM     13  C   UNL     1       5.073   4.799  15.702  0.00  0.00    +0.000 A 
ATOM     14  C   UNL     1       6.447   4.988  15.550  0.00  0.00    +0.000 A 
ATOM     15 CL   UNL     1       7.178   4.881  13.959  0.00  0.00    +0.000 Cl
ATOM     16  C   UNL     1       7.242   5.270  16.665  0.00  0.00    +0.000 A 
ATOM     17  C   UNL     1       6.665   5.359  17.940  0.00  0.00    +0.000 A 
ATOM     18 CL   UNL     1       7.721   5.744  19.296  0.00  0.00    +0.000 Cl
ENDBRANCH  10  11
ENDBRANCH   1  10
TORSDOF 7
ENDMDL
