MODEL 1
REMARK VINA RESULT:      -7.0      0.000      0.000
REMARK  Name = 
REMARK  3 active torsions:
REMARK  status: ('A' for Active; 'I' for Inactive)
REMARK    1  A    between atoms: C_5  and  N_6
REMARK    2  A    between atoms: N_6  and  C_7
REMARK    3  A    between atoms: C_7  and  C_8
REMARK                            x       y       z     vdW  Elec       q    Type
REMARK                         _______ _______ _______ _____ _____    ______ ____
ROOT
ATOM      1  C   UNL     1       6.596   5.440  19.284  0.00  0.00    +0.000 C 
ENDROOT
BRANCH   1   2
ATOM      2  C   UNL     1       5.241   4.822  19.461  0.00  0.00    +0.000 A 
ATOM      3  N   UNL     1       4.913   3.551  19.341  0.00  0.00    +0.000 NA
ATOM      4  C   UNL     1       3.569   3.486  19.627  0.00  0.00    +0.000 A 
ATOM      5  C   UNL     1       2.709   2.380  19.661  0.00  0.00    +0.000 A 
ATOM      6  C   UNL     1       1.361   2.583  19.990  0.00  0.00    +0.000 A 
ATOM      7  C   UNL     1       0.882   3.863  20.278  0.00  0.00    +0.000 A 
ATOM      8  C   UNL     1       1.725   4.982  20.245  0.00  0.00    +0.000 A 
ATOM      9  C   UNL     1       3.063   4.749  19.916  0.00  0.00    +0.000 A 
ATOM     10  N   UNL     1       4.144   5.583  19.791  0.00  0.00    +0.000 N 
ATOM     11  H   UNL     1       4.148   6.585  19.912  0.00  0.00    +0.000 HD
ENDBRANCH   1   2
BRANCH   1  12
ATOM     12  N   UNL     1       6.662   6.373  18.152  0.00  0.00    +0.000 N 
ATOM     13  H   UNL     1       6.014   7.145  18.308  0.00  0.00    +0.000 HD
BRANCH  12  18
ATOM     14  I   UNL     1       5.698   3.555  12.598  0.00  0.00    +0.000 I 
ATOM     15  C   UNL     1       6.039   4.530  14.402  0.00  0.00    +0.000 A 
ATOM     16  C   UNL     1       7.059   4.097  15.243  0.00  0.00    +0.000 A 
ATOM     17  C   UNL     1       7.261   4.736  16.472  0.00  0.00    +0.000 A 
ATOM     18  C   UNL     1       6.478   5.834  16.864  0.00  0.00    +0.000 A 
ATOM     19  C   UNL     1       5.448   6.241  16.007  0.00  0.00    +0.000 A 
ATOM     20  C   UNL     1       5.233   5.601  14.777  0.00  0.00    +0.000 A 
ENDBRANCH  12  18
ENDBRANCH   1  12
TORSDOF 3
ENDMDL
MODEL 2
REMARK VINA RESULT:      -7.0      0.476      1.450
REMARK  Name = 
REMARK  3 active torsions:
REMARK  status: ('A' for Active; 'I' for Inactive)
REMARK    1  A    between atoms: C_5  and  N_6
REMARK    2  A    between atoms: N_6  and  C_7
REMARK    3  A    between atoms: C_7  and  C_8
REMARK                            x       y       z     vdW  Elec       q    Type
REMARK                         _______ _______ _______ _____ _____    ______ ____
ROOT
ATOM      1  C   UNL     1       6.610   5.456  19.305  0.00  0.00    +0.000 C 
ENDROOT
BRANCH   1   2
ATOM      2  C   UNL     1       5.261   4.805  19.352  0.00  0.00    +0.000 A 
ATOM      3  N   UNL     1       4.101   5.372  19.618  0.00  0.00    +0.000 NA
ATOM      4  C   UNL     1       3.164   4.369  19.511  0.00  0.00    +0.000 A 
ATOM      5  C   UNL     1       1.774   4.416  19.678  0.00  0.00    +0.000 A 
ATOM      6  C   UNL     1       1.033   3.238  19.506  0.00  0.00    +0.000 A 
ATOM      7  C   UNL     1       1.668   2.038  19.176  0.00  0.00    +0.000 A 
ATOM      8  C   UNL     1       3.058   1.971  19.009  0.00  0.00    +0.000 A 
ATOM      9  C   UNL     1       3.769   3.160  19.184  0.00  0.00    +0.000 A 
ATOM     10  N   UNL     1       5.104   3.461  19.101  0.00  0.00    +0.000 N 
ATOM     11  H   UNL     1       5.855   2.817  18.899  0.00  0.00    +0.000 HD
ENDBRANCH   1   2
BRANCH   1  12
ATOM     12  N   UNL     1       6.772   6.369  18.166  0.00  0.00    +0.000 N 
ATOM     13  H   UNL     1       6.198   7.199  18.311  0.00  0.00    +0.000 HD
BRANCH  12  18
ATOM     14  I   UNL     1       5.631   3.588  12.627  0.00  0.00    +0.000 I 
ATOM     15  C   UNL     1       6.030   4.551  14.425  0.00  0.00    +0.000 A 
ATOM     16  C   UNL     1       7.073   4.110  15.233  0.00  0.00    +0.000 A 
ATOM     17  C   UNL     1       7.314   4.741  16.459  0.00  0.00    +0.000 A 
ATOM     18  C   UNL     1       6.546   5.838  16.881  0.00  0.00    +0.000 A 
ATOM     19  C   UNL     1       5.493   6.253  16.058  0.00  0.00    +0.000 A 
ATOM     20  C   UNL     1       5.238   5.622  14.831  0.00  0.00    +0.000 A 
ENDBRANCH  12  18
ENDBRANCH   1  12
TORSDOF 3
ENDMDL
MODEL 3
REMARK VINA RESULT:      -7.0      0.139      1.140
REMARK  Name = 
REMARK  3 active torsions:
REMARK  status: ('A' for Active; 'I' for Inactive)
REMARK    1  A    between atoms: C_5  and  N_6
REMARK    2  A    between atoms: N_6  and  C_7
REMARK    3  A    between atoms: C_7  and  C_8
REMARK                            x       y       z     vdW  Elec       q    Type
REMARK                         _______ _______ _______ _____ _____    ______ ____
ROOT
ATOM      1  C   UNL     1       6.584   5.534  19.309  0.00  0.00    +0.000 C 
ENDROOT
BRANCH   1   2
ATOM      2  C   UNL     1       5.245   4.882  19.481  0.00  0.00    +0.000 A 
ATOM      3  N   UNL     1       4.953   3.600  19.380  0.00  0.00    +0.000 NA
ATOM      4  C   UNL     1       3.607   3.504  19.651  0.00  0.00    +0.000 A 
ATOM      5  C   UNL     1       2.778   2.376  19.695  0.00  0.00    +0.000 A 
ATOM      6  C   UNL     1       1.421   2.547  20.005  0.00  0.00    +0.000 A 
ATOM      7  C   UNL     1       0.904   3.819  20.265  0.00  0.00    +0.000 A 
ATOM      8  C   UNL     1       1.717   4.959  20.223  0.00  0.00    +0.000 A 
ATOM      9  C   UNL     1       3.064   4.757  19.913  0.00  0.00    +0.000 A 
ATOM     10  N   UNL     1       4.123   5.618  19.786  0.00  0.00    +0.000 N 
ATOM     11  H   UNL     1       4.099   6.622  19.889  0.00  0.00    +0.000 HD
ENDBRANCH   1   2
BRANCH   1  12
ATOM     12  N   UNL     1       6.703   6.289  18.055  0.00  0.00    +0.000 N 
ATOM     13  H   UNL     1       6.140   7.138  18.115  0.00  0.00    +0.000 HD
BRANCH  12  18
ATOM     14  I   UNL     1       5.608   3.576  12.474  0.00  0.00    +0.000 I 
ATOM     15  C   UNL     1       5.941   4.426  14.341  0.00  0.00    +0.000 A 
ATOM     16  C   UNL     1       5.231   5.559  14.724  0.00  0.00    +0.000 A 
ATOM     17  C   UNL     1       5.485   6.148  15.968  0.00  0.00    +0.000 A 
ATOM     18  C   UNL     1       6.420   5.599  16.861  0.00  0.00    +0.000 A 
ATOM     19  C   UNL     1       7.132   4.467  16.446  0.00  0.00    +0.000 A 
ATOM     20  C   UNL     1       6.890   3.876  15.197  0.00  0.00    +0.000 A 
ENDBRANCH  12  18
ENDBRANCH   1  12
TORSDOF 3
ENDMDL
MODEL 4
REMARK VINA RESULT:      -6.9      0.440      1.828
REMARK  Name = 
REMARK  3 active torsions:
REMARK  status: ('A' for Active; 'I' for Inactive)
REMARK    1  A    between atoms: C_5  and  N_6
REMARK    2  A    between atoms: N_6  and  C_7
REMARK    3  A    between atoms: C_7  and  C_8
REMARK                            x       y       z     vdW  Elec       q    Type
REMARK                         _______ _______ _______ _____ _____    ______ ____
ROOT
ATOM      1  C   UNL     1       6.598   5.516  19.315  0.00  0.00    +0.000 C 
ENDROOT
BRANCH   1   2
ATOM      2  C   UNL     1       5.253   4.858  19.393  0.00  0.00    +0.000 A 
ATOM      3  N   UNL     1       4.088   5.431  19.626  0.00  0.00    +0.000 NA
ATOM      4  C   UNL     1       3.159   4.417  19.569  0.00  0.00    +0.000 A 
ATOM      5  C   UNL     1       1.768   4.464  19.730  0.00  0.00    +0.000 A 
ATOM      6  C   UNL     1       1.036   3.273  19.617  0.00  0.00    +0.000 A 
ATOM      7  C   UNL     1       1.680   2.062  19.351  0.00  0.00    +0.000 A 
ATOM      8  C   UNL     1       3.070   1.996  19.189  0.00  0.00    +0.000 A 
ATOM      9  C   UNL     1       3.772   3.197  19.306  0.00  0.00    +0.000 A 
ATOM     10  N   UNL     1       5.105   3.503  19.210  0.00  0.00    +0.000 N 
ATOM     11  H   UNL     1       5.861   2.855  19.042  0.00  0.00    +0.000 HD
ENDBRANCH   1   2
BRANCH   1  12
ATOM     12  N   UNL     1       6.811   6.251  18.062  0.00  0.00    +0.000 N 
ATOM     13  H   UNL     1       6.322   7.145  18.105  0.00  0.00    +0.000 HD
BRANCH  12  18
ATOM     14  I   UNL     1       5.574   3.632  12.465  0.00  0.00    +0.000 I 
ATOM     15  C   UNL     1       5.955   4.450  14.337  0.00  0.00    +0.000 A 
ATOM     16  C   UNL     1       5.244   5.567  14.764  0.00  0.00    +0.000 A 
ATOM     17  C   UNL     1       5.530   6.135  16.012  0.00  0.00    +0.000 A 
ATOM     18  C   UNL     1       6.499   5.581  16.864  0.00  0.00    +0.000 A 
ATOM     19  C   UNL     1       7.211   4.466  16.404  0.00  0.00    +0.000 A 
ATOM     20  C   UNL     1       6.937   3.896  15.152  0.00  0.00    +0.000 A 
ENDBRANCH  12  18
ENDBRANCH   1  12
TORSDOF 3
ENDMDL
MODEL 5
REMARK VINA RESULT:      -6.8      2.925      6.471
REMARK  Name = 
REMARK  3 active torsions:
REMARK  status: ('A' for Active; 'I' for Inactive)
REMARK    1  A    between atoms: C_5  and  N_6
REMARK    2  A    between atoms: N_6  and  C_7
REMARK    3  A    between atoms: C_7  and  C_8
REMARK                            x       y       z     vdW  Elec       q    Type
REMARK                         _______ _______ _______ _____ _____    ______ ____
ROOT
ATOM      1  C   UNL     1       7.070   5.066  17.640  0.00  0.00    +0.000 C 
ENDROOT
BRANCH   1   2
ATOM      2  C   UNL     1       7.007   4.860  16.156  0.00  0.00    +0.000 A 
ATOM      3  N   UNL     1       7.691   5.495  15.225  0.00  0.00    +0.000 NA
ATOM      4  C   UNL     1       7.304   4.930  14.031  0.00  0.00    +0.000 A 
ATOM      5  C   UNL     1       7.724   5.215  12.724  0.00  0.00    +0.000 A 
ATOM      6  C   UNL     1       7.172   4.482  11.664  0.00  0.00    +0.000 A 
ATOM      7  C   UNL     1       6.221   3.487  11.903  0.00  0.00    +0.000 A 
ATOM      8  C   UNL     1       5.786   3.191  13.203  0.00  0.00    +0.000 A 
ATOM      9  C   UNL     1       6.355   3.936  14.238  0.00  0.00    +0.000 A 
ATOM     10  N   UNL     1       6.174   3.920  15.597  0.00  0.00    +0.000 N 
ATOM     11  H   UNL     1       5.537   3.329  16.113  0.00  0.00    +0.000 HD
ENDBRANCH   1   2
BRANCH   1  12
ATOM     12  N   UNL     1       5.972   5.895  18.155  0.00  0.00    +0.000 N 
ATOM     13  H   UNL     1       6.350   6.618  18.767  0.00  0.00    +0.000 HD
BRANCH  12  18
ATOM     14  I   UNL     1       1.498   2.820  21.355  0.00  0.00    +0.000 I 
ATOM     15  C   UNL     1       2.938   3.837  20.253  0.00  0.00    +0.000 A 
ATOM     16  C   UNL     1       4.053   3.158  19.774  0.00  0.00    +0.000 A 
ATOM     17  C   UNL     1       5.036   3.856  19.063  0.00  0.00    +0.000 A 
ATOM     18  C   UNL     1       4.907   5.227  18.789  0.00  0.00    +0.000 A 
ATOM     19  C   UNL     1       3.783   5.891  19.295  0.00  0.00    +0.000 A 
ATOM     20  C   UNL     1       2.797   5.201  20.016  0.00  0.00    +0.000 A 
ENDBRANCH  12  18
ENDBRANCH   1  12
TORSDOF 3
ENDMDL
MODEL 6
REMARK VINA RESULT:      -6.8      2.907      6.522
REMARK  Name = 
REMARK  3 active torsions:
REMARK  status: ('A' for Active; 'I' for Inactive)
REMARK    1  A    between atoms: C_5  and  N_6
REMARK    2  A    between atoms: N_6  and  C_7
REMARK    3  A    between atoms: C_7  and  C_8
REMARK                            x       y       z     vdW  Elec       q    Type
REMARK                         _______ _______ _______ _____ _____    ______ ____
ROOT
ATOM      1  C   UNL     1       6.890   5.606  17.432  0.00  0.00    +0.000 C 
ENDROOT
BRANCH   1   2
ATOM      2  C   UNL     1       6.845   5.206  15.988  0.00  0.00    +0.000 A 
ATOM      3  N   UNL     1       7.662   5.579  15.022  0.00  0.00    +0.000 NA
ATOM      4  C   UNL     1       7.224   4.925  13.893  0.00  0.00    +0.000 A 
ATOM      5  C   UNL     1       7.733   4.948  12.587  0.00  0.00    +0.000 A 
ATOM      6  C   UNL     1       7.099   4.176  11.603  0.00  0.00    +0.000 A 
ATOM      7  C   UNL     1       5.981   3.399  11.916  0.00  0.00    +0.000 A 
ATOM      8  C   UNL     1       5.456   3.367  13.215  0.00  0.00    +0.000 A 
ATOM      9  C   UNL     1       6.109   4.144  14.174  0.00  0.00    +0.000 A 
ATOM     10  N   UNL     1       5.880   4.350  15.510  0.00  0.00    +0.000 N 
ATOM     11  H   UNL     1       5.133   3.953  16.061  0.00  0.00    +0.000 HD
ENDBRANCH   1   2
BRANCH   1  12
ATOM     12  N   UNL     1       5.649   6.238  17.896  0.00  0.00    +0.000 N 
ATOM     13  H   UNL     1       5.867   7.131  18.339  0.00  0.00    +0.000 HD
BRANCH  12  18
ATOM     14  I   UNL     1       1.570   2.827  21.276  0.00  0.00    +0.000 I 
ATOM     15  C   UNL     1       2.951   3.954  20.208  0.00  0.00    +0.000 A 
ATOM     16  C   UNL     1       2.681   5.287  19.916  0.00  0.00    +0.000 A 
ATOM     17  C   UNL     1       3.600   6.032  19.166  0.00  0.00    +0.000 A 
ATOM     18  C   UNL     1       4.811   5.472  18.728  0.00  0.00    +0.000 A 
ATOM     19  C   UNL     1       5.052   4.125  19.022  0.00  0.00    +0.000 A 
ATOM     20  C   UNL     1       4.133   3.369  19.765  0.00  0.00    +0.000 A 
ENDBRANCH  12  18
ENDBRANCH   1  12
TORSDOF 3
ENDMDL
MODEL 7
REMARK VINA RESULT:      -6.8      2.716      3.558
REMARK  Name = 
REMARK  3 active torsions:
REMARK  status: ('A' for Active; 'I' for Inactive)
REMARK    1  A    between atoms: C_5  and  N_6
REMARK    2  A    between atoms: N_6  and  C_7
REMARK    3  A    between atoms: C_7  and  C_8
REMARK                            x       y       z     vdW  Elec       q    Type
REMARK                         _______ _______ _______ _____ _____    ______ ____
ROOT
ATOM      1  C   UNL     1       5.153   3.863  16.577  0.00  0.00    +0.000 C 
ENDROOT
BRANCH   1   2
ATOM      2  C   UNL     1       4.196   3.704  17.720  0.00  0.00    +0.000 A 
ATOM      3  N   UNL     1       2.952   4.136  17.795  0.00  0.00    +0.000 NA
ATOM      4  C   UNL     1       2.489   3.719  19.023  0.00  0.00    +0.000 A 
ATOM      5  C   UNL     1       1.231   3.893  19.615  0.00  0.00    +0.000 A 
ATOM      6  C   UNL     1       1.008   3.360  20.892  0.00  0.00    +0.000 A 
ATOM      7  C   UNL     1       2.020   2.669  21.564  0.00  0.00    +0.000 A 
ATOM      8  C   UNL     1       3.285   2.488  20.989  0.00  0.00    +0.000 A 
ATOM      9  C   UNL     1       3.478   3.029  19.716  0.00  0.00    +0.000 A 
ATOM     10  N   UNL     1       4.557   3.044  18.871  0.00  0.00    +0.000 N 
ATOM     11  H   UNL     1       5.468   2.649  19.051  0.00  0.00    +0.000 HD
ENDBRANCH   1   2
BRANCH   1  12
ATOM     12  N   UNL     1       6.561   3.856  16.996  0.00  0.00    +0.000 N 
ATOM     13  H   UNL     1       6.688   3.180  17.748  0.00  0.00    +0.000 HD
BRANCH  12  18
ATOM     14  I   UNL     1       8.675   9.580  18.568  0.00  0.00    +0.000 I 
ATOM     15  C   UNL     1       8.033   7.674  18.045  0.00  0.00    +0.000 A 
ATOM     16  C   UNL     1       7.493   7.445  16.784  0.00  0.00    +0.000 A 
ATOM     17  C   UNL     1       7.031   6.167  16.450  0.00  0.00    +0.000 A 
ATOM     18  C   UNL     1       7.131   5.094  17.350  0.00  0.00    +0.000 A 
ATOM     19  C   UNL     1       7.664   5.353  18.619  0.00  0.00    +0.000 A 
ATOM     20  C   UNL     1       8.122   6.633  18.965  0.00  0.00    +0.000 A 
ENDBRANCH  12  18
ENDBRANCH   1  12
TORSDOF 3
ENDMDL
MODEL 8
REMARK VINA RESULT:      -6.8      2.714      6.221
REMARK  Name = 
REMARK  3 active torsions:
REMARK  status: ('A' for Active; 'I' for Inactive)
REMARK    1  A    between atoms: C_5  and  N_6
REMARK    2  A    between atoms: N_6  and  C_7
REMARK    3  A    between atoms: C_7  and  C_8
REMARK                            x       y       z     vdW  Elec       q    Type
REMARK                         _______ _______ _______ _____ _____    ______ ____
ROOT
ATOM      1  C   UNL     1       7.157   5.552  17.507  0.00  0.00    +0.000 C 
ENDROOT
BRANCH   1   2
ATOM      2  C   UNL     1       6.994   5.058  16.101  0.00  0.00    +0.000 A 
ATOM      3  N   UNL     1       6.209   4.090  15.672  0.00  0.00    +0.000 NA
ATOM      4  C   UNL     1       6.394   4.038  14.309  0.00  0.00    +0.000 A 
ATOM      5  C   UNL     1       5.802   3.203  13.353  0.00  0.00    +0.000 A 
ATOM      6  C   UNL     1       6.163   3.357  12.007  0.00  0.00    +0.000 A 
ATOM      7  C   UNL     1       7.098   4.322  11.624  0.00  0.00    +0.000 A 
ATOM      8  C   UNL     1       7.704   5.164  12.567  0.00  0.00    +0.000 A 
ATOM      9  C   UNL     1       7.323   4.989  13.899  0.00  0.00    +0.000 A 
ATOM     10  N   UNL     1       7.698   5.616  15.059  0.00  0.00    +0.000 N 
ATOM     11  H   UNL     1       8.378   6.357  15.150  0.00  0.00    +0.000 HD
ENDBRANCH   1   2
BRANCH   1  12
ATOM     12  N   UNL     1       5.974   6.260  18.012  0.00  0.00    +0.000 N 
ATOM     13  H   UNL     1       6.245   6.867  18.785  0.00  0.00    +0.000 HD
BRANCH  12  18
ATOM     14  I   UNL     1       0.970   2.612  19.179  0.00  0.00    +0.000 I 
ATOM     15  C   UNL     1       2.617   3.835  18.849  0.00  0.00    +0.000 A 
ATOM     16  C   UNL     1       2.491   4.970  18.055  0.00  0.00    +0.000 A 
ATOM     17  C   UNL     1       3.612   5.771  17.808  0.00  0.00    +0.000 A 
ATOM     18  C   UNL     1       4.862   5.475  18.374  0.00  0.00    +0.000 A 
ATOM     19  C   UNL     1       4.967   4.319  19.158  0.00  0.00    +0.000 A 
ATOM     20  C   UNL     1       3.850   3.506  19.404  0.00  0.00    +0.000 A 
ENDBRANCH  12  18
ENDBRANCH   1  12
TORSDOF 3
ENDMDL
MODEL 9
REMARK VINA RESULT:      -6.6      2.770      6.165
REMARK  Name = 
REMARK  3 active torsions:
REMARK  status: ('A' for Active; 'I' for Inactive)
REMARK    1  A    between atoms: C_5  and  N_6
REMARK    2  A    between atoms: N_6  and  C_7
REMARK    3  A    between atoms: C_7  and  C_8
REMARK                            x       y       z     vdW  Elec       q    Type
REMARK                         _______ _______ _______ _____ _____    ______ ____
ROOT
ATOM      1  C   UNL     1       7.284   5.309  17.542  0.00  0.00    +0.000 C 
ENDROOT
BRANCH   1   2
ATOM      2  C   UNL     1       7.062   4.890  16.119  0.00  0.00    +0.000 A 
ATOM      3  N   UNL     1       6.211   3.990  15.668  0.00  0.00    +0.000 NA
ATOM      4  C   UNL     1       6.364   3.988  14.300  0.00  0.00    +0.000 A 
ATOM      5  C   UNL     1       5.702   3.233  13.323  0.00  0.00    +0.000 A 
ATOM      6  C   UNL     1       6.042   3.425  11.977  0.00  0.00    +0.000 A 
ATOM      7  C   UNL     1       7.024   4.351  11.614  0.00  0.00    +0.000 A 
ATOM      8  C   UNL     1       7.700   5.112  12.577  0.00  0.00    +0.000 A 
ATOM      9  C   UNL     1       7.338   4.900  13.910  0.00  0.00    +0.000 A 
ATOM     10  N   UNL     1       7.775   5.452  15.086  0.00  0.00    +0.000 N 
ATOM     11  H   UNL     1       8.500   6.147  15.193  0.00  0.00    +0.000 HD
ENDBRANCH   1   2
BRANCH   1  12
ATOM     12  N   UNL     1       6.148   6.044  18.112  0.00  0.00    +0.000 N 
ATOM     13  H   UNL     1       6.445   6.524  18.962  0.00  0.00    +0.000 HD
BRANCH  12  18
ATOM     14  I   UNL     1       0.908   2.893  19.640  0.00  0.00    +0.000 I 
ATOM     15  C   UNL     1       2.632   3.911  19.082  0.00  0.00    +0.000 A 
ATOM     16  C   UNL     1       3.874   3.472  19.530  0.00  0.00    +0.000 A 
ATOM     17  C   UNL     1       5.028   4.182  19.179  0.00  0.00    +0.000 A 
ATOM     18  C   UNL     1       4.967   5.315  18.351  0.00  0.00    +0.000 A 
ATOM     19  C   UNL     1       3.704   5.745  17.925  0.00  0.00    +0.000 A 
ATOM     20  C   UNL     1       2.542   5.045  18.279  0.00  0.00    +0.000 A 
ENDBRANCH  12  18
ENDBRANCH   1  12
TORSDOF 3
ENDMDL
