MODEL 1
REMARK VINA RESULT:      -8.3      0.000      0.000
REMARK  Name = 
REMARK  5 active torsions:
REMARK  status: ('A' for Active; 'I' for Inactive)
REMARK    1  A    between atoms: N_1  and  S_2
REMARK    2  A    between atoms: S_2  and  C_5
REMARK    3  A    between atoms: C_14  and  N_15
REMARK    4  A    between atoms: N_15  and  C_16
REMARK    5  A    between atoms: C_21  and  N_22
REMARK                            x       y       z     vdW  Elec       q    Type
REMARK                         _______ _______ _______ _____ _____    ______ ____
ROOT
ATOM      1  C   UNL     1       0.951  10.583  20.239  0.00  0.00    +0.000 A 
ATOM      2  C   UNL     1       0.451  10.435  21.554  0.00  0.00    +0.000 A 
ATOM      3  C   UNL     1       0.484   9.207  22.190  0.00  0.00    +0.000 A 
ATOM      4  C   UNL     1       1.039   8.112  21.542  0.00  0.00    +0.000 A 
ATOM      5  C   UNL     1       1.524   8.229  20.226  0.00  0.00    +0.000 A 
ATOM      6  C   UNL     1       1.454   9.464  19.548  0.00  0.00    +0.000 A 
ATOM      7  C   UNL     1       1.856   9.484  18.123  0.00  0.00    +0.000 C 
ATOM      8  O   UNL     1       1.659  10.415  17.366  0.00  0.00    +0.000 OA
ATOM      9  C   UNL     1       2.493   8.285  17.564  0.00  0.00    +0.000 C 
ATOM     10  C   UNL     1       2.657   7.129  18.219  0.00  0.00    +0.000 C 
ATOM     11  C   UNL     1       2.115   7.010  19.605  0.00  0.00    +0.000 C 
ATOM     12  O   UNL     1       2.178   5.955  20.217  0.00  0.00    +0.000 OA
ENDROOT
BRANCH   1  13
ATOM     13  S   UNL     1       0.926  12.241  19.603  0.00  0.00    +0.000 S 
ATOM     14  O   UNL     1       2.213  12.553  19.054  0.00  0.00    +0.000 OA
ATOM     15  O   UNL     1       0.308  13.095  20.609  0.00  0.00    +0.000 OA
BRANCH  13  16
ATOM     16  N   UNL     1      -0.218  12.184  18.389  0.00  0.00    +0.000 NA
ATOM     17  H   UNL     1      -0.954  11.524  18.638  0.00  0.00    +0.000 HD
ATOM     18  H   UNL     1       0.204  12.076  17.470  0.00  0.00    +0.000 HD
ENDBRANCH  13  16
ENDBRANCH   1  13
BRANCH  10  19
ATOM     19  N   UNL     1       3.317   6.055  17.639  0.00  0.00    +0.000 N 
ATOM     20  H   UNL     1       2.846   5.153  17.723  0.00  0.00    +0.000 HD
BRANCH  19  21
ATOM     21  C   UNL     1       4.735   5.871  17.740  0.00  0.00    +0.000 A 
ATOM     22  C   UNL     1       5.608   6.951  17.489  0.00  0.00    +0.000 A 
ATOM     23  C   UNL     1       6.986   6.823  17.634  0.00  0.00    +0.000 A 
ATOM     24  C   UNL     1       7.520   5.603  18.019  0.00  0.00    +0.000 A 
ATOM     25  C   UNL     1       6.673   4.516  18.260  0.00  0.00    +0.000 A 
ATOM     26  C   UNL     1       5.273   4.614  18.138  0.00  0.00    +0.000 A 
BRANCH  26  27
ATOM     27  N   UNL     1       4.461   3.532  18.435  0.00  0.00    +0.000 N 
ATOM     28  C   UNL     1       4.418   2.928  19.771  0.00  0.00    +0.000 C 
ATOM     29  C   UNL     1       2.946   2.583  20.098  0.00  0.00    +0.000 C 
ATOM     30  N   UNL     1       2.263   1.755  19.080  0.00  0.00    +0.000 NA
ATOM     31  C   UNL     1       2.455   2.324  17.727  0.00  0.00    +0.000 C 
ATOM     32  C   UNL     1       3.924   2.659  17.382  0.00  0.00    +0.000 C 
ATOM     33  H   UNL     1       1.264   1.750  19.288  0.00  0.00    +0.000 HD
ENDBRANCH  26  27
ENDBRANCH  19  21
ENDBRANCH  10  19
TORSDOF 5
ENDMDL
MODEL 2
REMARK VINA RESULT:      -8.3      2.311      4.163
REMARK  Name = 
REMARK  5 active torsions:
REMARK  status: ('A' for Active; 'I' for Inactive)
REMARK    1  A    between atoms: N_1  and  S_2
REMARK    2  A    between atoms: S_2  and  C_5
REMARK    3  A    between atoms: C_14  and  N_15
REMARK    4  A    between atoms: N_15  and  C_16
REMARK    5  A    between atoms: C_21  and  N_22
REMARK                            x       y       z     vdW  Elec       q    Type
REMARK                         _______ _______ _______ _____ _____    ______ ____
ROOT
ATOM      1  C   UNL     1       0.340  10.101  21.041  0.00  0.00    +0.000 A 
ATOM      2  C   UNL     1       0.088  11.398  20.535  0.00  0.00    +0.000 A 
ATOM      3  C   UNL     1       0.531  11.767  19.279  0.00  0.00    +0.000 A 
ATOM      4  C   UNL     1       1.208  10.846  18.490  0.00  0.00    +0.000 A 
ATOM      5  C   UNL     1       1.489   9.557  18.979  0.00  0.00    +0.000 A 
ATOM      6  C   UNL     1       1.084   9.181  20.277  0.00  0.00    +0.000 A 
ATOM      7  C   UNL     1       1.530   7.861  20.776  0.00  0.00    +0.000 C 
ATOM      8  O   UNL     1       1.433   7.494  21.931  0.00  0.00    +0.000 OA
ATOM      9  C   UNL     1       2.180   6.944  19.831  0.00  0.00    +0.000 C 
ATOM     10  C   UNL     1       2.490   7.244  18.563  0.00  0.00    +0.000 C 
ATOM     11  C   UNL     1       2.209   8.623  18.066  0.00  0.00    +0.000 C 
ATOM     12  O   UNL     1       2.536   8.965  16.941  0.00  0.00    +0.000 OA
ENDROOT
BRANCH   1  13
ATOM     13  S   UNL     1      -0.379   9.754  22.627  0.00  0.00    +0.000 S 
ATOM     14  O   UNL     1      -1.058   8.493  22.569  0.00  0.00    +0.000 OA
ATOM     15  O   UNL     1      -1.063  10.959  23.079  0.00  0.00    +0.000 OA
BRANCH  13  16
ATOM     16  N   UNL     1       0.938   9.651  23.647  0.00  0.00    +0.000 NA
ATOM     17  H   UNL     1       1.635   9.022  23.249  0.00  0.00    +0.000 HD
ATOM     18  H   UNL     1       0.664   9.481  24.611  0.00  0.00    +0.000 HD
ENDBRANCH  13  16
ENDBRANCH   1  13
BRANCH  10  19
ATOM     19  N   UNL     1       3.056   6.303  17.715  0.00  0.00    +0.000 N 
ATOM     20  H   UNL     1       3.035   6.539  16.722  0.00  0.00    +0.000 HD
BRANCH  19  21
ATOM     21  C   UNL     1       2.860   4.893  17.881  0.00  0.00    +0.000 A 
ATOM     22  C   UNL     1       1.587   4.392  18.225  0.00  0.00    +0.000 A 
ATOM     23  C   UNL     1       1.349   3.026  18.339  0.00  0.00    +0.000 A 
ATOM     24  C   UNL     1       2.387   2.133  18.125  0.00  0.00    +0.000 A 
ATOM     25  C   UNL     1       3.660   2.609  17.796  0.00  0.00    +0.000 A 
ATOM     26  C   UNL     1       3.934   3.984  17.658  0.00  0.00    +0.000 A 
BRANCH  26  27
ATOM     27  N   UNL     1       5.193   4.420  17.279  0.00  0.00    +0.000 N 
ATOM     28  C   UNL     1       5.803   4.037  16.002  0.00  0.00    +0.000 C 
ATOM     29  C   UNL     1       6.524   5.278  15.421  0.00  0.00    +0.000 C 
ATOM     30  N   UNL     1       7.490   5.919  16.340  0.00  0.00    +0.000 NA
ATOM     31  C   UNL     1       6.875   6.155  17.665  0.00  0.00    +0.000 C 
ATOM     32  C   UNL     1       6.164   4.918  18.263  0.00  0.00    +0.000 C 
ATOM     33  H   UNL     1       7.757   6.821  15.945  0.00  0.00    +0.000 HD
ENDBRANCH  26  27
ENDBRANCH  19  21
ENDBRANCH  10  19
TORSDOF 5
ENDMDL
MODEL 3
REMARK VINA RESULT:      -8.2      2.337      4.037
REMARK  Name = 
REMARK  5 active torsions:
REMARK  status: ('A' for Active; 'I' for Inactive)
REMARK    1  A    between atoms: N_1  and  S_2
REMARK    2  A    between atoms: S_2  and  C_5
REMARK    3  A    between atoms: C_14  and  N_15
REMARK    4  A    between atoms: N_15  and  C_16
REMARK    5  A    between atoms: C_21  and  N_22
REMARK                            x       y       z     vdW  Elec       q    Type
REMARK                         _______ _______ _______ _____ _____    ______ ____
ROOT
ATOM      1  C   UNL     1       0.264  10.267  21.174  0.00  0.00    +0.000 A 
ATOM      2  C   UNL     1      -0.081  11.531  20.642  0.00  0.00    +0.000 A 
ATOM      3  C   UNL     1       0.272  11.876  19.350  0.00  0.00    +0.000 A 
ATOM      4  C   UNL     1       0.949  10.961  18.555  0.00  0.00    +0.000 A 
ATOM      5  C   UNL     1       1.322   9.705  19.069  0.00  0.00    +0.000 A 
ATOM      6  C   UNL     1       1.010   9.358  20.400  0.00  0.00    +0.000 A 
ATOM      7  C   UNL     1       1.549   8.080  20.916  0.00  0.00    +0.000 C 
ATOM      8  O   UNL     1       1.535   7.750  22.087  0.00  0.00    +0.000 OA
ATOM      9  C   UNL     1       2.191   7.162  19.966  0.00  0.00    +0.000 C 
ATOM     10  C   UNL     1       2.413   7.430  18.674  0.00  0.00    +0.000 C 
ATOM     11  C   UNL     1       2.037   8.776  18.148  0.00  0.00    +0.000 C 
ATOM     12  O   UNL     1       2.282   9.092  16.995  0.00  0.00    +0.000 OA
ENDROOT
BRANCH   1  13
ATOM     13  S   UNL     1      -0.347   9.943  22.811  0.00  0.00    +0.000 S 
ATOM     14  O   UNL     1      -1.354  10.911  23.136  0.00  0.00    +0.000 OA
ATOM     15  O   UNL     1       0.802   9.730  23.680  0.00  0.00    +0.000 OA
BRANCH  13  16
ATOM     16  N   UNL     1      -1.028   8.424  22.688  0.00  0.00    +0.000 NA
ATOM     17  H   UNL     1      -2.012   8.465  22.948  0.00  0.00    +0.000 HD
ATOM     18  H   UNL     1      -0.462   7.713  23.142  0.00  0.00    +0.000 HD
ENDBRANCH  13  16
ENDBRANCH   1  13
BRANCH  10  19
ATOM     19  N   UNL     1       2.979   6.488  17.826  0.00  0.00    +0.000 N 
ATOM     20  H   UNL     1       2.991   6.740  16.836  0.00  0.00    +0.000 HD
BRANCH  19  21
ATOM     21  C   UNL     1       2.742   5.081  17.964  0.00  0.00    +0.000 A 
ATOM     22  C   UNL     1       1.480   4.616  18.389  0.00  0.00    +0.000 A 
ATOM     23  C   UNL     1       1.199   3.255  18.479  0.00  0.00    +0.000 A 
ATOM     24  C   UNL     1       2.183   2.333  18.160  0.00  0.00    +0.000 A 
ATOM     25  C   UNL     1       3.445   2.774  17.749  0.00  0.00    +0.000 A 
ATOM     26  C   UNL     1       3.760   4.142  17.632  0.00  0.00    +0.000 A 
BRANCH  26  27
ATOM     27  N   UNL     1       5.003   4.544  17.172  0.00  0.00    +0.000 N 
ATOM     28  C   UNL     1       6.020   5.118  18.060  0.00  0.00    +0.000 C 
ATOM     29  C   UNL     1       7.397   4.542  17.653  0.00  0.00    +0.000 C 
ATOM     30  N   UNL     1       7.738   4.704  16.222  0.00  0.00    +0.000 NA
ATOM     31  C   UNL     1       6.623   4.246  15.363  0.00  0.00    +0.000 C 
ATOM     32  C   UNL     1       5.244   4.827  15.750  0.00  0.00    +0.000 C 
ATOM     33  H   UNL     1       8.556   4.129  16.021  0.00  0.00    +0.000 HD
ENDBRANCH  26  27
ENDBRANCH  19  21
ENDBRANCH  10  19
TORSDOF 5
ENDMDL
MODEL 4
REMARK VINA RESULT:      -8.1      2.075      2.894
REMARK  Name = 
REMARK  5 active torsions:
REMARK  status: ('A' for Active; 'I' for Inactive)
REMARK    1  A    between atoms: N_1  and  S_2
REMARK    2  A    between atoms: S_2  and  C_5
REMARK    3  A    between atoms: C_14  and  N_15
REMARK    4  A    between atoms: N_15  and  C_16
REMARK    5  A    between atoms: C_21  and  N_22
REMARK                            x       y       z     vdW  Elec       q    Type
REMARK                         _______ _______ _______ _____ _____    ______ ____
ROOT
ATOM      1  C   UNL     1       0.300  10.457  21.271  0.00  0.00    +0.000 A 
ATOM      2  C   UNL     1       0.022  11.747  20.762  0.00  0.00    +0.000 A 
ATOM      3  C   UNL     1       0.369  12.088  19.468  0.00  0.00    +0.000 A 
ATOM      4  C   UNL     1       0.973  11.145  18.647  0.00  0.00    +0.000 A 
ATOM      5  C   UNL     1       1.278   9.861  19.136  0.00  0.00    +0.000 A 
ATOM      6  C   UNL     1       0.972   9.515  20.469  0.00  0.00    +0.000 A 
ATOM      7  C   UNL     1       1.443   8.199  20.957  0.00  0.00    +0.000 C 
ATOM      8  O   UNL     1       1.432   7.854  22.123  0.00  0.00    +0.000 OA
ATOM      9  C   UNL     1       2.007   7.257  19.982  0.00  0.00    +0.000 C 
ATOM     10  C   UNL     1       2.219   7.530  18.689  0.00  0.00    +0.000 C 
ATOM     11  C   UNL     1       1.915   8.903  18.189  0.00  0.00    +0.000 C 
ATOM     12  O   UNL     1       2.156   9.220  17.035  0.00  0.00    +0.000 OA
ENDROOT
BRANCH   1  13
ATOM     13  S   UNL     1      -0.296  10.148  22.915  0.00  0.00    +0.000 S 
ATOM     14  O   UNL     1      -1.184  11.206  23.300  0.00  0.00    +0.000 OA
ATOM     15  O   UNL     1       0.847   9.784  23.742  0.00  0.00    +0.000 OA
BRANCH  13  16
ATOM     16  N   UNL     1      -1.140   8.715  22.770  0.00  0.00    +0.000 NA
ATOM     17  H   UNL     1      -1.281   8.302  23.691  0.00  0.00    +0.000 HD
ATOM     18  H   UNL     1      -0.751   8.112  22.051  0.00  0.00    +0.000 HD
ENDBRANCH  13  16
ENDBRANCH   1  13
BRANCH  10  19
ATOM     19  N   UNL     1       2.708   6.567  17.817  0.00  0.00    +0.000 N 
ATOM     20  H   UNL     1       2.054   5.822  17.574  0.00  0.00    +0.000 HD
BRANCH  19  21
ATOM     21  C   UNL     1       4.035   6.032  17.919  0.00  0.00    +0.000 A 
ATOM     22  C   UNL     1       5.137   6.786  17.465  0.00  0.00    +0.000 A 
ATOM     23  C   UNL     1       6.442   6.321  17.602  0.00  0.00    +0.000 A 
ATOM     24  C   UNL     1       6.667   5.083  18.181  0.00  0.00    +0.000 A 
ATOM     25  C   UNL     1       5.587   4.313  18.624  0.00  0.00    +0.000 A 
ATOM     26  C   UNL     1       4.255   4.758  18.516  0.00  0.00    +0.000 A 
BRANCH  26  27
ATOM     27  N   UNL     1       3.212   3.994  19.014  0.00  0.00    +0.000 N 
ATOM     28  C   UNL     1       3.000   3.798  20.451  0.00  0.00    +0.000 C 
ATOM     29  C   UNL     1       1.480   3.872  20.730  0.00  0.00    +0.000 C 
ATOM     30  N   UNL     1       0.654   2.962  19.907  0.00  0.00    +0.000 NA
ATOM     31  C   UNL     1       1.004   3.088  18.474  0.00  0.00    +0.000 C 
ATOM     32  C   UNL     1       2.519   3.001  18.181  0.00  0.00    +0.000 C 
ATOM     33  H   UNL     1      -0.325   3.224  20.024  0.00  0.00    +0.000 HD
ENDBRANCH  26  27
ENDBRANCH  19  21
ENDBRANCH  10  19
TORSDOF 5
ENDMDL
MODEL 5
REMARK VINA RESULT:      -8.1      1.926      2.742
REMARK  Name = 
REMARK  5 active torsions:
REMARK  status: ('A' for Active; 'I' for Inactive)
REMARK    1  A    between atoms: N_1  and  S_2
REMARK    2  A    between atoms: S_2  and  C_5
REMARK    3  A    between atoms: C_14  and  N_15
REMARK    4  A    between atoms: N_15  and  C_16
REMARK    5  A    between atoms: C_21  and  N_22
REMARK                            x       y       z     vdW  Elec       q    Type
REMARK                         _______ _______ _______ _____ _____    ______ ____
ROOT
ATOM      1  C   UNL     1       0.313  10.091  20.995  0.00  0.00    +0.000 A 
ATOM      2  C   UNL     1       0.038  11.382  20.486  0.00  0.00    +0.000 A 
ATOM      3  C   UNL     1       0.479  11.756  19.230  0.00  0.00    +0.000 A 
ATOM      4  C   UNL     1       1.177  10.847  18.447  0.00  0.00    +0.000 A 
ATOM      5  C   UNL     1       1.481   9.564  18.940  0.00  0.00    +0.000 A 
ATOM      6  C   UNL     1       1.077   9.184  20.237  0.00  0.00    +0.000 A 
ATOM      7  C   UNL     1       1.547   7.874  20.741  0.00  0.00    +0.000 C 
ATOM      8  O   UNL     1       1.452   7.508  21.897  0.00  0.00    +0.000 OA
ATOM      9  C   UNL     1       2.218   6.968  19.801  0.00  0.00    +0.000 C 
ATOM     10  C   UNL     1       2.528   7.270  18.533  0.00  0.00    +0.000 C 
ATOM     11  C   UNL     1       2.223   8.643  18.032  0.00  0.00    +0.000 C 
ATOM     12  O   UNL     1       2.548   8.989  16.907  0.00  0.00    +0.000 OA
ENDROOT
BRANCH   1  13
ATOM     13  S   UNL     1      -0.406   9.734  22.580  0.00  0.00    +0.000 S 
ATOM     14  O   UNL     1      -1.056   8.457  22.523  0.00  0.00    +0.000 OA
ATOM     15  O   UNL     1      -1.120  10.924  23.023  0.00  0.00    +0.000 OA
BRANCH  13  16
ATOM     16  N   UNL     1       0.908   9.665  23.607  0.00  0.00    +0.000 NA
ATOM     17  H   UNL     1       0.883   8.798  24.142  0.00  0.00    +0.000 HD
ATOM     18  H   UNL     1       1.028  10.526  24.133  0.00  0.00    +0.000 HD
ENDBRANCH  13  16
ENDBRANCH   1  13
BRANCH  10  19
ATOM     19  N   UNL     1       3.116   6.339  17.689  0.00  0.00    +0.000 N 
ATOM     20  H   UNL     1       2.586   5.478  17.549  0.00  0.00    +0.000 HD
BRANCH  19  21
ATOM     21  C   UNL     1       4.519   6.044  17.720  0.00  0.00    +0.000 A 
ATOM     22  C   UNL     1       5.456   7.030  17.347  0.00  0.00    +0.000 A 
ATOM     23  C   UNL     1       6.826   6.795  17.420  0.00  0.00    +0.000 A 
ATOM     24  C   UNL     1       7.285   5.561  17.853  0.00  0.00    +0.000 A 
ATOM     25  C   UNL     1       6.371   4.566  18.214  0.00  0.00    +0.000 A 
ATOM     26  C   UNL     1       4.979   4.773  18.168  0.00  0.00    +0.000 A 
BRANCH  26  27
ATOM     27  N   UNL     1       4.103   3.783  18.583  0.00  0.00    +0.000 N 
ATOM     28  C   UNL     1       3.772   3.572  19.996  0.00  0.00    +0.000 C 
ATOM     29  C   UNL     1       2.257   3.270  20.097  0.00  0.00    +0.000 C 
ATOM     30  N   UNL     1       1.788   2.164  19.235  0.00  0.00    +0.000 NA
ATOM     31  C   UNL     1       2.268   2.342  17.846  0.00  0.00    +0.000 C 
ATOM     32  C   UNL     1       3.783   2.630  17.731  0.00  0.00    +0.000 C 
ATOM     33  H   UNL     1       0.768   2.175  19.226  0.00  0.00    +0.000 HD
ENDBRANCH  26  27
ENDBRANCH  19  21
ENDBRANCH  10  19
TORSDOF 5
ENDMDL
MODEL 6
REMARK VINA RESULT:      -8.1      3.017      8.207
REMARK  Name = 
REMARK  5 active torsions:
REMARK  status: ('A' for Active; 'I' for Inactive)
REMARK    1  A    between atoms: N_1  and  S_2
REMARK    2  A    between atoms: S_2  and  C_5
REMARK    3  A    between atoms: C_14  and  N_15
REMARK    4  A    between atoms: N_15  and  C_16
REMARK    5  A    between atoms: C_21  and  N_22
REMARK                            x       y       z     vdW  Elec       q    Type
REMARK                         _______ _______ _______ _____ _____    ______ ____
ROOT
ATOM      1  C   UNL     1       3.343   3.750  18.553  0.00  0.00    +0.000 A 
ATOM      2  C   UNL     1       4.161   3.525  17.421  0.00  0.00    +0.000 A 
ATOM      3  C   UNL     1       4.549   4.574  16.608  0.00  0.00    +0.000 A 
ATOM      4  C   UNL     1       4.155   5.868  16.921  0.00  0.00    +0.000 A 
ATOM      5  C   UNL     1       3.325   6.115  18.030  0.00  0.00    +0.000 A 
ATOM      6  C   UNL     1       2.883   5.049  18.841  0.00  0.00    +0.000 A 
ATOM      7  C   UNL     1       1.904   5.363  19.907  0.00  0.00    +0.000 C 
ATOM      8  O   UNL     1       1.288   4.529  20.542  0.00  0.00    +0.000 OA
ATOM      9  C   UNL     1       1.615   6.774  20.191  0.00  0.00    +0.000 C 
ATOM     10  C   UNL     1       2.099   7.810  19.494  0.00  0.00    +0.000 C 
ATOM     11  C   UNL     1       2.957   7.533  18.304  0.00  0.00    +0.000 C 
ATOM     12  O   UNL     1       3.365   8.441  17.597  0.00  0.00    +0.000 OA
ENDROOT
BRANCH   1  13
ATOM     13  S   UNL     1       3.015   2.314  19.546  0.00  0.00    +0.000 S 
ATOM     14  O   UNL     1       1.654   1.907  19.348  0.00  0.00    +0.000 OA
ATOM     15  O   UNL     1       3.538   2.568  20.882  0.00  0.00    +0.000 OA
BRANCH  13  16
ATOM     16  N   UNL     1       4.054   1.161  18.936  0.00  0.00    +0.000 NA
ATOM     17  H   UNL     1       4.910   1.139  19.489  0.00  0.00    +0.000 HD
ATOM     18  H   UNL     1       4.161   1.236  17.928  0.00  0.00    +0.000 HD
ENDBRANCH  13  16
ENDBRANCH   1  13
BRANCH  10  19
ATOM     19  N   UNL     1       1.821   9.121  19.858  0.00  0.00    +0.000 N 
ATOM     20  H   UNL     1       2.624   9.750  19.879  0.00  0.00    +0.000 HD
BRANCH  19  21
ATOM     21  C   UNL     1       0.917   9.454  20.920  0.00  0.00    +0.000 A 
ATOM     22  C   UNL     1       1.114   8.919  22.210  0.00  0.00    +0.000 A 
ATOM     23  C   UNL     1       0.289   9.267  23.276  0.00  0.00    +0.000 A 
ATOM     24  C   UNL     1      -0.762  10.145  23.066  0.00  0.00    +0.000 A 
ATOM     25  C   UNL     1      -0.983  10.676  21.791  0.00  0.00    +0.000 A 
ATOM     26  C   UNL     1      -0.160  10.358  20.693  0.00  0.00    +0.000 A 
BRANCH  26  27
ATOM     27  N   UNL     1      -0.375  10.943  19.456  0.00  0.00    +0.000 N 
ATOM     28  C   UNL     1      -1.071  10.245  18.370  0.00  0.00    +0.000 C 
ATOM     29  C   UNL     1      -2.002  11.259  17.663  0.00  0.00    +0.000 C 
ATOM     30  N   UNL     1      -1.335  12.497  17.204  0.00  0.00    +0.000 NA
ATOM     31  C   UNL     1      -0.525  13.090  18.293  0.00  0.00    +0.000 C 
ATOM     32  C   UNL     1       0.420  12.090  18.997  0.00  0.00    +0.000 C 
ATOM     33  H   UNL     1      -2.055  13.169  16.937  0.00  0.00    +0.000 HD
ENDBRANCH  26  27
ENDBRANCH  19  21
ENDBRANCH  10  19
TORSDOF 5
ENDMDL
MODEL 7
REMARK VINA RESULT:      -8.0      1.490      3.247
REMARK  Name = 
REMARK  5 active torsions:
REMARK  status: ('A' for Active; 'I' for Inactive)
REMARK    1  A    between atoms: N_1  and  S_2
REMARK    2  A    between atoms: S_2  and  C_5
REMARK    3  A    between atoms: C_14  and  N_15
REMARK    4  A    between atoms: N_15  and  C_16
REMARK    5  A    between atoms: C_21  and  N_22
REMARK                            x       y       z     vdW  Elec       q    Type
REMARK                         _______ _______ _______ _____ _____    ______ ____
ROOT
ATOM      1  C   UNL     1       0.163  10.705  20.033  0.00  0.00    +0.000 A 
ATOM      2  C   UNL     1      -0.479  10.802  21.290  0.00  0.00    +0.000 A 
ATOM      3  C   UNL     1      -0.360   9.790  22.225  0.00  0.00    +0.000 A 
ATOM      4  C   UNL     1       0.420   8.678  21.940  0.00  0.00    +0.000 A 
ATOM      5  C   UNL     1       1.050   8.549  20.689  0.00  0.00    +0.000 A 
ATOM      6  C   UNL     1       0.901   9.551  19.707  0.00  0.00    +0.000 A 
ATOM      7  C   UNL     1       1.477   9.288  18.369  0.00  0.00    +0.000 C 
ATOM      8  O   UNL     1       1.254   9.959  17.380  0.00  0.00    +0.000 OA
ATOM      9  C   UNL     1       2.340   8.111  18.204  0.00  0.00    +0.000 C 
ATOM     10  C   UNL     1       2.575   7.195  19.151  0.00  0.00    +0.000 C 
ATOM     11  C   UNL     1       1.879   7.330  20.465  0.00  0.00    +0.000 C 
ATOM     12  O   UNL     1       2.008   6.483  21.335  0.00  0.00    +0.000 OA
ENDROOT
BRANCH   1  13
ATOM     13  S   UNL     1      -0.008  12.129  18.985  0.00  0.00    +0.000 S 
ATOM     14  O   UNL     1       1.282  12.497  18.479  0.00  0.00    +0.000 OA
ATOM     15  O   UNL     1      -0.849  13.095  19.679  0.00  0.00    +0.000 OA
BRANCH  13  16
ATOM     16  N   UNL     1      -0.982  11.592  17.740  0.00  0.00    +0.000 NA
ATOM     17  H   UNL     1      -1.024  12.298  17.006  0.00  0.00    +0.000 HD
ATOM     18  H   UNL     1      -1.868  11.227  18.077  0.00  0.00    +0.000 HD
ENDBRANCH  13  16
ENDBRANCH   1  13
BRANCH  10  19
ATOM     19  N   UNL     1       3.447   6.137  18.934  0.00  0.00    +0.000 N 
ATOM     20  H   UNL     1       4.276   6.358  18.381  0.00  0.00    +0.000 HD
BRANCH  19  21
ATOM     21  C   UNL     1       2.995   4.813  18.620  0.00  0.00    +0.000 A 
ATOM     22  C   UNL     1       1.747   4.361  19.098  0.00  0.00    +0.000 A 
ATOM     23  C   UNL     1       1.253   3.103  18.765  0.00  0.00    +0.000 A 
ATOM     24  C   UNL     1       2.007   2.266  17.958  0.00  0.00    +0.000 A 
ATOM     25  C   UNL     1       3.253   2.690  17.485  0.00  0.00    +0.000 A 
ATOM     26  C   UNL     1       3.778   3.961  17.790  0.00  0.00    +0.000 A 
BRANCH  26  27
ATOM     27  N   UNL     1       4.992   4.370  17.261  0.00  0.00    +0.000 N 
ATOM     28  C   UNL     1       5.284   4.301  15.826  0.00  0.00    +0.000 C 
ATOM     29  C   UNL     1       6.054   5.584  15.428  0.00  0.00    +0.000 C 
ATOM     30  N   UNL     1       7.259   5.859  16.240  0.00  0.00    +0.000 NA
ATOM     31  C   UNL     1       6.950   5.774  17.685  0.00  0.00    +0.000 C 
ATOM     32  C   UNL     1       6.194   4.490  18.097  0.00  0.00    +0.000 C 
ATOM     33  H   UNL     1       7.575   6.807  16.034  0.00  0.00    +0.000 HD
ENDBRANCH  26  27
ENDBRANCH  19  21
ENDBRANCH  10  19
TORSDOF 5
ENDMDL
MODEL 8
REMARK VINA RESULT:      -8.0      1.522      3.090
REMARK  Name = 
REMARK  5 active torsions:
REMARK  status: ('A' for Active; 'I' for Inactive)
REMARK    1  A    between atoms: N_1  and  S_2
REMARK    2  A    between atoms: S_2  and  C_5
REMARK    3  A    between atoms: C_14  and  N_15
REMARK    4  A    between atoms: N_15  and  C_16
REMARK    5  A    between atoms: C_21  and  N_22
REMARK                            x       y       z     vdW  Elec       q    Type
REMARK                         _______ _______ _______ _____ _____    ______ ____
ROOT
ATOM      1  C   UNL     1       0.122  10.746  20.025  0.00  0.00    +0.000 A 
ATOM      2  C   UNL     1      -0.547  10.846  21.267  0.00  0.00    +0.000 A 
ATOM      3  C   UNL     1      -0.444   9.839  22.209  0.00  0.00    +0.000 A 
ATOM      4  C   UNL     1       0.346   8.729  21.946  0.00  0.00    +0.000 A 
ATOM      5  C   UNL     1       1.005   8.597  20.710  0.00  0.00    +0.000 A 
ATOM      6  C   UNL     1       0.872   9.594  19.720  0.00  0.00    +0.000 A 
ATOM      7  C   UNL     1       1.479   9.327  18.397  0.00  0.00    +0.000 C 
ATOM      8  O   UNL     1       1.274   9.992  17.400  0.00  0.00    +0.000 OA
ATOM      9  C   UNL     1       2.350   8.153  18.256  0.00  0.00    +0.000 C 
ATOM     10  C   UNL     1       2.569   7.242  19.212  0.00  0.00    +0.000 C 
ATOM     11  C   UNL     1       1.843   7.380  20.509  0.00  0.00    +0.000 C 
ATOM     12  O   UNL     1       1.956   6.538  21.386  0.00  0.00    +0.000 OA
ENDROOT
BRANCH   1  13
ATOM     13  S   UNL     1      -0.032  12.164  18.966  0.00  0.00    +0.000 S 
ATOM     14  O   UNL     1       1.267  12.534  18.485  0.00  0.00    +0.000 OA
ATOM     15  O   UNL     1      -0.890  13.131  19.639  0.00  0.00    +0.000 OA
BRANCH  13  16
ATOM     16  N   UNL     1      -0.978  11.618  17.705  0.00  0.00    +0.000 NA
ATOM     17  H   UNL     1      -1.797  12.217  17.602  0.00  0.00    +0.000 HD
ATOM     18  H   UNL     1      -1.146  10.618  17.757  0.00  0.00    +0.000 HD
ENDBRANCH  13  16
ENDBRANCH   1  13
BRANCH  10  19
ATOM     19  N   UNL     1       3.449   6.187  19.019  0.00  0.00    +0.000 N 
ATOM     20  H   UNL     1       4.314   6.421  18.529  0.00  0.00    +0.000 HD
BRANCH  19  21
ATOM     21  C   UNL     1       3.014   4.876  18.633  0.00  0.00    +0.000 A 
ATOM     22  C   UNL     1       1.761   4.393  19.064  0.00  0.00    +0.000 A 
ATOM     23  C   UNL     1       1.284   3.149  18.661  0.00  0.00    +0.000 A 
ATOM     24  C   UNL     1       2.061   2.356  17.832  0.00  0.00    +0.000 A 
ATOM     25  C   UNL     1       3.313   2.812  17.405  0.00  0.00    +0.000 A 
ATOM     26  C   UNL     1       3.821   4.071  17.780  0.00  0.00    +0.000 A 
BRANCH  26  27
ATOM     27  N   UNL     1       5.041   4.513  17.296  0.00  0.00    +0.000 N 
ATOM     28  C   UNL     1       6.126   4.946  18.183  0.00  0.00    +0.000 C 
ATOM     29  C   UNL     1       7.461   4.409  17.611  0.00  0.00    +0.000 C 
ATOM     30  N   UNL     1       7.713   4.760  16.196  0.00  0.00    +0.000 NA
ATOM     31  C   UNL     1       6.534   4.440  15.359  0.00  0.00    +0.000 C 
ATOM     32  C   UNL     1       5.197   4.984  15.913  0.00  0.00    +0.000 C 
ATOM     33  H   UNL     1       8.502   4.205  15.865  0.00  0.00    +0.000 HD
ENDBRANCH  26  27
ENDBRANCH  19  21
ENDBRANCH  10  19
TORSDOF 5
ENDMDL
MODEL 9
REMARK VINA RESULT:      -8.0      2.312      4.215
REMARK  Name = 
REMARK  5 active torsions:
REMARK  status: ('A' for Active; 'I' for Inactive)
REMARK    1  A    between atoms: N_1  and  S_2
REMARK    2  A    between atoms: S_2  and  C_5
REMARK    3  A    between atoms: C_14  and  N_15
REMARK    4  A    between atoms: N_15  and  C_16
REMARK    5  A    between atoms: C_21  and  N_22
REMARK                            x       y       z     vdW  Elec       q    Type
REMARK                         _______ _______ _______ _____ _____    ______ ____
ROOT
ATOM      1  C   UNL     1      -0.662  11.037  20.935  0.00  0.00    +0.000 A 
ATOM      2  C   UNL     1      -1.213  11.668  19.795  0.00  0.00    +0.000 A 
ATOM      3  C   UNL     1      -0.856  11.266  18.522  0.00  0.00    +0.000 A 
ATOM      4  C   UNL     1       0.033  10.212  18.357  0.00  0.00    +0.000 A 
ATOM      5  C   UNL     1       0.610   9.582  19.475  0.00  0.00    +0.000 A 
ATOM      6  C   UNL     1       0.291  10.012  20.780  0.00  0.00    +0.000 A 
ATOM      7  C   UNL     1       1.036   9.397  21.902  0.00  0.00    +0.000 C 
ATOM      8  O   UNL     1       1.015   9.806  23.047  0.00  0.00    +0.000 OA
ATOM      9  C   UNL     1       1.899   8.245  21.615  0.00  0.00    +0.000 C 
ATOM     10  C   UNL     1       2.143   7.757  20.392  0.00  0.00    +0.000 C 
ATOM     11  C   UNL     1       1.545   8.451  19.213  0.00  0.00    +0.000 C 
ATOM     12  O   UNL     1       1.794   8.086  18.075  0.00  0.00    +0.000 OA
ENDROOT
BRANCH   1  13
ATOM     13  S   UNL     1      -1.296  11.603  22.495  0.00  0.00    +0.000 S 
ATOM     14  O   UNL     1      -0.406  12.590  23.033  0.00  0.00    +0.000 OA
ATOM     15  O   UNL     1      -1.681  10.432  23.271  0.00  0.00    +0.000 OA
BRANCH  13  16
ATOM     16  N   UNL     1      -2.759  12.304  22.099  0.00  0.00    +0.000 NA
ATOM     17  H   UNL     1      -2.881  13.168  22.625  0.00  0.00    +0.000 HD
ATOM     18  H   UNL     1      -3.524  11.636  22.129  0.00  0.00    +0.000 HD
ENDBRANCH  13  16
ENDBRANCH   1  13
BRANCH  10  19
ATOM     19  N   UNL     1       2.930   6.629  20.207  0.00  0.00    +0.000 N 
ATOM     20  H   UNL     1       3.789   6.776  19.674  0.00  0.00    +0.000 HD
BRANCH  19  21
ATOM     21  C   UNL     1       2.379   5.343  19.891  0.00  0.00    +0.000 A 
ATOM     22  C   UNL     1       1.165   4.931  20.480  0.00  0.00    +0.000 A 
ATOM     23  C   UNL     1       0.574   3.715  20.152  0.00  0.00    +0.000 A 
ATOM     24  C   UNL     1       1.197   2.878  19.240  0.00  0.00    +0.000 A 
ATOM     25  C   UNL     1       2.408   3.262  18.655  0.00  0.00    +0.000 A 
ATOM     26  C   UNL     1       3.027   4.492  18.952  0.00  0.00    +0.000 A 
BRANCH  26  27
ATOM     27  N   UNL     1       4.200   4.864  18.315  0.00  0.00    +0.000 N 
ATOM     28  C   UNL     1       4.223   5.333  16.926  0.00  0.00    +0.000 C 
ATOM     29  C   UNL     1       5.219   6.514  16.831  0.00  0.00    +0.000 C 
ATOM     30  N   UNL     1       6.572   6.225  17.354  0.00  0.00    +0.000 NA
ATOM     31  C   UNL     1       6.496   5.617  18.701  0.00  0.00    +0.000 C 
ATOM     32  C   UNL     1       5.514   4.426  18.804  0.00  0.00    +0.000 C 
ATOM     33  H   UNL     1       7.082   7.106  17.427  0.00  0.00    +0.000 HD
ENDBRANCH  26  27
ENDBRANCH  19  21
ENDBRANCH  10  19
TORSDOF 5
ENDMDL
