MODEL 1
REMARK VINA RESULT:      -9.0      0.000      0.000
REMARK  Name = 
REMARK  9 active torsions:
REMARK  status: ('A' for Active; 'I' for Inactive)
REMARK    1  A    between atoms: NE_4  and  CD_5
REMARK    2  A    between atoms: CD_5  and  CG_6
REMARK    3  A    between atoms: CG_6  and  CB_7
REMARK    4  A    between atoms: CB_7  and  CA_8
REMARK    5  A    between atoms: CA_8  and  N_9
REMARK    6  A    between atoms: CA_8  and  C_30
REMARK    7  A    between atoms: C_10  and  C_12
REMARK    8  A    between atoms: C_15  and  C_16
REMARK    9  A    between atoms: C_30  and  OXT_32
REMARK                            x       y       z     vdW  Elec       q    Type
REMARK                         _______ _______ _______ _____ _____    ______ ____
ROOT
ATOM      1  N   ARG A   1       3.181   5.557  18.505  0.00  0.00    +0.000 N 
ATOM      2  C   UNK A   0       3.452   6.839  18.027  0.00  0.00    +0.000 C 
ATOM      3  O   UNK A   0       4.517   6.996  17.419  0.00  0.00    +0.000 OA
ATOM      4  H   ARG A   1       2.291   5.431  18.971  0.00  0.00    +0.000 HD
ENDROOT
BRANCH   2   5
ATOM      5  C   UNK A   0       2.555   7.971  18.320  0.00  0.00    +0.000 A 
ATOM      6  C   UNK A   0       2.159   9.006  17.487  0.00  0.00    +0.000 A 
ATOM      7  C   UNK A   0       1.281   9.858  18.224  0.00  0.00    +0.000 A 
ATOM      8  C   UNK A   0       1.076   9.267  19.454  0.00  0.00    +0.000 A 
ATOM      9  O   UNK A   0       1.912   8.138  19.524  0.00  0.00    +0.000 OA
BRANCH   8  10
ATOM     10  C   UNK A   0       0.346   9.587  20.699  0.00  0.00    +0.000 A 
ATOM     11  C   UNK A   0       0.693   8.840  21.847  0.00  0.00    +0.000 A 
ATOM     12  C   UNK A   0       0.309   9.222  23.127  0.00  0.00    +0.000 A 
ATOM     13  C   UNK A   0      -0.692  10.153  23.313  0.00  0.00    +0.000 A 
ATOM     14  C   UNK A   0      -0.710  11.124  22.301  0.00  0.00    +0.000 A 
ATOM     15  C   UNK A   0      -0.491  10.705  20.984  0.00  0.00    +0.000 A 
ATOM     16  O   UNK A   0      -1.350  11.486  20.209  0.00  0.00    +0.000 OA
ATOM     17  C   UNK A   0      -1.934  12.419  21.065  0.00  0.00    +0.000 A 
ATOM     18  C   UNK A   0      -3.060  13.230  20.900  0.00  0.00    +0.000 A 
ATOM     19  C   UNK A   0      -3.236  14.279  21.831  0.00  0.00    +0.000 A 
ATOM     20  C   UNK A   0      -2.349  14.473  22.890  0.00  0.00    +0.000 A 
ATOM     21  C   UNK A   0      -1.413  13.484  23.181  0.00  0.00    +0.000 A 
ATOM     22  C   UNK A   0      -1.249  12.422  22.263  0.00  0.00    +0.000 A 
ENDBRANCH   8  10
ENDBRANCH   2   5
BRANCH   1  23
ATOM     23  CA  ARG A   1       3.928   4.330  18.048  0.00  0.00    +0.000 C 
BRANCH  23  24
ATOM     24  C   ARG A   1       4.991   3.669  19.015  0.00  0.00    +0.000 C 
ATOM     25  O   ARG A   1       4.729   2.814  19.863  0.00  0.00    +0.000 OA
BRANCH  24  26
ATOM     26  OXT ARG A   1       6.277   4.006  18.741  0.00  0.00    +0.000 OA
ATOM     27  HXT ARG A   1       6.535   4.882  19.110  0.00  0.00    +0.000 HD
ENDBRANCH  24  26
ENDBRANCH  23  24
BRANCH  23  28
ATOM     28  CB  ARG A   1       2.982   3.158  17.678  0.00  0.00    +0.000 C 
BRANCH  28  29
ATOM     29  CG  ARG A   1       1.488   3.428  17.801  0.00  0.00    +0.000 C 
BRANCH  29  30
ATOM     30  CD  ARG A   1       0.869   2.422  18.778  0.00  0.00    +0.000 C 
BRANCH  30  34
ATOM     31  NH1 ARG A   1       1.062   4.555  20.702  0.00  0.00    +0.000 NA
ATOM     32  CZ  ARG A   1       1.628   3.415  20.911  0.00  0.00    +0.000 C 
ATOM     33  NH2 ARG A   1       2.289   3.101  22.036  0.00  0.00    +0.000 N 
ATOM     34  NE  ARG A   1       1.638   2.387  20.025  0.00  0.00    +0.000 N 
ATOM     35  HH1 ARG A   1       1.190   5.109  21.555  0.00  0.00    +0.000 HD
ATOM     36 HH21 ARG A   1       2.527   3.896  22.600  0.00  0.00    +0.000 HD
ATOM     37 HH22 ARG A   1       3.112   2.546  21.838  0.00  0.00    +0.000 HD
ATOM     38  HE  ARG A   1       1.712   1.466  20.431  0.00  0.00    +0.000 HD
ENDBRANCH  30  34
ENDBRANCH  29  30
ENDBRANCH  28  29
ENDBRANCH  23  28
ENDBRANCH   1  23
TORSDOF 9
ENDMDL
MODEL 2
REMARK VINA RESULT:      -8.4      1.089      1.299
REMARK  Name = 
REMARK  9 active torsions:
REMARK  status: ('A' for Active; 'I' for Inactive)
REMARK    1  A    between atoms: NE_4  and  CD_5
REMARK    2  A    between atoms: CD_5  and  CG_6
REMARK    3  A    between atoms: CG_6  and  CB_7
REMARK    4  A    between atoms: CB_7  and  CA_8
REMARK    5  A    between atoms: CA_8  and  N_9
REMARK    6  A    between atoms: CA_8  and  C_30
REMARK    7  A    between atoms: C_10  and  C_12
REMARK    8  A    between atoms: C_15  and  C_16
REMARK    9  A    between atoms: C_30  and  OXT_32
REMARK                            x       y       z     vdW  Elec       q    Type
REMARK                         _______ _______ _______ _____ _____    ______ ____
ROOT
ATOM      1  N   ARG A   1       3.671   5.517  17.595  0.00  0.00    +0.000 N 
ATOM      2  C   UNK A   0       3.292   6.099  18.804  0.00  0.00    +0.000 C 
ATOM      3  O   UNK A   0       3.535   5.459  19.833  0.00  0.00    +0.000 OA
ATOM      4  H   ARG A   1       3.499   6.065  16.761  0.00  0.00    +0.000 HD
ENDROOT
BRANCH   2   5
ATOM      5  C   UNK A   0       2.548   7.370  18.843  0.00  0.00    +0.000 A 
ATOM      6  C   UNK A   0       2.407   8.327  17.849  0.00  0.00    +0.000 A 
ATOM      7  C   UNK A   0       1.590   9.381  18.360  0.00  0.00    +0.000 A 
ATOM      8  C   UNK A   0       1.162   8.994  19.614  0.00  0.00    +0.000 A 
ATOM      9  O   UNK A   0       1.807   7.783  19.924  0.00  0.00    +0.000 OA
BRANCH   8  10
ATOM     10  C   UNK A   0       0.354   9.575  20.707  0.00  0.00    +0.000 A 
ATOM     11  C   UNK A   0       0.290   8.836  21.910  0.00  0.00    +0.000 A 
ATOM     12  C   UNK A   0      -0.179   9.386  23.097  0.00  0.00    +0.000 A 
ATOM     13  C   UNK A   0      -0.904  10.561  23.090  0.00  0.00    +0.000 A 
ATOM     14  C   UNK A   0      -0.490  11.436  22.075  0.00  0.00    +0.000 A 
ATOM     15  C   UNK A   0      -0.181  10.891  20.823  0.00  0.00    +0.000 A 
ATOM     16  O   UNK A   0      -0.655  11.822  19.898  0.00  0.00    +0.000 OA
ATOM     17  C   UNK A   0      -1.094  12.929  20.623  0.00  0.00    +0.000 A 
ATOM     18  C   UNK A   0      -1.913  13.999  20.251  0.00  0.00    +0.000 A 
ATOM     19  C   UNK A   0      -1.945  15.114  21.120  0.00  0.00    +0.000 A 
ATOM     20  C   UNK A   0      -1.225  15.131  22.314  0.00  0.00    +0.000 A 
ATOM     21  C   UNK A   0      -0.655  13.948  22.781  0.00  0.00    +0.000 A 
ATOM     22  C   UNK A   0      -0.640  12.825  21.922  0.00  0.00    +0.000 A 
ENDBRANCH   8  10
ENDBRANCH   2   5
BRANCH   1  23
ATOM     23  CA  ARG A   1       4.625   4.353  17.501  0.00  0.00    +0.000 C 
BRANCH  23  24
ATOM     24  C   ARG A   1       6.122   4.543  17.979  0.00  0.00    +0.000 C 
ATOM     25  O   ARG A   1       7.062   4.831  17.237  0.00  0.00    +0.000 OA
BRANCH  24  26
ATOM     26  OXT ARG A   1       6.282   4.513  19.326  0.00  0.00    +0.000 OA
ATOM     27  HXT ARG A   1       6.287   5.409  19.736  0.00  0.00    +0.000 HD
ENDBRANCH  24  26
ENDBRANCH  23  24
BRANCH  23  28
ATOM     28  CB  ARG A   1       4.136   3.114  18.294  0.00  0.00    +0.000 C 
BRANCH  28  29
ATOM     29  CG  ARG A   1       3.037   2.282  17.644  0.00  0.00    +0.000 C 
BRANCH  29  30
ATOM     30  CD  ARG A   1       1.722   2.499  18.400  0.00  0.00    +0.000 C 
BRANCH  30  34
ATOM     31  NH1 ARG A   1       0.697   4.125  20.543  0.00  0.00    +0.000 NA
ATOM     32  CZ  ARG A   1       1.344   3.035  20.783  0.00  0.00    +0.000 C 
ATOM     33  NH2 ARG A   1       1.543   2.537  22.013  0.00  0.00    +0.000 N 
ATOM     34  NE  ARG A   1       1.913   2.253  19.832  0.00  0.00    +0.000 N 
ATOM     35  HH1 ARG A   1       0.358   4.472  21.447  0.00  0.00    +0.000 HD
ATOM     36 HH21 ARG A   1       1.371   3.197  22.750  0.00  0.00    +0.000 HD
ATOM     37 HH22 ARG A   1       2.468   2.135  22.104  0.00  0.00    +0.000 HD
ATOM     38  HE  ARG A   1       1.997   1.275  20.069  0.00  0.00    +0.000 HD
ENDBRANCH  30  34
ENDBRANCH  29  30
ENDBRANCH  28  29
ENDBRANCH  23  28
ENDBRANCH   1  23
TORSDOF 9
ENDMDL
MODEL 3
REMARK VINA RESULT:      -8.2      2.731      3.592
REMARK  Name = 
REMARK  9 active torsions:
REMARK  status: ('A' for Active; 'I' for Inactive)
REMARK    1  A    between atoms: NE_4  and  CD_5
REMARK    2  A    between atoms: CD_5  and  CG_6
REMARK    3  A    between atoms: CG_6  and  CB_7
REMARK    4  A    between atoms: CB_7  and  CA_8
REMARK    5  A    between atoms: CA_8  and  N_9
REMARK    6  A    between atoms: CA_8  and  C_30
REMARK    7  A    between atoms: C_10  and  C_12
REMARK    8  A    between atoms: C_15  and  C_16
REMARK    9  A    between atoms: C_30  and  OXT_32
REMARK                            x       y       z     vdW  Elec       q    Type
REMARK                         _______ _______ _______ _____ _____    ______ ____
ROOT
ATOM      1  N   ARG A   1       3.426   6.141  18.345  0.00  0.00    +0.000 N 
ATOM      2  C   UNK A   0       2.901   6.213  19.635  0.00  0.00    +0.000 C 
ATOM      3  O   UNK A   0       3.112   5.249  20.379  0.00  0.00    +0.000 OA
ATOM      4  H   ARG A   1       3.277   6.951  17.755  0.00  0.00    +0.000 HD
ENDROOT
BRANCH   2   5
ATOM      5  C   UNK A   0       2.050   7.341  20.054  0.00  0.00    +0.000 A 
ATOM      6  C   UNK A   0       1.537   7.625  21.310  0.00  0.00    +0.000 A 
ATOM      7  C   UNK A   0       0.773   8.829  21.216  0.00  0.00    +0.000 A 
ATOM      8  C   UNK A   0       0.927   9.310  19.932  0.00  0.00    +0.000 A 
ATOM      9  O   UNK A   0       1.665   8.355  19.209  0.00  0.00    +0.000 OA
BRANCH   8  10
ATOM     10  C   UNK A   0       0.416  10.446  19.135  0.00  0.00    +0.000 A 
ATOM     11  C   UNK A   0      -0.939  10.382  18.737  0.00  0.00    +0.000 A 
ATOM     12  C   UNK A   0      -1.623  11.487  18.247  0.00  0.00    +0.000 A 
ATOM     13  C   UNK A   0      -0.938  12.607  17.820  0.00  0.00    +0.000 A 
ATOM     14  C   UNK A   0       0.231  12.829  18.561  0.00  0.00    +0.000 A 
ATOM     15  C   UNK A   0       1.012  11.720  18.907  0.00  0.00    +0.000 A 
ATOM     16  O   UNK A   0       2.332  12.158  18.793  0.00  0.00    +0.000 OA
ATOM     17  C   UNK A   0       2.285  13.525  18.525  0.00  0.00    +0.000 A 
ATOM     18  C   UNK A   0       3.264  14.394  18.034  0.00  0.00    +0.000 A 
ATOM     19  C   UNK A   0       3.002  15.779  18.139  0.00  0.00    +0.000 A 
ATOM     20  C   UNK A   0       1.805  16.259  18.671  0.00  0.00    +0.000 A 
ATOM     21  C   UNK A   0       0.753  15.371  18.883  0.00  0.00    +0.000 A 
ATOM     22  C   UNK A   0       1.006  13.986  18.758  0.00  0.00    +0.000 A 
ENDBRANCH   8  10
ENDBRANCH   2   5
BRANCH   1  23
ATOM     23  CA  ARG A   1       4.481   5.144  17.937  0.00  0.00    +0.000 C 
BRANCH  23  24
ATOM     24  C   ARG A   1       5.507   4.619  19.022  0.00  0.00    +0.000 C 
ATOM     25  O   ARG A   1       6.319   5.329  19.617  0.00  0.00    +0.000 OA
BRANCH  24  26
ATOM     26  OXT ARG A   1       5.326   3.321  19.374  0.00  0.00    +0.000 OA
ATOM     27  HXT ARG A   1       4.470   3.160  19.834  0.00  0.00    +0.000 HD
ENDBRANCH  24  26
ENDBRANCH  23  24
BRANCH  23  28
ATOM     28  CB  ARG A   1       3.878   3.847  17.339  0.00  0.00    +0.000 C 
BRANCH  28  29
ATOM     29  CG  ARG A   1       2.362   3.712  17.401  0.00  0.00    +0.000 C 
BRANCH  29  30
ATOM     30  CD  ARG A   1       1.996   2.415  18.130  0.00  0.00    +0.000 C 
BRANCH  30  34
ATOM     31  NH1 ARG A   1       0.572   3.160  20.519  0.00  0.00    +0.000 NA
ATOM     32  CZ  ARG A   1       1.788   2.732  20.573  0.00  0.00    +0.000 C 
ATOM     33  NH2 ARG A   1       2.465   2.540  21.716  0.00  0.00    +0.000 N 
ATOM     34  NE  ARG A   1       2.545   2.426  19.489  0.00  0.00    +0.000 N 
ATOM     35  HH1 ARG A   1       0.254   3.270  21.487  0.00  0.00    +0.000 HD
ATOM     36 HH21 ARG A   1       2.049   2.988  22.512  0.00  0.00    +0.000 HD
ATOM     37 HH22 ARG A   1       3.435   2.812  21.621  0.00  0.00    +0.000 HD
ATOM     38  HE  ARG A   1       3.261   1.732  19.644  0.00  0.00    +0.000 HD
ENDBRANCH  30  34
ENDBRANCH  29  30
ENDBRANCH  28  29
ENDBRANCH  23  28
ENDBRANCH   1  23
TORSDOF 9
ENDMDL
MODEL 4
REMARK VINA RESULT:      -8.2      2.892      4.048
REMARK  Name = 
REMARK  9 active torsions:
REMARK  status: ('A' for Active; 'I' for Inactive)
REMARK    1  A    between atoms: NE_4  and  CD_5
REMARK    2  A    between atoms: CD_5  and  CG_6
REMARK    3  A    between atoms: CG_6  and  CB_7
REMARK    4  A    between atoms: CB_7  and  CA_8
REMARK    5  A    between atoms: CA_8  and  N_9
REMARK    6  A    between atoms: CA_8  and  C_30
REMARK    7  A    between atoms: C_10  and  C_12
REMARK    8  A    between atoms: C_15  and  C_16
REMARK    9  A    between atoms: C_30  and  OXT_32
REMARK                            x       y       z     vdW  Elec       q    Type
REMARK                         _______ _______ _______ _____ _____    ______ ____
ROOT
ATOM      1  N   ARG A   1       2.335   6.820  18.404  0.00  0.00    +0.000 N 
ATOM      2  C   UNK A   0       2.317   8.202  18.222  0.00  0.00    +0.000 C 
ATOM      3  O   UNK A   0       3.335   8.717  17.745  0.00  0.00    +0.000 OA
ATOM      4  H   ARG A   1       1.483   6.404  18.762  0.00  0.00    +0.000 HD
ENDROOT
BRANCH   2   5
ATOM      5  C   UNK A   0       1.176   9.019  18.670  0.00  0.00    +0.000 A 
ATOM      6  C   UNK A   0       0.960   9.610  19.906  0.00  0.00    +0.000 A 
ATOM      7  C   UNK A   0      -0.289  10.302  19.855  0.00  0.00    +0.000 A 
ATOM      8  C   UNK A   0      -0.754  10.210  18.559  0.00  0.00    +0.000 A 
ATOM      9  O   UNK A   0       0.125   9.368  17.855  0.00  0.00    +0.000 OA
BRANCH   8  10
ATOM     10  C   UNK A   0      -1.955  10.636  17.810  0.00  0.00    +0.000 A 
ATOM     11  C   UNK A   0      -2.066  10.176  16.477  0.00  0.00    +0.000 A 
ATOM     12  C   UNK A   0      -3.255  10.250  15.762  0.00  0.00    +0.000 A 
ATOM     13  C   UNK A   0      -4.285  11.062  16.191  0.00  0.00    +0.000 A 
ATOM     14  C   UNK A   0      -4.350  11.146  17.589  0.00  0.00    +0.000 A 
ATOM     15  C   UNK A   0      -3.147  11.244  18.298  0.00  0.00    +0.000 A 
ATOM     16  O   UNK A   0      -3.417  12.125  19.347  0.00  0.00    +0.000 OA
ATOM     17  C   UNK A   0      -4.783  12.402  19.303  0.00  0.00    +0.000 A 
ATOM     18  C   UNK A   0      -5.529  13.419  19.905  0.00  0.00    +0.000 A 
ATOM     19  C   UNK A   0      -6.934  13.270  19.906  0.00  0.00    +0.000 A 
ATOM     20  C   UNK A   0      -7.553  12.176  19.300  0.00  0.00    +0.000 A 
ATOM     21  C   UNK A   0      -6.802  11.342  18.475  0.00  0.00    +0.000 A 
ATOM     22  C   UNK A   0      -5.398  11.503  18.455  0.00  0.00    +0.000 A 
ENDBRANCH   8  10
ENDBRANCH   2   5
BRANCH   1  23
ATOM     23  CA  ARG A   1       3.357   5.915  17.763  0.00  0.00    +0.000 C 
BRANCH  23  24
ATOM     24  C   ARG A   1       4.738   5.672  18.496  0.00  0.00    +0.000 C 
ATOM     25  O   ARG A   1       4.879   4.998  19.518  0.00  0.00    +0.000 OA
BRANCH  24  26
ATOM     26  OXT ARG A   1       5.816   6.146  17.820  0.00  0.00    +0.000 OA
ATOM     27  HXT ARG A   1       6.217   6.942  18.240  0.00  0.00    +0.000 HD
ENDBRANCH  24  26
ENDBRANCH  23  24
BRANCH  23  28
ATOM     28  CB  ARG A   1       2.814   4.486  17.509  0.00  0.00    +0.000 C 
BRANCH  28  29
ATOM     29  CG  ARG A   1       1.551   4.095  18.265  0.00  0.00    +0.000 C 
BRANCH  29  30
ATOM     30  CD  ARG A   1       1.709   2.675  18.819  0.00  0.00    +0.000 C 
BRANCH  30  34
ATOM     31  NH1 ARG A   1       3.894   0.877  18.284  0.00  0.00    +0.000 NA
ATOM     32  CZ  ARG A   1       3.957   1.738  19.243  0.00  0.00    +0.000 C 
ATOM     33  NH2 ARG A   1       5.037   1.915  20.020  0.00  0.00    +0.000 N 
ATOM     34  NE  ARG A   1       2.946   2.570  19.598  0.00  0.00    +0.000 N 
ATOM     35  HH1 ARG A   1       4.812   0.424  18.232  0.00  0.00    +0.000 HD
ATOM     36 HH21 ARG A   1       5.701   1.164  19.968  0.00  0.00    +0.000 HD
ATOM     37 HH22 ARG A   1       4.775   2.092  20.982  0.00  0.00    +0.000 HD
ATOM     38  HE  ARG A   1       3.231   3.438  20.027  0.00  0.00    +0.000 HD
ENDBRANCH  30  34
ENDBRANCH  29  30
ENDBRANCH  28  29
ENDBRANCH  23  28
ENDBRANCH   1  23
TORSDOF 9
ENDMDL
MODEL 5
REMARK VINA RESULT:      -8.0      1.327      2.363
REMARK  Name = 
REMARK  9 active torsions:
REMARK  status: ('A' for Active; 'I' for Inactive)
REMARK    1  A    between atoms: NE_4  and  CD_5
REMARK    2  A    between atoms: CD_5  and  CG_6
REMARK    3  A    between atoms: CG_6  and  CB_7
REMARK    4  A    between atoms: CB_7  and  CA_8
REMARK    5  A    between atoms: CA_8  and  N_9
REMARK    6  A    between atoms: CA_8  and  C_30
REMARK    7  A    between atoms: C_10  and  C_12
REMARK    8  A    between atoms: C_15  and  C_16
REMARK    9  A    between atoms: C_30  and  OXT_32
REMARK                            x       y       z     vdW  Elec       q    Type
REMARK                         _______ _______ _______ _____ _____    ______ ____
ROOT
ATOM      1  N   ARG A   1       3.331   5.964  19.137  0.00  0.00    +0.000 N 
ATOM      2  C   UNK A   0       2.831   7.236  18.860  0.00  0.00    +0.000 C 
ATOM      3  O   UNK A   0       3.296   7.817  17.873  0.00  0.00    +0.000 OA
ATOM      4  H   ARG A   1       2.919   5.483  19.927  0.00  0.00    +0.000 HD
ENDROOT
BRANCH   2   5
ATOM      5  C   UNK A   0       1.868   7.893  19.761  0.00  0.00    +0.000 A 
ATOM      6  C   UNK A   0       1.542   7.574  21.070  0.00  0.00    +0.000 A 
ATOM      7  C   UNK A   0       0.557   8.504  21.523  0.00  0.00    +0.000 A 
ATOM      8  C   UNK A   0       0.383   9.435  20.518  0.00  0.00    +0.000 A 
ATOM      9  O   UNK A   0       1.150   9.015  19.417  0.00  0.00    +0.000 OA
BRANCH   8  10
ATOM     10  C   UNK A   0      -0.471  10.617  20.277  0.00  0.00    +0.000 A 
ATOM     11  C   UNK A   0      -1.102  10.696  19.015  0.00  0.00    +0.000 A 
ATOM     12  C   UNK A   0      -2.144  11.579  18.758  0.00  0.00    +0.000 A 
ATOM     13  C   UNK A   0      -2.394  12.639  19.606  0.00  0.00    +0.000 A 
ATOM     14  C   UNK A   0      -2.105  12.329  20.944  0.00  0.00    +0.000 A 
ATOM     15  C   UNK A   0      -0.954  11.579  21.211  0.00  0.00    +0.000 A 
ATOM     16  O   UNK A   0      -0.437  12.119  22.390  0.00  0.00    +0.000 OA
ATOM     17  C   UNK A   0      -1.361  13.060  22.845  0.00  0.00    +0.000 A 
ATOM     18  C   UNK A   0      -1.231  14.087  23.783  0.00  0.00    +0.000 A 
ATOM     19  C   UNK A   0      -2.424  14.692  24.241  0.00  0.00    +0.000 A 
ATOM     20  C   UNK A   0      -3.672  14.309  23.749  0.00  0.00    +0.000 A 
ATOM     21  C   UNK A   0      -3.737  13.493  22.622  0.00  0.00    +0.000 A 
ATOM     22  C   UNK A   0      -2.542  12.903  22.150  0.00  0.00    +0.000 A 
ENDBRANCH   8  10
ENDBRANCH   2   5
BRANCH   1  23
ATOM     23  CA  ARG A   1       4.128   5.156  18.145  0.00  0.00    +0.000 C 
BRANCH  23  24
ATOM     24  C   ARG A   1       5.414   4.379  18.640  0.00  0.00    +0.000 C 
ATOM     25  O   ARG A   1       6.452   4.918  19.028  0.00  0.00    +0.000 OA
BRANCH  24  26
ATOM     26  OXT ARG A   1       5.242   3.037  18.755  0.00  0.00    +0.000 OA
ATOM     27  HXT ARG A   1       5.141   2.583  17.887  0.00  0.00    +0.000 HD
ENDBRANCH  24  26
ENDBRANCH  23  24
BRANCH  23  28
ATOM     28  CB  ARG A   1       3.280   4.064  17.445  0.00  0.00    +0.000 C 
BRANCH  28  29
ATOM     29  CG  ARG A   1       1.846   3.902  17.932  0.00  0.00    +0.000 C 
BRANCH  29  30
ATOM     30  CD  ARG A   1       1.665   2.499  18.523  0.00  0.00    +0.000 C 
BRANCH  30  34
ATOM     31  NH1 ARG A   1       3.369   2.504  20.843  0.00  0.00    +0.000 NA
ATOM     32  CZ  ARG A   1       2.092   2.649  20.953  0.00  0.00    +0.000 C 
ATOM     33  NH2 ARG A   1       1.461   2.869  22.116  0.00  0.00    +0.000 N 
ATOM     34  NE  ARG A   1       1.219   2.591  19.916  0.00  0.00    +0.000 N 
ATOM     35  HH1 ARG A   1       3.763   2.632  21.781  0.00  0.00    +0.000 HD
ATOM     36 HH21 ARG A   1       2.019   2.666  22.925  0.00  0.00    +0.000 HD
ATOM     37 HH22 ARG A   1       0.580   2.373  22.159  0.00  0.00    +0.000 HD
ATOM     38  HE  ARG A   1       0.368   3.120  20.037  0.00  0.00    +0.000 HD
ENDBRANCH  30  34
ENDBRANCH  29  30
ENDBRANCH  28  29
ENDBRANCH  23  28
ENDBRANCH   1  23
TORSDOF 9
ENDMDL
MODEL 6
REMARK VINA RESULT:      -8.0      1.387      1.736
REMARK  Name = 
REMARK  9 active torsions:
REMARK  status: ('A' for Active; 'I' for Inactive)
REMARK    1  A    between atoms: NE_4  and  CD_5
REMARK    2  A    between atoms: CD_5  and  CG_6
REMARK    3  A    between atoms: CG_6  and  CB_7
REMARK    4  A    between atoms: CB_7  and  CA_8
REMARK    5  A    between atoms: CA_8  and  N_9
REMARK    6  A    between atoms: CA_8  and  C_30
REMARK    7  A    between atoms: C_10  and  C_12
REMARK    8  A    between atoms: C_15  and  C_16
REMARK    9  A    between atoms: C_30  and  OXT_32
REMARK                            x       y       z     vdW  Elec       q    Type
REMARK                         _______ _______ _______ _____ _____    ______ ____
ROOT
ATOM      1  N   ARG A   1       3.873   6.274  17.207  0.00  0.00    +0.000 N 
ATOM      2  C   UNK A   0       3.373   6.641  18.455  0.00  0.00    +0.000 C 
ATOM      3  O   UNK A   0       3.648   5.902  19.407  0.00  0.00    +0.000 OA
ATOM      4  H   ARG A   1       3.672   6.904  16.440  0.00  0.00    +0.000 HD
ENDROOT
BRANCH   2   5
ATOM      5  C   UNK A   0       2.478   7.801  18.611  0.00  0.00    +0.000 A 
ATOM      6  C   UNK A   0       2.117   8.755  17.671  0.00  0.00    +0.000 A 
ATOM      7  C   UNK A   0       1.225   9.679  18.296  0.00  0.00    +0.000 A 
ATOM      8  C   UNK A   0       0.976   9.208  19.570  0.00  0.00    +0.000 A 
ATOM      9  O   UNK A   0       1.800   8.086  19.772  0.00  0.00    +0.000 OA
BRANCH   8  10
ATOM     10  C   UNK A   0       0.211   9.650  20.754  0.00  0.00    +0.000 A 
ATOM     11  C   UNK A   0       0.366   8.883  21.932  0.00  0.00    +0.000 A 
ATOM     12  C   UNK A   0      -0.051   9.339  23.177  0.00  0.00    +0.000 A 
ATOM     13  C   UNK A   0      -0.923  10.403  23.280  0.00  0.00    +0.000 A 
ATOM     14  C   UNK A   0      -0.733  11.348  22.261  0.00  0.00    +0.000 A 
ATOM     15  C   UNK A   0      -0.481  10.878  20.967  0.00  0.00    +0.000 A 
ATOM     16  O   UNK A   0      -1.166  11.755  20.124  0.00  0.00    +0.000 OA
ATOM     17  C   UNK A   0      -1.674  12.776  20.927  0.00  0.00    +0.000 A 
ATOM     18  C   UNK A   0      -2.661  13.731  20.673  0.00  0.00    +0.000 A 
ATOM     19  C   UNK A   0      -2.756  14.812  21.578  0.00  0.00    +0.000 A 
ATOM     20  C   UNK A   0      -1.928  14.902  22.698  0.00  0.00    +0.000 A 
ATOM     21  C   UNK A   0      -1.162  13.798  23.066  0.00  0.00    +0.000 A 
ATOM     22  C   UNK A   0      -1.082  12.707  22.171  0.00  0.00    +0.000 A 
ENDBRANCH   8  10
ENDBRANCH   2   5
BRANCH   1  23
ATOM     23  CA  ARG A   1       4.966   5.251  17.023  0.00  0.00    +0.000 C 
BRANCH  23  24
ATOM     24  C   ARG A   1       6.157   5.200  18.063  0.00  0.00    +0.000 C 
ATOM     25  O   ARG A   1       6.275   4.354  18.951  0.00  0.00    +0.000 OA
BRANCH  24  26
ATOM     26  OXT ARG A   1       7.152   6.088  17.811  0.00  0.00    +0.000 OA
ATOM     27  HXT ARG A   1       7.967   5.915  18.336  0.00  0.00    +0.000 HD
ENDBRANCH  24  26
ENDBRANCH  23  24
BRANCH  23  28
ATOM     28  CB  ARG A   1       4.427   3.797  17.003  0.00  0.00    +0.000 C 
BRANCH  28  29
ATOM     29  CG  ARG A   1       2.923   3.634  16.827  0.00  0.00    +0.000 C 
BRANCH  29  30
ATOM     30  CD  ARG A   1       2.344   2.910  18.048  0.00  0.00    +0.000 C 
BRANCH  30  34
ATOM     31  NH1 ARG A   1       4.001   0.625  18.615  0.00  0.00    +0.000 NA
ATOM     32  CZ  ARG A   1       4.136   1.727  19.272  0.00  0.00    +0.000 C 
ATOM     33  NH2 ARG A   1       5.073   1.929  20.211  0.00  0.00    +0.000 N 
ATOM     34  NE  ARG A   1       3.351   2.821  19.109  0.00  0.00    +0.000 N 
ATOM     35  HH1 ARG A   1       4.752   0.001  18.927  0.00  0.00    +0.000 HD
ATOM     36 HH21 ARG A   1       5.501   1.085  20.544  0.00  0.00    +0.000 HD
ATOM     37 HH22 ARG A   1       4.711   2.473  20.984  0.00  0.00    +0.000 HD
ATOM     38  HE  ARG A   1       3.788   3.704  19.329  0.00  0.00    +0.000 HD
ENDBRANCH  30  34
ENDBRANCH  29  30
ENDBRANCH  28  29
ENDBRANCH  23  28
ENDBRANCH   1  23
TORSDOF 9
ENDMDL
MODEL 7
REMARK VINA RESULT:      -7.9      1.115      1.394
REMARK  Name = 
REMARK  9 active torsions:
REMARK  status: ('A' for Active; 'I' for Inactive)
REMARK    1  A    between atoms: NE_4  and  CD_5
REMARK    2  A    between atoms: CD_5  and  CG_6
REMARK    3  A    between atoms: CG_6  and  CB_7
REMARK    4  A    between atoms: CB_7  and  CA_8
REMARK    5  A    between atoms: CA_8  and  N_9
REMARK    6  A    between atoms: CA_8  and  C_30
REMARK    7  A    between atoms: C_10  and  C_12
REMARK    8  A    between atoms: C_15  and  C_16
REMARK    9  A    between atoms: C_30  and  OXT_32
REMARK                            x       y       z     vdW  Elec       q    Type
REMARK                         _______ _______ _______ _____ _____    ______ ____
ROOT
ATOM      1  N   ARG A   1       3.655   5.547  17.538  0.00  0.00    +0.000 N 
ATOM      2  C   UNK A   0       3.325   6.099  18.775  0.00  0.00    +0.000 C 
ATOM      3  O   UNK A   0       3.627   5.444  19.779  0.00  0.00    +0.000 OA
ATOM      4  H   ARG A   1       3.435   6.108  16.723  0.00  0.00    +0.000 HD
ENDROOT
BRANCH   2   5
ATOM      5  C   UNK A   0       2.565   7.358  18.874  0.00  0.00    +0.000 A 
ATOM      6  C   UNK A   0       2.415   8.361  17.928  0.00  0.00    +0.000 A 
ATOM      7  C   UNK A   0       1.582   9.378  18.488  0.00  0.00    +0.000 A 
ATOM      8  C   UNK A   0       1.155   8.924  19.720  0.00  0.00    +0.000 A 
ATOM      9  O   UNK A   0       1.814   7.707  19.971  0.00  0.00    +0.000 OA
BRANCH   8  10
ATOM     10  C   UNK A   0       0.335   9.439  20.836  0.00  0.00    +0.000 A 
ATOM     11  C   UNK A   0       0.587   8.889  22.114  0.00  0.00    +0.000 A 
ATOM     12  C   UNK A   0       0.110   9.472  23.282  0.00  0.00    +0.000 A 
ATOM     13  C   UNK A   0      -0.894  10.417  23.237  0.00  0.00    +0.000 A 
ATOM     14  C   UNK A   0      -0.827  11.211  22.083  0.00  0.00    +0.000 A 
ATOM     15  C   UNK A   0      -0.512  10.585  20.872  0.00  0.00    +0.000 A 
ATOM     16  O   UNK A   0      -1.303  11.226  19.917  0.00  0.00    +0.000 OA
ATOM     17  C   UNK A   0      -1.942  12.283  20.563  0.00  0.00    +0.000 A 
ATOM     18  C   UNK A   0      -3.046  13.052  20.184  0.00  0.00    +0.000 A 
ATOM     19  C   UNK A   0      -3.283  14.238  20.916  0.00  0.00    +0.000 A 
ATOM     20  C   UNK A   0      -2.477  14.605  21.994  0.00  0.00    +0.000 A 
ATOM     21  C   UNK A   0      -1.575  13.679  22.512  0.00  0.00    +0.000 A 
ATOM     22  C   UNK A   0      -1.350  12.483  21.793  0.00  0.00    +0.000 A 
ENDBRANCH   8  10
ENDBRANCH   2   5
BRANCH   1  23
ATOM     23  CA  ARG A   1       4.621   4.400  17.376  0.00  0.00    +0.000 C 
BRANCH  23  24
ATOM     24  C   ARG A   1       6.170   4.666  17.558  0.00  0.00    +0.000 C 
ATOM     25  O   ARG A   1       6.674   5.227  18.533  0.00  0.00    +0.000 OA
BRANCH  24  26
ATOM     26  OXT ARG A   1       6.948   4.085  16.610  0.00  0.00    +0.000 OA
ATOM     27  HXT ARG A   1       7.121   4.672  15.838  0.00  0.00    +0.000 HD
ENDBRANCH  24  26
ENDBRANCH  23  24
BRANCH  23  28
ATOM     28  CB  ARG A   1       4.327   3.230  18.349  0.00  0.00    +0.000 C 
BRANCH  28  29
ATOM     29  CG  ARG A   1       3.395   2.139  17.837  0.00  0.00    +0.000 C 
BRANCH  29  30
ATOM     30  CD  ARG A   1       2.329   1.842  18.897  0.00  0.00    +0.000 C 
BRANCH  30  34
ATOM     31  NH1 ARG A   1       1.374   2.607  21.503  0.00  0.00    +0.000 NA
ATOM     32  CZ  ARG A   1       1.216   3.379  20.482  0.00  0.00    +0.000 C 
ATOM     33  NH2 ARG A   1       0.663   4.600  20.544  0.00  0.00    +0.000 N 
ATOM     34  NE  ARG A   1       1.577   3.060  19.214  0.00  0.00    +0.000 N 
ATOM     35  HH1 ARG A   1       1.042   3.128  22.322  0.00  0.00    +0.000 HD
ATOM     36 HH21 ARG A   1       0.156   4.772  21.393  0.00  0.00    +0.000 HD
ATOM     37 HH22 ARG A   1       0.080   4.784  19.738  0.00  0.00    +0.000 HD
ATOM     38  HE  ARG A   1       1.804   3.844  18.619  0.00  0.00    +0.000 HD
ENDBRANCH  30  34
ENDBRANCH  29  30
ENDBRANCH  28  29
ENDBRANCH  23  28
ENDBRANCH   1  23
TORSDOF 9
ENDMDL
MODEL 8
REMARK VINA RESULT:      -7.9      2.250      3.246
REMARK  Name = 
REMARK  9 active torsions:
REMARK  status: ('A' for Active; 'I' for Inactive)
REMARK    1  A    between atoms: NE_4  and  CD_5
REMARK    2  A    between atoms: CD_5  and  CG_6
REMARK    3  A    between atoms: CG_6  and  CB_7
REMARK    4  A    between atoms: CB_7  and  CA_8
REMARK    5  A    between atoms: CA_8  and  N_9
REMARK    6  A    between atoms: CA_8  and  C_30
REMARK    7  A    between atoms: C_10  and  C_12
REMARK    8  A    between atoms: C_15  and  C_16
REMARK    9  A    between atoms: C_30  and  OXT_32
REMARK                            x       y       z     vdW  Elec       q    Type
REMARK                         _______ _______ _______ _____ _____    ______ ____
ROOT
ATOM      1  N   ARG A   1       1.819   5.232  19.225  0.00  0.00    +0.000 N 
ATOM      2  C   UNK A   0       2.677   6.328  19.143  0.00  0.00    +0.000 C 
ATOM      3  O   UNK A   0       3.888   6.098  19.224  0.00  0.00    +0.000 OA
ATOM      4  H   ARG A   1       0.831   5.427  19.122  0.00  0.00    +0.000 HD
ENDROOT
BRANCH   2   5
ATOM      5  C   UNK A   0       2.155   7.704  19.062  0.00  0.00    +0.000 A 
ATOM      6  C   UNK A   0       2.264   8.617  18.025  0.00  0.00    +0.000 A 
ATOM      7  C   UNK A   0       1.593   9.816  18.416  0.00  0.00    +0.000 A 
ATOM      8  C   UNK A   0       0.997   9.570  19.637  0.00  0.00    +0.000 A 
ATOM      9  O   UNK A   0       1.400   8.288  20.052  0.00  0.00    +0.000 OA
BRANCH   8  10
ATOM     10  C   UNK A   0       0.203  10.331  20.624  0.00  0.00    +0.000 A 
ATOM     11  C   UNK A   0      -0.178   9.642  21.798  0.00  0.00    +0.000 A 
ATOM     12  C   UNK A   0      -0.662  10.299  22.923  0.00  0.00    +0.000 A 
ATOM     13  C   UNK A   0      -1.102  11.604  22.840  0.00  0.00    +0.000 A 
ATOM     14  C   UNK A   0      -0.377  12.351  21.900  0.00  0.00    +0.000 A 
ATOM     15  C   UNK A   0      -0.038  11.734  20.690  0.00  0.00    +0.000 A 
ATOM     16  O   UNK A   0      -0.171  12.734  19.725  0.00  0.00    +0.000 OA
ATOM     17  C   UNK A   0      -0.443  13.920  20.404  0.00  0.00    +0.000 A 
ATOM     18  C   UNK A   0      -0.950  15.139  19.945  0.00  0.00    +0.000 A 
ATOM     19  C   UNK A   0      -0.847  16.246  20.819  0.00  0.00    +0.000 A 
ATOM     20  C   UNK A   0      -0.301  16.120  22.096  0.00  0.00    +0.000 A 
ATOM     21  C   UNK A   0      -0.073  14.848  22.615  0.00  0.00    +0.000 A 
ATOM     22  C   UNK A   0      -0.195  13.737  21.749  0.00  0.00    +0.000 A 
ENDBRANCH   8  10
ENDBRANCH   2   5
BRANCH   1  23
ATOM     23  CA  ARG A   1       2.285   3.805  19.074  0.00  0.00    +0.000 C 
BRANCH  23  24
ATOM     24  C   ARG A   1       1.392   2.637  19.659  0.00  0.00    +0.000 C 
ATOM     25  O   ARG A   1       1.427   2.247  20.827  0.00  0.00    +0.000 OA
BRANCH  24  26
ATOM     26  OXT ARG A   1       0.448   2.177  18.799  0.00  0.00    +0.000 OA
ATOM     27  HXT ARG A   1      -0.217   1.592  19.231  0.00  0.00    +0.000 HD
ENDBRANCH  24  26
ENDBRANCH  23  24
BRANCH  23  28
ATOM     28  CB  ARG A   1       2.504   3.401  17.594  0.00  0.00    +0.000 C 
BRANCH  28  29
ATOM     29  CG  ARG A   1       3.861   2.801  17.248  0.00  0.00    +0.000 C 
BRANCH  29  30
ATOM     30  CD  ARG A   1       4.808   3.916  16.791  0.00  0.00    +0.000 C 
BRANCH  30  34
ATOM     31  NH1 ARG A   1       7.508   4.731  16.210  0.00  0.00    +0.000 NA
ATOM     32  CZ  ARG A   1       7.111   4.552  17.425  0.00  0.00    +0.000 C 
ATOM     33  NH2 ARG A   1       7.875   4.781  18.504  0.00  0.00    +0.000 N 
ATOM     34  NE  ARG A   1       5.878   4.106  17.774  0.00  0.00    +0.000 N 
ATOM     35  HH1 ARG A   1       8.461   5.104  16.262  0.00  0.00    +0.000 HD
ATOM     36 HH21 ARG A   1       8.854   4.861  18.296  0.00  0.00    +0.000 HD
ATOM     37 HH22 ARG A   1       7.719   4.085  19.221  0.00  0.00    +0.000 HD
ATOM     38  HE  ARG A   1       5.550   4.407  18.680  0.00  0.00    +0.000 HD
ENDBRANCH  30  34
ENDBRANCH  29  30
ENDBRANCH  28  29
ENDBRANCH  23  28
ENDBRANCH   1  23
TORSDOF 9
ENDMDL
MODEL 9
REMARK VINA RESULT:      -7.8      2.803      4.096
REMARK  Name = 
REMARK  9 active torsions:
REMARK  status: ('A' for Active; 'I' for Inactive)
REMARK    1  A    between atoms: NE_4  and  CD_5
REMARK    2  A    between atoms: CD_5  and  CG_6
REMARK    3  A    between atoms: CG_6  and  CB_7
REMARK    4  A    between atoms: CB_7  and  CA_8
REMARK    5  A    between atoms: CA_8  and  N_9
REMARK    6  A    between atoms: CA_8  and  C_30
REMARK    7  A    between atoms: C_10  and  C_12
REMARK    8  A    between atoms: C_15  and  C_16
REMARK    9  A    between atoms: C_30  and  OXT_32
REMARK                            x       y       z     vdW  Elec       q    Type
REMARK                         _______ _______ _______ _____ _____    ______ ____
ROOT
ATOM      1  N   ARG A   1       4.530   6.643  17.692  0.00  0.00    +0.000 N 
ATOM      2  C   UNK A   0       3.283   6.574  18.311  0.00  0.00    +0.000 C 
ATOM      3  O   UNK A   0       2.858   5.447  18.589  0.00  0.00    +0.000 OA
ATOM      4  H   ARG A   1       4.885   7.572  17.500  0.00  0.00    +0.000 HD
ENDROOT
BRANCH   2   5
ATOM      5  C   UNK A   0       2.470   7.783  18.533  0.00  0.00    +0.000 A 
ATOM      6  C   UNK A   0       2.202   8.824  17.659  0.00  0.00    +0.000 A 
ATOM      7  C   UNK A   0       1.363   9.765  18.331  0.00  0.00    +0.000 A 
ATOM      8  C   UNK A   0       1.049   9.224  19.562  0.00  0.00    +0.000 A 
ATOM      9  O   UNK A   0       1.785   8.033  19.699  0.00  0.00    +0.000 OA
BRANCH   8  10
ATOM     10  C   UNK A   0       0.288   9.635  20.760  0.00  0.00    +0.000 A 
ATOM     11  C   UNK A   0       0.533   8.908  21.947  0.00  0.00    +0.000 A 
ATOM     12  C   UNK A   0       0.119   9.359  23.195  0.00  0.00    +0.000 A 
ATOM     13  C   UNK A   0      -0.825  10.360  23.304  0.00  0.00    +0.000 A 
ATOM     14  C   UNK A   0      -0.733  11.294  22.262  0.00  0.00    +0.000 A 
ATOM     15  C   UNK A   0      -0.484  10.815  20.970  0.00  0.00    +0.000 A 
ATOM     16  O   UNK A   0      -1.254  11.622  20.131  0.00  0.00    +0.000 OA
ATOM     17  C   UNK A   0      -1.812  12.621  20.928  0.00  0.00    +0.000 A 
ATOM     18  C   UNK A   0      -2.873  13.497  20.685  0.00  0.00    +0.000 A 
ATOM     19  C   UNK A   0      -3.020  14.588  21.572  0.00  0.00    +0.000 A 
ATOM     20  C   UNK A   0      -2.169  14.761  22.664  0.00  0.00    +0.000 A 
ATOM     21  C   UNK A   0      -1.315  13.724  23.031  0.00  0.00    +0.000 A 
ATOM     22  C   UNK A   0      -1.182  12.622  22.156  0.00  0.00    +0.000 A 
ENDBRANCH   8  10
ENDBRANCH   2   5
BRANCH   1  23
ATOM     23  CA  ARG A   1       5.497   5.486  17.650  0.00  0.00    +0.000 C 
BRANCH  23  24
ATOM     24  C   ARG A   1       5.968   4.826  19.008  0.00  0.00    +0.000 C 
ATOM     25  O   ARG A   1       6.727   5.359  19.819  0.00  0.00    +0.000 OA
BRANCH  24  26
ATOM     26  OXT ARG A   1       5.344   3.657  19.303  0.00  0.00    +0.000 OA
ATOM     27  HXT ARG A   1       4.424   3.610  18.954  0.00  0.00    +0.000 HD
ENDBRANCH  24  26
ENDBRANCH  23  24
BRANCH  23  28
ATOM     28  CB  ARG A   1       4.963   4.290  16.820  0.00  0.00    +0.000 C 
BRANCH  28  29
ATOM     29  CG  ARG A   1       5.960   3.609  15.892  0.00  0.00    +0.000 C 
BRANCH  29  30
ATOM     30  CD  ARG A   1       6.811   4.673  15.191  0.00  0.00    +0.000 C 
BRANCH  30  34
ATOM     31  NH1 ARG A   1       8.591   5.857  13.262  0.00  0.00    +0.000 NA
ATOM     32  CZ  ARG A   1       7.654   5.049  12.898  0.00  0.00    +0.000 C 
ATOM     33  NH2 ARG A   1       7.462   4.646  11.632  0.00  0.00    +0.000 N 
ATOM     34  NE  ARG A   1       6.737   4.505  13.737  0.00  0.00    +0.000 N 
ATOM     35  HH1 ARG A   1       9.141   6.069  12.423  0.00  0.00    +0.000 HD
ATOM     36 HH21 ARG A   1       7.939   5.209  10.952  0.00  0.00    +0.000 HD
ATOM     37 HH22 ARG A   1       6.476   4.580  11.411  0.00  0.00    +0.000 HD
ATOM     38  HE  ARG A   1       6.362   3.613  13.450  0.00  0.00    +0.000 HD
ENDBRANCH  30  34
ENDBRANCH  29  30
ENDBRANCH  28  29
ENDBRANCH  23  28
ENDBRANCH   1  23
TORSDOF 9
ENDMDL
