MODEL 1
REMARK VINA RESULT:      -9.4      0.000      0.000
REMARK  Name = 
REMARK  9 active torsions:
REMARK  status: ('A' for Active; 'I' for Inactive)
REMARK    1  A    between atoms: C_1  and  O_2
REMARK    2  A    between atoms: O_2  and  C_3
REMARK    3  A    between atoms: C_6  and  C_7
REMARK    4  A    between atoms: C_10  and  C_11
REMARK    5  A    between atoms: C_17  and  C_18
REMARK    6  A    between atoms: N_21  and  C_22
REMARK    7  A    between atoms: C_22  and  C_23
REMARK    8  A    between atoms: C_33  and  O_34
REMARK    9  A    between atoms: O_34  and  C_35
REMARK                            x       y       z     vdW  Elec       q    Type
REMARK                         _______ _______ _______ _____ _____    ______ ____
ROOT
ATOM      1  C   UNL     1       3.044   5.589  18.080  0.00  0.00    +0.000 C 
ATOM      2  C   UNL     1       2.674   4.115  18.420  0.00  0.00    +0.000 C 
ATOM      3  C   UNL     1       1.232   4.062  18.838  0.00  0.00    +0.000 C 
ATOM      4  C   UNL     1       0.812   3.609  20.019  0.00  0.00    +0.000 C 
ATOM      5  C   UNL     1       1.708   2.981  21.019  0.00  0.00    +0.000 C 
ATOM      6  C   UNL     1       3.221   2.982  20.730  0.00  0.00    +0.000 C 
ATOM      7  C   UNL     1       3.771   3.617  19.420  0.00  0.00    +0.000 C 
ATOM      8  C   UNL     1       4.727   2.511  18.847  0.00  0.00    +0.000 C 
ATOM      9  C   UNL     1       4.796   4.797  19.428  0.00  0.00    +0.000 C 
ATOM     10  O   UNL     1       5.839   4.856  20.076  0.00  0.00    +0.000 OA
ATOM     11  N   UNL     1       4.444   5.665  18.375  0.00  0.00    +0.000 N 
ENDROOT
BRANCH   1  15
ATOM     12  C   UNL     1       1.066   8.831  20.284  0.00  0.00    +0.000 A 
ATOM     13  C   UNL     1       1.282   7.573  20.868  0.00  0.00    +0.000 A 
ATOM     14  C   UNL     1       1.914   6.540  20.165  0.00  0.00    +0.000 A 
ATOM     15  C   UNL     1       2.332   6.706  18.842  0.00  0.00    +0.000 A 
ATOM     16  C   UNL     1       2.113   7.949  18.250  0.00  0.00    +0.000 A 
ATOM     17  F   UNL     1       2.496   8.172  16.990  0.00  0.00    +0.000 F 
ATOM     18  C   UNL     1       1.483   8.984  18.959  0.00  0.00    +0.000 A 
BRANCH  12  22
ATOM     19  C   UNL     1      -0.644  12.036  22.657  0.00  0.00    +0.000 A 
ATOM     20  C   UNL     1      -0.798  10.698  23.034  0.00  0.00    +0.000 A 
ATOM     21  C   UNL     1      -0.235   9.672  22.272  0.00  0.00    +0.000 A 
ATOM     22  C   UNL     1       0.444   9.932  21.073  0.00  0.00    +0.000 A 
ATOM     23  C   UNL     1       0.498  11.272  20.658  0.00  0.00    +0.000 A 
ATOM     24  C   UNL     1      -0.035  12.327  21.431  0.00  0.00    +0.000 A 
BRANCH  19  26
ATOM     25  C   UNL     1      -2.452  13.451  23.219  0.00  0.00    +0.000 C 
ATOM     26  O   UNL     1      -1.104  13.045  23.459  0.00  0.00    +0.000 OA
ENDBRANCH  19  26
BRANCH  24  27
ATOM     27  O   UNL     1       0.161  13.545  20.835  0.00  0.00    +0.000 OA
ATOM     28  C   UNL     1      -0.388  13.777  19.547  0.00  0.00    +0.000 C 
ENDBRANCH  24  27
ENDBRANCH  12  22
ENDBRANCH   1  15
BRANCH  11  29
ATOM     29  C   UNL     1       5.347   6.330  17.441  0.00  0.00    +0.000 C 
BRANCH  29  30
ATOM     30  C   UNL     1       5.844   5.540  16.265  0.00  0.00    +0.000 A 
ATOM     31  C   UNL     1       4.938   4.773  15.520  0.00  0.00    +0.000 A 
ATOM     32  C   UNL     1       5.329   4.148  14.337  0.00  0.00    +0.000 A 
ATOM     33  C   UNL     1       6.638   4.280  13.880  0.00  0.00    +0.000 A 
ATOM     34  C   UNL     1       7.558   5.026  14.614  0.00  0.00    +0.000 A 
ATOM     35  C   UNL     1       7.164   5.652  15.803  0.00  0.00    +0.000 A 
ENDBRANCH  29  30
ENDBRANCH  11  29
TORSDOF 6
ENDMDL
MODEL 2
REMARK VINA RESULT:      -9.2      1.379      1.721
REMARK  Name = 
REMARK  9 active torsions:
REMARK  status: ('A' for Active; 'I' for Inactive)
REMARK    1  A    between atoms: C_1  and  O_2
REMARK    2  A    between atoms: O_2  and  C_3
REMARK    3  A    between atoms: C_6  and  C_7
REMARK    4  A    between atoms: C_10  and  C_11
REMARK    5  A    between atoms: C_17  and  C_18
REMARK    6  A    between atoms: N_21  and  C_22
REMARK    7  A    between atoms: C_22  and  C_23
REMARK    8  A    between atoms: C_33  and  O_34
REMARK    9  A    between atoms: O_34  and  C_35
REMARK                            x       y       z     vdW  Elec       q    Type
REMARK                         _______ _______ _______ _____ _____    ______ ____
ROOT
ATOM      1  C   UNL     1       3.780   4.709  18.369  0.00  0.00    +0.000 C 
ATOM      2  C   UNL     1       3.027   3.449  17.848  0.00  0.00    +0.000 C 
ATOM      3  C   UNL     1       1.642   3.852  17.430  0.00  0.00    +0.000 C 
ATOM      4  C   UNL     1       0.525   3.337  17.942  0.00  0.00    +0.000 C 
ATOM      5  C   UNL     1       0.513   2.206  18.900  0.00  0.00    +0.000 C 
ATOM      6  C   UNL     1       1.867   1.699  19.433  0.00  0.00    +0.000 C 
ATOM      7  C   UNL     1       3.195   2.358  18.960  0.00  0.00    +0.000 C 
ATOM      8  C   UNL     1       4.088   1.135  18.549  0.00  0.00    +0.000 C 
ATOM      9  C   UNL     1       4.198   3.027  19.955  0.00  0.00    +0.000 C 
ATOM     10  O   UNL     1       4.633   2.537  20.995  0.00  0.00    +0.000 OA
ATOM     11  N   UNL     1       4.709   4.179  19.324  0.00  0.00    +0.000 N 
ENDROOT
BRANCH   1  15
ATOM     12  C   UNL     1       1.503   7.893  20.358  0.00  0.00    +0.000 A 
ATOM     13  C   UNL     1       1.588   6.603  20.903  0.00  0.00    +0.000 A 
ATOM     14  C   UNL     1       2.316   5.588  20.269  0.00  0.00    +0.000 A 
ATOM     15  C   UNL     1       2.965   5.806  19.052  0.00  0.00    +0.000 A 
ATOM     16  C   UNL     1       2.878   7.082  18.496  0.00  0.00    +0.000 A 
ATOM     17  F   UNL     1       3.484   7.356  17.338  0.00  0.00    +0.000 F 
ATOM     18  C   UNL     1       2.152   8.099  19.137  0.00  0.00    +0.000 A 
BRANCH  12  22
ATOM     19  C   UNL     1      -0.521  11.062  22.523  0.00  0.00    +0.000 A 
ATOM     20  C   UNL     1      -0.340   9.799  23.094  0.00  0.00    +0.000 A 
ATOM     21  C   UNL     1       0.322   8.788  22.397  0.00  0.00    +0.000 A 
ATOM     22  C   UNL     1       0.771   8.971  21.081  0.00  0.00    +0.000 A 
ATOM     23  C   UNL     1       0.487  10.211  20.487  0.00  0.00    +0.000 A 
ATOM     24  C   UNL     1      -0.150  11.258  21.187  0.00  0.00    +0.000 A 
BRANCH  19  26
ATOM     25  C   UNL     1      -2.502  12.142  23.229  0.00  0.00    +0.000 C 
ATOM     26  O   UNL     1      -1.074  12.084  23.245  0.00  0.00    +0.000 OA
ENDBRANCH  19  26
BRANCH  24  27
ATOM     27  O   UNL     1      -0.294  12.378  20.410  0.00  0.00    +0.000 OA
ATOM     28  C   UNL     1      -1.236  12.362  19.348  0.00  0.00    +0.000 C 
ENDBRANCH  24  27
ENDBRANCH  12  22
ENDBRANCH   1  15
BRANCH  11  29
ATOM     29  C   UNL     1       6.092   4.647  19.327  0.00  0.00    +0.000 C 
BRANCH  29  30
ATOM     30  C   UNL     1       6.657   5.166  18.037  0.00  0.00    +0.000 A 
ATOM     31  C   UNL     1       6.705   4.323  16.918  0.00  0.00    +0.000 A 
ATOM     32  C   UNL     1       7.080   4.811  15.667  0.00  0.00    +0.000 A 
ATOM     33  C   UNL     1       7.417   6.154  15.517  0.00  0.00    +0.000 A 
ATOM     34  C   UNL     1       7.390   7.005  16.620  0.00  0.00    +0.000 A 
ATOM     35  C   UNL     1       7.014   6.514  17.875  0.00  0.00    +0.000 A 
ENDBRANCH  29  30
ENDBRANCH  11  29
TORSDOF 6
ENDMDL
MODEL 3
REMARK VINA RESULT:      -9.0      1.150      1.447
REMARK  Name = 
REMARK  9 active torsions:
REMARK  status: ('A' for Active; 'I' for Inactive)
REMARK    1  A    between atoms: C_1  and  O_2
REMARK    2  A    between atoms: O_2  and  C_3
REMARK    3  A    between atoms: C_6  and  C_7
REMARK    4  A    between atoms: C_10  and  C_11
REMARK    5  A    between atoms: C_17  and  C_18
REMARK    6  A    between atoms: N_21  and  C_22
REMARK    7  A    between atoms: C_22  and  C_23
REMARK    8  A    between atoms: C_33  and  O_34
REMARK    9  A    between atoms: O_34  and  C_35
REMARK                            x       y       z     vdW  Elec       q    Type
REMARK                         _______ _______ _______ _____ _____    ______ ____
ROOT
ATOM      1  C   UNL     1       3.443   4.716  17.886  0.00  0.00    +0.000 C 
ATOM      2  C   UNL     1       2.691   3.359  17.757  0.00  0.00    +0.000 C 
ATOM      3  C   UNL     1       1.215   3.627  17.694  0.00  0.00    +0.000 C 
ATOM      4  C   UNL     1       0.327   3.136  18.556  0.00  0.00    +0.000 C 
ATOM      5  C   UNL     1       0.672   2.156  19.614  0.00  0.00    +0.000 C 
ATOM      6  C   UNL     1       2.158   1.800  19.808  0.00  0.00    +0.000 C 
ATOM      7  C   UNL     1       3.247   2.449  18.905  0.00  0.00    +0.000 C 
ATOM      8  C   UNL     1       4.101   1.226  18.418  0.00  0.00    +0.000 C 
ATOM      9  C   UNL     1       4.418   3.304  19.490  0.00  0.00    +0.000 C 
ATOM     10  O   UNL     1       5.158   2.992  20.421  0.00  0.00    +0.000 OA
ATOM     11  N   UNL     1       4.638   4.377  18.603  0.00  0.00    +0.000 N 
ENDROOT
BRANCH   1  15
ATOM     12  C   UNL     1       1.515   8.024  20.035  0.00  0.00    +0.000 A 
ATOM     13  C   UNL     1       1.538   6.723  20.561  0.00  0.00    +0.000 A 
ATOM     14  C   UNL     1       2.155   5.669  19.876  0.00  0.00    +0.000 A 
ATOM     15  C   UNL     1       2.749   5.859  18.626  0.00  0.00    +0.000 A 
ATOM     16  C   UNL     1       2.722   7.146  18.090  0.00  0.00    +0.000 A 
ATOM     17  F   UNL     1       3.279   7.392  16.901  0.00  0.00    +0.000 F 
ATOM     18  C   UNL     1       2.108   8.202  18.782  0.00  0.00    +0.000 A 
BRANCH  12  22
ATOM     19  C   UNL     1      -0.160  11.279  22.365  0.00  0.00    +0.000 A 
ATOM     20  C   UNL     1      -0.263   9.954  22.798  0.00  0.00    +0.000 A 
ATOM     21  C   UNL     1       0.288   8.913  22.050  0.00  0.00    +0.000 A 
ATOM     22  C   UNL     1       0.904   9.141  20.811  0.00  0.00    +0.000 A 
ATOM     23  C   UNL     1       0.905  10.465  20.343  0.00  0.00    +0.000 A 
ATOM     24  C   UNL     1       0.384  11.536  21.100  0.00  0.00    +0.000 A 
BRANCH  19  26
ATOM     25  C   UNL     1      -2.024  12.479  23.187  0.00  0.00    +0.000 C 
ATOM     26  O   UNL     1      -0.606  12.308  23.149  0.00  0.00    +0.000 OA
ENDBRANCH  19  26
BRANCH  24  27
ATOM     27  O   UNL     1       0.521  12.735  20.451  0.00  0.00    +0.000 OA
ATOM     28  C   UNL     1       1.755  13.429  20.543  0.00  0.00    +0.000 C 
ENDBRANCH  24  27
ENDBRANCH  12  22
ENDBRANCH   1  15
BRANCH  11  29
ATOM     29  C   UNL     1       5.924   4.909  18.163  0.00  0.00    +0.000 C 
BRANCH  29  30
ATOM     30  C   UNL     1       6.224   4.884  16.691  0.00  0.00    +0.000 A 
ATOM     31  C   UNL     1       7.137   5.807  16.161  0.00  0.00    +0.000 A 
ATOM     32  C   UNL     1       7.555   5.719  14.834  0.00  0.00    +0.000 A 
ATOM     33  C   UNL     1       7.063   4.707  14.014  0.00  0.00    +0.000 A 
ATOM     34  C   UNL     1       6.144   3.789  14.519  0.00  0.00    +0.000 A 
ATOM     35  C   UNL     1       5.724   3.878  15.851  0.00  0.00    +0.000 A 
ENDBRANCH  29  30
ENDBRANCH  11  29
TORSDOF 6
ENDMDL
MODEL 4
REMARK VINA RESULT:      -9.0      1.967      4.768
REMARK  Name = 
REMARK  9 active torsions:
REMARK  status: ('A' for Active; 'I' for Inactive)
REMARK    1  A    between atoms: C_1  and  O_2
REMARK    2  A    between atoms: O_2  and  C_3
REMARK    3  A    between atoms: C_6  and  C_7
REMARK    4  A    between atoms: C_10  and  C_11
REMARK    5  A    between atoms: C_17  and  C_18
REMARK    6  A    between atoms: N_21  and  C_22
REMARK    7  A    between atoms: C_22  and  C_23
REMARK    8  A    between atoms: C_33  and  O_34
REMARK    9  A    between atoms: O_34  and  C_35
REMARK                            x       y       z     vdW  Elec       q    Type
REMARK                         _______ _______ _______ _____ _____    ______ ____
ROOT
ATOM      1  C   UNL     1       4.717   4.692  18.128  0.00  0.00    +0.000 C 
ATOM      2  C   UNL     1       6.245   4.939  17.955  0.00  0.00    +0.000 C 
ATOM      3  C   UNL     1       6.661   6.055  18.869  0.00  0.00    +0.000 C 
ATOM      4  C   UNL     1       7.233   7.186  18.457  0.00  0.00    +0.000 C 
ATOM      5  C   UNL     1       7.647   7.428  17.054  0.00  0.00    +0.000 C 
ATOM      6  C   UNL     1       7.266   6.371  15.999  0.00  0.00    +0.000 C 
ATOM      7  C   UNL     1       6.483   5.092  16.415  0.00  0.00    +0.000 C 
ATOM      8  C   UNL     1       7.304   3.926  15.759  0.00  0.00    +0.000 C 
ATOM      9  C   UNL     1       5.087   4.732  15.810  0.00  0.00    +0.000 C 
ATOM     10  O   UNL     1       4.790   4.713  14.617  0.00  0.00    +0.000 OA
ATOM     11  N   UNL     1       4.307   4.190  16.850  0.00  0.00    +0.000 N 
ENDROOT
BRANCH   1  15
ATOM     12  C   UNL     1       2.104   8.076  19.129  0.00  0.00    +0.000 A 
ATOM     13  C   UNL     1       2.814   8.030  17.920  0.00  0.00    +0.000 A 
ATOM     14  C   UNL     1       3.646   6.950  17.600  0.00  0.00    +0.000 A 
ATOM     15  C   UNL     1       3.829   5.884  18.483  0.00  0.00    +0.000 A 
ATOM     16  C   UNL     1       3.136   5.924  19.693  0.00  0.00    +0.000 A 
ATOM     17  F   UNL     1       3.263   4.930  20.576  0.00  0.00    +0.000 F 
ATOM     18  C   UNL     1       2.299   7.006  20.007  0.00  0.00    +0.000 A 
BRANCH  12  22
ATOM     19  C   UNL     1      -0.684  11.293  19.970  0.00  0.00    +0.000 A 
ATOM     20  C   UNL     1      -0.425  10.886  18.658  0.00  0.00    +0.000 A 
ATOM     21  C   UNL     1       0.464   9.843  18.395  0.00  0.00    +0.000 A 
ATOM     22  C   UNL     1       1.180   9.209  19.420  0.00  0.00    +0.000 A 
ATOM     23  C   UNL     1       0.985   9.700  20.720  0.00  0.00    +0.000 A 
ATOM     24  C   UNL     1       0.066  10.731  21.011  0.00  0.00    +0.000 A 
BRANCH  19  26
ATOM     25  C   UNL     1      -2.771  12.227  19.370  0.00  0.00    +0.000 C 
ATOM     26  O   UNL     1      -1.633  12.242  20.234  0.00  0.00    +0.000 OA
ENDBRANCH  19  26
BRANCH  24  27
ATOM     27  O   UNL     1       0.031  11.021  22.350  0.00  0.00    +0.000 OA
ATOM     28  C   UNL     1      -0.904  10.344  23.176  0.00  0.00    +0.000 C 
ENDBRANCH  24  27
ENDBRANCH  12  22
ENDBRANCH   1  15
BRANCH  11  29
ATOM     29  C   UNL     1       3.416   3.036  16.776  0.00  0.00    +0.000 C 
BRANCH  29  30
ATOM     30  C   UNL     1       2.502   2.781  17.941  0.00  0.00    +0.000 A 
ATOM     31  C   UNL     1       2.952   1.990  19.006  0.00  0.00    +0.000 A 
ATOM     32  C   UNL     1       2.195   1.855  20.169  0.00  0.00    +0.000 A 
ATOM     33  C   UNL     1       0.972   2.511  20.283  0.00  0.00    +0.000 A 
ATOM     34  C   UNL     1       0.501   3.291  19.229  0.00  0.00    +0.000 A 
ATOM     35  C   UNL     1       1.261   3.425  18.061  0.00  0.00    +0.000 A 
ENDBRANCH  29  30
ENDBRANCH  11  29
TORSDOF 6
ENDMDL
MODEL 5
REMARK VINA RESULT:      -8.9      1.834      2.918
REMARK  Name = 
REMARK  9 active torsions:
REMARK  status: ('A' for Active; 'I' for Inactive)
REMARK    1  A    between atoms: C_1  and  O_2
REMARK    2  A    between atoms: O_2  and  C_3
REMARK    3  A    between atoms: C_6  and  C_7
REMARK    4  A    between atoms: C_10  and  C_11
REMARK    5  A    between atoms: C_17  and  C_18
REMARK    6  A    between atoms: N_21  and  C_22
REMARK    7  A    between atoms: C_22  and  C_23
REMARK    8  A    between atoms: C_33  and  O_34
REMARK    9  A    between atoms: O_34  and  C_35
REMARK                            x       y       z     vdW  Elec       q    Type
REMARK                         _______ _______ _______ _____ _____    ______ ____
ROOT
ATOM      1  C   UNL     1       3.383   4.549  17.568  0.00  0.00    +0.000 C 
ATOM      2  C   UNL     1       2.547   3.265  17.850  0.00  0.00    +0.000 C 
ATOM      3  C   UNL     1       1.099   3.645  17.963  0.00  0.00    +0.000 C 
ATOM      4  C   UNL     1       0.347   3.417  19.039  0.00  0.00    +0.000 C 
ATOM      5  C   UNL     1       0.816   2.641  20.213  0.00  0.00    +0.000 C 
ATOM      6  C   UNL     1       2.292   2.201  20.242  0.00  0.00    +0.000 C 
ATOM      7  C   UNL     1       3.242   2.558  19.062  0.00  0.00    +0.000 C 
ATOM      8  C   UNL     1       3.933   1.191  18.717  0.00  0.00    +0.000 C 
ATOM      9  C   UNL     1       4.541   3.405  19.261  0.00  0.00    +0.000 C 
ATOM     10  O   UNL     1       5.412   3.221  20.109  0.00  0.00    +0.000 OA
ATOM     11  N   UNL     1       4.663   4.254  18.143  0.00  0.00    +0.000 N 
ENDROOT
BRANCH   1  15
ATOM     12  C   UNL     1       1.892   8.324  19.242  0.00  0.00    +0.000 A 
ATOM     13  C   UNL     1       2.107   8.167  17.864  0.00  0.00    +0.000 A 
ATOM     14  C   UNL     1       2.580   6.962  17.331  0.00  0.00    +0.000 A 
ATOM     15  C   UNL     1       2.889   5.873  18.148  0.00  0.00    +0.000 A 
ATOM     16  C   UNL     1       2.689   6.022  19.520  0.00  0.00    +0.000 A 
ATOM     17  F   UNL     1       2.958   5.014  20.354  0.00  0.00    +0.000 F 
ATOM     18  C   UNL     1       2.208   7.229  20.051  0.00  0.00    +0.000 A 
BRANCH  12  22
ATOM     19  C   UNL     1       0.150  12.002  20.748  0.00  0.00    +0.000 A 
ATOM     20  C   UNL     1       0.688  11.933  19.459  0.00  0.00    +0.000 A 
ATOM     21  C   UNL     1       1.237  10.743  18.977  0.00  0.00    +0.000 A 
ATOM     22  C   UNL     1       1.331   9.597  19.778  0.00  0.00    +0.000 A 
ATOM     23  C   UNL     1       0.880   9.716  21.103  0.00  0.00    +0.000 A 
ATOM     24  C   UNL     1       0.291  10.899  21.599  0.00  0.00    +0.000 A 
BRANCH  19  26
ATOM     25  C   UNL     1       0.373  14.149  21.711  0.00  0.00    +0.000 C 
ATOM     26  O   UNL     1      -0.483  13.135  21.182  0.00  0.00    +0.000 OA
ENDBRANCH  19  26
BRANCH  24  27
ATOM     27  O   UNL     1      -0.095  10.767  22.907  0.00  0.00    +0.000 OA
ATOM     28  C   UNL     1      -0.200   9.466  23.465  0.00  0.00    +0.000 C 
ENDBRANCH  24  27
ENDBRANCH  12  22
ENDBRANCH   1  15
BRANCH  11  29
ATOM     29  C   UNL     1       5.880   4.572  17.404  0.00  0.00    +0.000 C 
BRANCH  29  30
ATOM     30  C   UNL     1       6.591   5.851  17.743  0.00  0.00    +0.000 A 
ATOM     31  C   UNL     1       7.591   5.842  18.725  0.00  0.00    +0.000 A 
ATOM     32  C   UNL     1       8.374   6.971  18.960  0.00  0.00    +0.000 A 
ATOM     33  C   UNL     1       8.168   8.130  18.216  0.00  0.00    +0.000 A 
ATOM     34  C   UNL     1       7.169   8.163  17.245  0.00  0.00    +0.000 A 
ATOM     35  C   UNL     1       6.382   7.029  17.009  0.00  0.00    +0.000 A 
ENDBRANCH  29  30
ENDBRANCH  11  29
TORSDOF 6
ENDMDL
MODEL 6
REMARK VINA RESULT:      -8.9      1.439      1.728
REMARK  Name = 
REMARK  9 active torsions:
REMARK  status: ('A' for Active; 'I' for Inactive)
REMARK    1  A    between atoms: C_1  and  O_2
REMARK    2  A    between atoms: O_2  and  C_3
REMARK    3  A    between atoms: C_6  and  C_7
REMARK    4  A    between atoms: C_10  and  C_11
REMARK    5  A    between atoms: C_17  and  C_18
REMARK    6  A    between atoms: N_21  and  C_22
REMARK    7  A    between atoms: C_22  and  C_23
REMARK    8  A    between atoms: C_33  and  O_34
REMARK    9  A    between atoms: O_34  and  C_35
REMARK                            x       y       z     vdW  Elec       q    Type
REMARK                         _______ _______ _______ _____ _____    ______ ____
ROOT
ATOM      1  C   UNL     1       3.506   4.784  17.842  0.00  0.00    +0.000 C 
ATOM      2  C   UNL     1       2.688   3.475  17.635  0.00  0.00    +0.000 C 
ATOM      3  C   UNL     1       1.227   3.819  17.598  0.00  0.00    +0.000 C 
ATOM      4  C   UNL     1       0.319   3.319  18.435  0.00  0.00    +0.000 C 
ATOM      5  C   UNL     1       0.619   2.260  19.428  0.00  0.00    +0.000 C 
ATOM      6  C   UNL     1       2.087   1.821  19.590  0.00  0.00    +0.000 C 
ATOM      7  C   UNL     1       3.203   2.471  18.721  0.00  0.00    +0.000 C 
ATOM      8  C   UNL     1       3.995   1.240  18.154  0.00  0.00    +0.000 C 
ATOM      9  C   UNL     1       4.416   3.231  19.349  0.00  0.00    +0.000 C 
ATOM     10  O   UNL     1       5.144   2.826  20.254  0.00  0.00    +0.000 OA
ATOM     11  N   UNL     1       4.685   4.344  18.528  0.00  0.00    +0.000 N 
ENDROOT
BRANCH   1  15
ATOM     12  C   UNL     1       1.610   7.991  20.166  0.00  0.00    +0.000 A 
ATOM     13  C   UNL     1       2.023   8.192  18.840  0.00  0.00    +0.000 A 
ATOM     14  C   UNL     1       2.625   7.169  18.099  0.00  0.00    +0.000 A 
ATOM     15  C   UNL     1       2.871   5.911  18.655  0.00  0.00    +0.000 A 
ATOM     16  C   UNL     1       2.474   5.704  19.976  0.00  0.00    +0.000 A 
ATOM     17  F   UNL     1       2.674   4.521  20.562  0.00  0.00    +0.000 F 
ATOM     18  C   UNL     1       1.865   6.731  20.714  0.00  0.00    +0.000 A 
BRANCH  12  22
ATOM     19  C   UNL     1      -0.304  11.168  22.418  0.00  0.00    +0.000 A 
ATOM     20  C   UNL     1      -0.344   9.843  22.862  0.00  0.00    +0.000 A 
ATOM     21  C   UNL     1       0.283   8.828  22.139  0.00  0.00    +0.000 A 
ATOM     22  C   UNL     1       0.918   9.079  20.914  0.00  0.00    +0.000 A 
ATOM     23  C   UNL     1       0.858  10.397  20.433  0.00  0.00    +0.000 A 
ATOM     24  C   UNL     1       0.258  11.444  21.165  0.00  0.00    +0.000 A 
BRANCH  19  26
ATOM     25  C   UNL     1      -2.253  12.237  23.221  0.00  0.00    +0.000 C 
ATOM     26  O   UNL     1      -0.827  12.178  23.180  0.00  0.00    +0.000 OA
ENDBRANCH  19  26
BRANCH  24  27
ATOM     27  O   UNL     1       0.346  12.642  20.507  0.00  0.00    +0.000 OA
ATOM     28  C   UNL     1       1.552  13.386  20.589  0.00  0.00    +0.000 C 
ENDBRANCH  24  27
ENDBRANCH  12  22
ENDBRANCH   1  15
BRANCH  11  29
ATOM     29  C   UNL     1       5.994   4.839  18.113  0.00  0.00    +0.000 C 
BRANCH  29  30
ATOM     30  C   UNL     1       6.371   4.691  16.667  0.00  0.00    +0.000 A 
ATOM     31  C   UNL     1       5.741   3.709  15.889  0.00  0.00    +0.000 A 
ATOM     32  C   UNL     1       5.952   3.639  14.513  0.00  0.00    +0.000 A 
ATOM     33  C   UNL     1       6.801   4.552  13.892  0.00  0.00    +0.000 A 
ATOM     34  C   UNL     1       7.448   5.526  14.650  0.00  0.00    +0.000 A 
ATOM     35  C   UNL     1       7.236   5.595  16.032  0.00  0.00    +0.000 A 
ENDBRANCH  29  30
ENDBRANCH  11  29
TORSDOF 6
ENDMDL
MODEL 7
REMARK VINA RESULT:      -8.8      1.620      2.717
REMARK  Name = 
REMARK  9 active torsions:
REMARK  status: ('A' for Active; 'I' for Inactive)
REMARK    1  A    between atoms: C_1  and  O_2
REMARK    2  A    between atoms: O_2  and  C_3
REMARK    3  A    between atoms: C_6  and  C_7
REMARK    4  A    between atoms: C_10  and  C_11
REMARK    5  A    between atoms: C_17  and  C_18
REMARK    6  A    between atoms: N_21  and  C_22
REMARK    7  A    between atoms: C_22  and  C_23
REMARK    8  A    between atoms: C_33  and  O_34
REMARK    9  A    between atoms: O_34  and  C_35
REMARK                            x       y       z     vdW  Elec       q    Type
REMARK                         _______ _______ _______ _____ _____    ______ ____
ROOT
ATOM      1  C   UNL     1       3.456   4.777  17.664  0.00  0.00    +0.000 C 
ATOM      2  C   UNL     1       2.737   3.453  18.059  0.00  0.00    +0.000 C 
ATOM      3  C   UNL     1       1.268   3.724  18.202  0.00  0.00    +0.000 C 
ATOM      4  C   UNL     1       0.572   3.510  19.319  0.00  0.00    +0.000 C 
ATOM      5  C   UNL     1       1.140   2.854  20.521  0.00  0.00    +0.000 C 
ATOM      6  C   UNL     1       2.648   2.536  20.522  0.00  0.00    +0.000 C 
ATOM      7  C   UNL     1       3.527   2.886  19.287  0.00  0.00    +0.000 C 
ATOM      8  C   UNL     1       4.314   1.558  19.005  0.00  0.00    +0.000 C 
ATOM      9  C   UNL     1       4.758   3.845  19.382  0.00  0.00    +0.000 C 
ATOM     10  O   UNL     1       5.668   3.788  20.206  0.00  0.00    +0.000 OA
ATOM     11  N   UNL     1       4.773   4.625  18.208  0.00  0.00    +0.000 N 
ENDROOT
BRANCH   1  15
ATOM     12  C   UNL     1       1.856   8.583  19.158  0.00  0.00    +0.000 A 
ATOM     13  C   UNL     1       1.733   7.396  19.896  0.00  0.00    +0.000 A 
ATOM     14  C   UNL     1       2.245   6.183  19.420  0.00  0.00    +0.000 A 
ATOM     15  C   UNL     1       2.874   6.094  18.176  0.00  0.00    +0.000 A 
ATOM     16  C   UNL     1       2.992   7.266  17.430  0.00  0.00    +0.000 A 
ATOM     17  F   UNL     1       3.590   7.247  16.236  0.00  0.00    +0.000 F 
ATOM     18  C   UNL     1       2.482   8.482  17.912  0.00  0.00    +0.000 A 
BRANCH  12  22
ATOM     19  C   UNL     1       0.287  12.319  20.712  0.00  0.00    +0.000 A 
ATOM     20  C   UNL     1       0.890  12.257  19.452  0.00  0.00    +0.000 A 
ATOM     21  C   UNL     1       1.383  11.050  18.953  0.00  0.00    +0.000 A 
ATOM     22  C   UNL     1       1.354   9.873  19.713  0.00  0.00    +0.000 A 
ATOM     23  C   UNL     1       0.840   9.976  21.016  0.00  0.00    +0.000 A 
ATOM     24  C   UNL     1       0.307  11.179  21.526  0.00  0.00    +0.000 A 
BRANCH  19  26
ATOM     25  C   UNL     1       0.614  14.441  21.701  0.00  0.00    +0.000 C 
ATOM     26  O   UNL     1      -0.289  13.477  21.156  0.00  0.00    +0.000 OA
ENDBRANCH  19  26
BRANCH  24  27
ATOM     27  O   UNL     1      -0.159  11.029  22.806  0.00  0.00    +0.000 OA
ATOM     28  C   UNL     1      -0.446   9.724  23.284  0.00  0.00    +0.000 C 
ENDBRANCH  24  27
ENDBRANCH  12  22
ENDBRANCH   1  15
BRANCH  11  29
ATOM     29  C   UNL     1       5.937   4.987  17.404  0.00  0.00    +0.000 C 
BRANCH  29  30
ATOM     30  C   UNL     1       6.722   6.199  17.817  0.00  0.00    +0.000 A 
ATOM     31  C   UNL     1       7.673   6.085  18.840  0.00  0.00    +0.000 A 
ATOM     32  C   UNL     1       8.525   7.145  19.148  0.00  0.00    +0.000 A 
ATOM     33  C   UNL     1       8.436   8.339  18.436  0.00  0.00    +0.000 A 
ATOM     34  C   UNL     1       7.487   8.476  17.425  0.00  0.00    +0.000 A 
ATOM     35  C   UNL     1       6.632   7.412  17.117  0.00  0.00    +0.000 A 
ENDBRANCH  29  30
ENDBRANCH  11  29
TORSDOF 6
ENDMDL
MODEL 8
REMARK VINA RESULT:      -8.7      0.824      1.516
REMARK  Name = 
REMARK  9 active torsions:
REMARK  status: ('A' for Active; 'I' for Inactive)
REMARK    1  A    between atoms: C_1  and  O_2
REMARK    2  A    between atoms: O_2  and  C_3
REMARK    3  A    between atoms: C_6  and  C_7
REMARK    4  A    between atoms: C_10  and  C_11
REMARK    5  A    between atoms: C_17  and  C_18
REMARK    6  A    between atoms: N_21  and  C_22
REMARK    7  A    between atoms: C_22  and  C_23
REMARK    8  A    between atoms: C_33  and  O_34
REMARK    9  A    between atoms: O_34  and  C_35
REMARK                            x       y       z     vdW  Elec       q    Type
REMARK                         _______ _______ _______ _____ _____    ______ ____
ROOT
ATOM      1  C   UNL     1       3.104   5.734  18.024  0.00  0.00    +0.000 C 
ATOM      2  C   UNL     1       2.679   4.313  18.500  0.00  0.00    +0.000 C 
ATOM      3  C   UNL     1       1.249   4.363  18.955  0.00  0.00    +0.000 C 
ATOM      4  C   UNL     1       0.842   4.033  20.181  0.00  0.00    +0.000 C 
ATOM      5  C   UNL     1       1.737   3.452  21.210  0.00  0.00    +0.000 C 
ATOM      6  C   UNL     1       3.241   3.359  20.886  0.00  0.00    +0.000 C 
ATOM      7  C   UNL     1       3.782   3.852  19.512  0.00  0.00    +0.000 C 
ATOM      8  C   UNL     1       4.672   2.659  19.015  0.00  0.00    +0.000 C 
ATOM      9  C   UNL     1       4.857   4.981  19.393  0.00  0.00    +0.000 C 
ATOM     10  O   UNL     1       5.919   5.047  20.008  0.00  0.00    +0.000 OA
ATOM     11  N   UNL     1       4.514   5.770  18.277  0.00  0.00    +0.000 N 
ENDROOT
BRANCH   1  15
ATOM     12  C   UNL     1       1.333   9.243  19.981  0.00  0.00    +0.000 A 
ATOM     13  C   UNL     1       1.563   8.050  20.683  0.00  0.00    +0.000 A 
ATOM     14  C   UNL     1       2.130   6.932  20.059  0.00  0.00    +0.000 A 
ATOM     15  C   UNL     1       2.463   6.943  18.703  0.00  0.00    +0.000 A 
ATOM     16  C   UNL     1       2.229   8.121  17.993  0.00  0.00    +0.000 A 
ATOM     17  F   UNL     1       2.534   8.197  16.695  0.00  0.00    +0.000 F 
ATOM     18  C   UNL     1       1.666   9.242  18.623  0.00  0.00    +0.000 A 
BRANCH  12  22
ATOM     19  C   UNL     1      -0.347  12.738  21.927  0.00  0.00    +0.000 A 
ATOM     20  C   UNL     1       0.663  12.861  20.968  0.00  0.00    +0.000 A 
ATOM     21  C   UNL     1       1.191  11.734  20.337  0.00  0.00    +0.000 A 
ATOM     22  C   UNL     1       0.783  10.438  20.683  0.00  0.00    +0.000 A 
ATOM     23  C   UNL     1      -0.155  10.329  21.721  0.00  0.00    +0.000 A 
ATOM     24  C   UNL     1      -0.726  11.457  22.348  0.00  0.00    +0.000 A 
BRANCH  19  26
ATOM     25  C   UNL     1      -0.053  14.930  22.763  0.00  0.00    +0.000 C 
ATOM     26  O   UNL     1      -0.938  13.848  22.467  0.00  0.00    +0.000 OA
ENDBRANCH  19  26
BRANCH  24  27
ATOM     27  O   UNL     1      -1.634  11.102  23.311  0.00  0.00    +0.000 OA
ATOM     28  C   UNL     1      -2.813  11.876  23.463  0.00  0.00    +0.000 C 
ENDBRANCH  24  27
ENDBRANCH  12  22
ENDBRANCH   1  15
BRANCH  11  29
ATOM     29  C   UNL     1       5.419   6.310  17.267  0.00  0.00    +0.000 C 
BRANCH  29  30
ATOM     30  C   UNL     1       5.802   5.417  16.122  0.00  0.00    +0.000 A 
ATOM     31  C   UNL     1       4.840   4.566  15.562  0.00  0.00    +0.000 A 
ATOM     32  C   UNL     1       5.113   3.836  14.407  0.00  0.00    +0.000 A 
ATOM     33  C   UNL     1       6.358   3.945  13.792  0.00  0.00    +0.000 A 
ATOM     34  C   UNL     1       7.333   4.775  14.341  0.00  0.00    +0.000 A 
ATOM     35  C   UNL     1       7.058   5.508  15.502  0.00  0.00    +0.000 A 
ENDBRANCH  29  30
ENDBRANCH  11  29
TORSDOF 6
ENDMDL
MODEL 9
REMARK VINA RESULT:      -8.7      1.687      2.453
REMARK  Name = 
REMARK  9 active torsions:
REMARK  status: ('A' for Active; 'I' for Inactive)
REMARK    1  A    between atoms: C_1  and  O_2
REMARK    2  A    between atoms: O_2  and  C_3
REMARK    3  A    between atoms: C_6  and  C_7
REMARK    4  A    between atoms: C_10  and  C_11
REMARK    5  A    between atoms: C_17  and  C_18
REMARK    6  A    between atoms: N_21  and  C_22
REMARK    7  A    between atoms: C_22  and  C_23
REMARK    8  A    between atoms: C_33  and  O_34
REMARK    9  A    between atoms: O_34  and  C_35
REMARK                            x       y       z     vdW  Elec       q    Type
REMARK                         _______ _______ _______ _____ _____    ______ ____
ROOT
ATOM      1  C   UNL     1       3.238   4.667  17.502  0.00  0.00    +0.000 C 
ATOM      2  C   UNL     1       2.469   3.335  17.750  0.00  0.00    +0.000 C 
ATOM      3  C   UNL     1       1.019   3.651  17.983  0.00  0.00    +0.000 C 
ATOM      4  C   UNL     1       0.350   3.324  19.088  0.00  0.00    +0.000 C 
ATOM      5  C   UNL     1       0.924   2.492  20.173  0.00  0.00    +0.000 C 
ATOM      6  C   UNL     1       2.413   2.109  20.076  0.00  0.00    +0.000 C 
ATOM      7  C   UNL     1       3.268   2.578  18.864  0.00  0.00    +0.000 C 
ATOM      8  C   UNL     1       3.980   1.265  18.383  0.00  0.00    +0.000 C 
ATOM      9  C   UNL     1       4.547   3.461  19.034  0.00  0.00    +0.000 C 
ATOM     10  O   UNL     1       5.480   3.255  19.809  0.00  0.00    +0.000 OA
ATOM     11  N   UNL     1       4.563   4.385  17.971  0.00  0.00    +0.000 N 
ENDROOT
BRANCH   1  15
ATOM     12  C   UNL     1       1.735   8.263  19.523  0.00  0.00    +0.000 A 
ATOM     13  C   UNL     1       1.840   8.197  18.125  0.00  0.00    +0.000 A 
ATOM     14  C   UNL     1       2.318   7.050  17.481  0.00  0.00    +0.000 A 
ATOM     15  C   UNL     1       2.739   5.930  18.202  0.00  0.00    +0.000 A 
ATOM     16  C   UNL     1       2.648   5.988  19.592  0.00  0.00    +0.000 A 
ATOM     17  F   UNL     1       3.028   4.947  20.337  0.00  0.00    +0.000 F 
ATOM     18  C   UNL     1       2.163   7.139  20.234  0.00  0.00    +0.000 A 
BRANCH  12  22
ATOM     19  C   UNL     1       0.192  11.803  21.503  0.00  0.00    +0.000 A 
ATOM     20  C   UNL     1       0.120  10.546  22.111  0.00  0.00    +0.000 A 
ATOM     21  C   UNL     1       0.628   9.413  21.474  0.00  0.00    +0.000 A 
ATOM     22  C   UNL     1       1.168   9.474  20.181  0.00  0.00    +0.000 A 
ATOM     23  C   UNL     1       1.136  10.725  19.545  0.00  0.00    +0.000 A 
ATOM     24  C   UNL     1       0.658  11.889  20.185  0.00  0.00    +0.000 A 
BRANCH  19  26
ATOM     25  C   UNL     1      -1.622  13.096  22.293  0.00  0.00    +0.000 C 
ATOM     26  O   UNL     1      -0.209  12.928  22.171  0.00  0.00    +0.000 OA
ENDBRANCH  19  26
BRANCH  24  27
ATOM     27  O   UNL     1       0.752  12.992  19.376  0.00  0.00    +0.000 OA
ATOM     28  C   UNL     1      -0.350  13.335  18.550  0.00  0.00    +0.000 C 
ENDBRANCH  24  27
ENDBRANCH  12  22
ENDBRANCH   1  15
BRANCH  11  29
ATOM     29  C   UNL     1       5.717   4.798  17.177  0.00  0.00    +0.000 C 
BRANCH  29  30
ATOM     30  C   UNL     1       6.535   5.952  17.680  0.00  0.00    +0.000 A 
ATOM     31  C   UNL     1       7.483   5.735  18.690  0.00  0.00    +0.000 A 
ATOM     32  C   UNL     1       8.364   6.744  19.076  0.00  0.00    +0.000 A 
ATOM     33  C   UNL     1       8.308   7.990  18.457  0.00  0.00    +0.000 A 
ATOM     34  C   UNL     1       7.364   8.231  17.462  0.00  0.00    +0.000 A 
ATOM     35  C   UNL     1       6.479   7.217  17.075  0.00  0.00    +0.000 A 
ENDBRANCH  29  30
ENDBRANCH  11  29
TORSDOF 6
ENDMDL
