MODEL 1
REMARK VINA RESULT:      -8.0      0.000      0.000
REMARK  Name = 
REMARK  6 active torsions:
REMARK  status: ('A' for Active; 'I' for Inactive)
REMARK    1  A    between atoms: C_1  and  C_2
REMARK    2  A    between atoms: C_2  and  C_3
REMARK    3  A    between atoms: C_2  and  N_11
REMARK    4  A    between atoms: C_14  and  N_15
REMARK    5  A    between atoms: N_15  and  S_16
REMARK    6  A    between atoms: S_16  and  C_19
REMARK                            x       y       z     vdW  Elec       q    Type
REMARK                         _______ _______ _______ _____ _____    ______ ____
ROOT
ATOM      1  N   UNL     1       2.651   6.916  20.076  0.00  0.00    +0.000 NA
ATOM      2  H   UNL     1       3.366   7.045  20.792  0.00  0.00    +0.000 HD
ENDROOT
BRANCH   1   6
ATOM      3  N   UNL     1       0.839  10.013  20.347  0.00  0.00    +0.000 N 
ATOM      4  C   UNL     1       0.297   9.371  21.522  0.00  0.00    +0.000 C 
ATOM      5  C   UNL     1       1.180   8.137  21.663  0.00  0.00    +0.000 C 
ATOM      6  C   UNL     1       1.433   7.727  20.209  0.00  0.00    +0.000 C 
ATOM      7  C   UNL     1       1.450   9.079  19.524  0.00  0.00    +0.000 C 
ATOM      8  O   UNL     1       1.846   9.327  18.400  0.00  0.00    +0.000 OA
BRANCH   3  10
ATOM      9  C   UNL     1      -1.234  11.102  19.543  0.00  0.00    +0.000 C 
ATOM     10  C   UNL     1       0.285  11.227  19.725  0.00  0.00    +0.000 C 
BRANCH  10  11
ATOM     11  C   UNL     1       0.661  12.495  20.513  0.00  0.00    +0.000 C 
ATOM     12  O   UNL     1       0.472  12.556  21.732  0.00  0.00    +0.000 OA
ATOM     13  N   UNL     1       1.307  13.516  19.833  0.00  0.00    +0.000 N 
ATOM     14  C   UNL     1       1.667  13.534  18.410  0.00  0.00    +0.000 C 
ATOM     15  C   UNL     1       3.192  13.607  18.266  0.00  0.00    +0.000 C 
ATOM     16  O   UNL     1       3.723  14.740  18.972  0.00  0.00    +0.000 OA
ATOM     17  C   UNL     1       3.389  14.688  20.371  0.00  0.00    +0.000 C 
ATOM     18  C   UNL     1       1.870  14.641  20.580  0.00  0.00    +0.000 C 
ENDBRANCH  10  11
ENDBRANCH   3  10
ENDBRANCH   1   6
BRANCH   1  19
ATOM     19  S   UNL     1       2.439   5.247  19.821  0.00  0.00    +0.000 S 
ATOM     20  O   UNL     1       3.052   4.620  20.975  0.00  0.00    +0.000 OA
ATOM     21  O   UNL     1       1.052   5.012  19.500  0.00  0.00    +0.000 OA
BRANCH  19  22
ATOM     22  C   UNL     1       3.473   4.864  18.431  0.00  0.00    +0.000 A 
ATOM     23  C   UNL     1       3.246   3.689  17.717  0.00  0.00    +0.000 A 
ATOM     24  C   UNL     1       4.068   3.377  16.634  0.00  0.00    +0.000 A 
ATOM     25  C   UNL     1       5.130   4.223  16.261  0.00  0.00    +0.000 A 
ATOM     26  C   UNL     1       5.970   3.895  15.195  0.00  0.00    +0.000 A 
ATOM     27  C   UNL     1       7.018   4.743  14.889  0.00  0.00    +0.000 A 
ATOM     28  N   UNL     1       7.292   5.878  15.562  0.00  0.00    +0.000 NA
ATOM     29  C   UNL     1       6.477   6.199  16.587  0.00  0.00    +0.000 A 
ATOM     30  N   UNL     1       6.860   7.347  17.284  0.00  0.00    +0.000 N 
ATOM     31  C   UNL     1       5.367   5.416  16.980  0.00  0.00    +0.000 A 
ATOM     32  C   UNL     1       4.499   5.738  18.050  0.00  0.00    +0.000 A 
ATOM     33  H   UNL     1       7.649   7.748  16.784  0.00  0.00    +0.000 HD
ATOM     34  H   UNL     1       6.096   8.000  17.395  0.00  0.00    +0.000 HD
ENDBRANCH  19  22
ENDBRANCH   1  19
TORSDOF 5
ENDMDL
MODEL 2
REMARK VINA RESULT:      -7.9      1.994      2.653
REMARK  Name = 
REMARK  6 active torsions:
REMARK  status: ('A' for Active; 'I' for Inactive)
REMARK    1  A    between atoms: C_1  and  C_2
REMARK    2  A    between atoms: C_2  and  C_3
REMARK    3  A    between atoms: C_2  and  N_11
REMARK    4  A    between atoms: C_14  and  N_15
REMARK    5  A    between atoms: N_15  and  S_16
REMARK    6  A    between atoms: S_16  and  C_19
REMARK                            x       y       z     vdW  Elec       q    Type
REMARK                         _______ _______ _______ _____ _____    ______ ____
ROOT
ATOM      1  N   UNL     1       2.170   5.827  21.187  0.00  0.00    +0.000 NA
ATOM      2  H   UNL     1       2.239   5.774  22.204  0.00  0.00    +0.000 HD
ENDROOT
BRANCH   1   6
ATOM      3  N   UNL     1       1.319   9.102  19.961  0.00  0.00    +0.000 N 
ATOM      4  C   UNL     1       0.288   9.001  20.969  0.00  0.00    +0.000 C 
ATOM      5  C   UNL     1       0.699   7.751  21.739  0.00  0.00    +0.000 C 
ATOM      6  C   UNL     1       1.252   6.837  20.642  0.00  0.00    +0.000 C 
ATOM      7  C   UNL     1       1.859   7.851  19.696  0.00  0.00    +0.000 C 
ATOM      8  O   UNL     1       2.629   7.632  18.778  0.00  0.00    +0.000 OA
BRANCH   3  10
ATOM      9  C   UNL     1       1.952   9.527  17.606  0.00  0.00    +0.000 C 
ATOM     10  C   UNL     1       1.348  10.111  18.891  0.00  0.00    +0.000 C 
BRANCH  10  11
ATOM     11  C   UNL     1      -0.045  10.718  18.641  0.00  0.00    +0.000 C 
ATOM     12  O   UNL     1      -0.882  10.111  17.966  0.00  0.00    +0.000 OA
ATOM     13  N   UNL     1      -0.360  11.909  19.276  0.00  0.00    +0.000 N 
ATOM     14  C   UNL     1       0.509  12.685  20.169  0.00  0.00    +0.000 C 
ATOM     15  C   UNL     1      -0.114  12.744  21.569  0.00  0.00    +0.000 C 
ATOM     16  O   UNL     1      -1.448  13.275  21.518  0.00  0.00    +0.000 OA
ATOM     17  C   UNL     1      -2.294  12.482  20.665  0.00  0.00    +0.000 C 
ATOM     18  C   UNL     1      -1.735  12.409  19.238  0.00  0.00    +0.000 C 
ENDBRANCH  10  11
ENDBRANCH   3  10
ENDBRANCH   1   6
BRANCH   1  19
ATOM     19  S   UNL     1       2.027   4.247  20.573  0.00  0.00    +0.000 S 
ATOM     20  O   UNL     1       2.627   3.404  21.589  0.00  0.00    +0.000 OA
ATOM     21  O   UNL     1       0.661   4.046  20.157  0.00  0.00    +0.000 OA
BRANCH  19  22
ATOM     22  C   UNL     1       3.118   4.202  19.174  0.00  0.00    +0.000 A 
ATOM     23  C   UNL     1       2.638   3.737  17.952  0.00  0.00    +0.000 A 
ATOM     24  C   UNL     1       3.497   3.685  16.854  0.00  0.00    +0.000 A 
ATOM     25  C   UNL     1       4.844   4.081  16.967  0.00  0.00    +0.000 A 
ATOM     26  C   UNL     1       5.711   4.001  15.876  0.00  0.00    +0.000 A 
ATOM     27  C   UNL     1       7.032   4.372  16.046  0.00  0.00    +0.000 A 
ATOM     28  N   UNL     1       7.548   4.806  17.213  0.00  0.00    +0.000 NA
ATOM     29  C   UNL     1       6.710   4.891  18.266  0.00  0.00    +0.000 A 
ATOM     30  N   UNL     1       7.327   5.278  19.457  0.00  0.00    +0.000 N 
ATOM     31  C   UNL     1       5.339   4.554  18.203  0.00  0.00    +0.000 A 
ATOM     32  C   UNL     1       4.444   4.638  19.296  0.00  0.00    +0.000 A 
ATOM     33  H   UNL     1       8.291   5.507  19.232  0.00  0.00    +0.000 HD
ATOM     34  H   UNL     1       6.841   6.042  19.907  0.00  0.00    +0.000 HD
ENDBRANCH  19  22
ENDBRANCH   1  19
TORSDOF 5
ENDMDL
MODEL 3
REMARK VINA RESULT:      -7.9      3.669      5.834
REMARK  Name = 
REMARK  6 active torsions:
REMARK  status: ('A' for Active; 'I' for Inactive)
REMARK    1  A    between atoms: C_1  and  C_2
REMARK    2  A    between atoms: C_2  and  C_3
REMARK    3  A    between atoms: C_2  and  N_11
REMARK    4  A    between atoms: C_14  and  N_15
REMARK    5  A    between atoms: N_15  and  S_16
REMARK    6  A    between atoms: S_16  and  C_19
REMARK                            x       y       z     vdW  Elec       q    Type
REMARK                         _______ _______ _______ _____ _____    ______ ____
ROOT
ATOM      1  N   UNL     1       0.288  10.152  20.570  0.00  0.00    +0.000 NA
ATOM      2  H   UNL     1       0.677  10.003  19.639  0.00  0.00    +0.000 HD
ENDROOT
BRANCH   1   6
ATOM      3  N   UNL     1      -0.723  13.405  21.730  0.00  0.00    +0.000 N 
ATOM      4  C   UNL     1       0.354  13.836  20.869  0.00  0.00    +0.000 C 
ATOM      5  C   UNL     1       0.706  12.558  20.115  0.00  0.00    +0.000 C 
ATOM      6  C   UNL     1       0.520  11.470  21.177  0.00  0.00    +0.000 C 
ATOM      7  C   UNL     1      -0.623  12.046  21.987  0.00  0.00    +0.000 C 
ATOM      8  O   UNL     1      -1.308  11.463  22.808  0.00  0.00    +0.000 OA
BRANCH   3  10
ATOM      9  C   UNL     1      -0.563  15.528  22.993  0.00  0.00    +0.000 C 
ATOM     10  C   UNL     1      -1.381  14.254  22.736  0.00  0.00    +0.000 C 
BRANCH  10  11
ATOM     11  C   UNL     1      -2.835  14.579  22.348  0.00  0.00    +0.000 C 
ATOM     12  O   UNL     1      -3.103  15.006  21.221  0.00  0.00    +0.000 OA
ATOM     13  N   UNL     1      -3.834  14.284  23.263  0.00  0.00    +0.000 N 
ATOM     14  C   UNL     1      -3.659  13.698  24.596  0.00  0.00    +0.000 C 
ATOM     15  C   UNL     1      -4.360  12.335  24.655  0.00  0.00    +0.000 C 
ATOM     16  O   UNL     1      -5.746  12.452  24.294  0.00  0.00    +0.000 OA
ATOM     17  C   UNL     1      -5.897  12.997  22.970  0.00  0.00    +0.000 C 
ATOM     18  C   UNL     1      -5.237  14.377  22.857  0.00  0.00    +0.000 C 
ENDBRANCH  10  11
ENDBRANCH   3  10
ENDBRANCH   1   6
BRANCH   1  19
ATOM     19  S   UNL     1       0.642   8.791  21.528  0.00  0.00    +0.000 S 
ATOM     20  O   UNL     1       1.625   9.263  22.483  0.00  0.00    +0.000 OA
ATOM     21  O   UNL     1      -0.604   8.214  21.971  0.00  0.00    +0.000 OA
BRANCH  19  22
ATOM     22  C   UNL     1       1.492   7.677  20.440  0.00  0.00    +0.000 A 
ATOM     23  C   UNL     1       1.991   8.155  19.231  0.00  0.00    +0.000 A 
ATOM     24  C   UNL     1       2.646   7.279  18.365  0.00  0.00    +0.000 A 
ATOM     25  C   UNL     1       2.796   5.916  18.690  0.00  0.00    +0.000 A 
ATOM     26  C   UNL     1       3.425   5.033  17.810  0.00  0.00    +0.000 A 
ATOM     27  C   UNL     1       3.520   3.699  18.161  0.00  0.00    +0.000 A 
ATOM     28  N   UNL     1       3.034   3.184  19.308  0.00  0.00    +0.000 NA
ATOM     29  C   UNL     1       2.432   4.038  20.161  0.00  0.00    +0.000 A 
ATOM     30  N   UNL     1       1.889   3.427  21.293  0.00  0.00    +0.000 N 
ATOM     31  C   UNL     1       2.293   5.423  19.914  0.00  0.00    +0.000 A 
ATOM     32  C   UNL     1       1.668   6.334  20.798  0.00  0.00    +0.000 A 
ATOM     33  H   UNL     1       2.161   2.448  21.261  0.00  0.00    +0.000 HD
ATOM     34  H   UNL     1       2.177   3.883  22.148  0.00  0.00    +0.000 HD
ENDBRANCH  19  22
ENDBRANCH   1  19
TORSDOF 5
ENDMDL
MODEL 4
REMARK VINA RESULT:      -7.9      3.015      9.137
REMARK  Name = 
REMARK  6 active torsions:
REMARK  status: ('A' for Active; 'I' for Inactive)
REMARK    1  A    between atoms: C_1  and  C_2
REMARK    2  A    between atoms: C_2  and  C_3
REMARK    3  A    between atoms: C_2  and  N_11
REMARK    4  A    between atoms: C_14  and  N_15
REMARK    5  A    between atoms: N_15  and  S_16
REMARK    6  A    between atoms: S_16  and  C_19
REMARK                            x       y       z     vdW  Elec       q    Type
REMARK                         _______ _______ _______ _____ _____    ______ ____
ROOT
ATOM      1  N   UNL     1       1.503   8.627  18.348  0.00  0.00    +0.000 NA
ATOM      2  H   UNL     1       0.682   8.250  17.874  0.00  0.00    +0.000 HD
ENDROOT
BRANCH   1   6
ATOM      3  N   UNL     1       3.064   5.486  19.154  0.00  0.00    +0.000 N 
ATOM      4  C   UNL     1       2.205   5.576  20.313  0.00  0.00    +0.000 C 
ATOM      5  C   UNL     1       1.298   6.751  19.963  0.00  0.00    +0.000 C 
ATOM      6  C   UNL     1       2.240   7.704  19.221  0.00  0.00    +0.000 C 
ATOM      7  C   UNL     1       3.163   6.721  18.530  0.00  0.00    +0.000 C 
ATOM      8  O   UNL     1       3.946   6.959  17.628  0.00  0.00    +0.000 OA
BRANCH   3  10
ATOM      9  C   UNL     1       4.056   3.388  20.014  0.00  0.00    +0.000 C 
ATOM     10  C   UNL     1       4.188   4.547  19.017  0.00  0.00    +0.000 C 
BRANCH  10  11
ATOM     11  C   UNL     1       4.336   4.040  17.571  0.00  0.00    +0.000 C 
ATOM     12  O   UNL     1       3.352   3.633  16.944  0.00  0.00    +0.000 OA
ATOM     13  N   UNL     1       5.579   4.150  16.966  0.00  0.00    +0.000 N 
ATOM     14  C   UNL     1       6.803   4.693  17.567  0.00  0.00    +0.000 C 
ATOM     15  C   UNL     1       7.247   5.939  16.793  0.00  0.00    +0.000 C 
ATOM     16  O   UNL     1       7.414   5.647  15.396  0.00  0.00    +0.000 OA
ATOM     17  C   UNL     1       6.194   5.148  14.817  0.00  0.00    +0.000 C 
ATOM     18  C   UNL     1       5.714   3.881  15.534  0.00  0.00    +0.000 C 
ENDBRANCH  10  11
ENDBRANCH   3  10
ENDBRANCH   1   6
BRANCH   1  19
ATOM     19  S   UNL     1       1.100  10.146  19.000  0.00  0.00    +0.000 S 
ATOM     20  O   UNL     1       1.114   9.942  20.435  0.00  0.00    +0.000 OA
ATOM     21  O   UNL     1       1.944  11.141  18.385  0.00  0.00    +0.000 OA
BRANCH  19  22
ATOM     22  C   UNL     1      -0.596  10.401  18.545  0.00  0.00    +0.000 A 
ATOM     23  C   UNL     1      -1.099   9.769  17.411  0.00  0.00    +0.000 A 
ATOM     24  C   UNL     1      -2.427   9.980  17.041  0.00  0.00    +0.000 A 
ATOM     25  C   UNL     1      -3.262  10.834  17.789  0.00  0.00    +0.000 A 
ATOM     26  C   UNL     1      -4.582  11.069  17.401  0.00  0.00    +0.000 A 
ATOM     27  C   UNL     1      -5.351  11.940  18.151  0.00  0.00    +0.000 A 
ATOM     28  N   UNL     1      -4.904  12.593  19.242  0.00  0.00    +0.000 NA
ATOM     29  C   UNL     1      -3.630  12.362  19.621  0.00  0.00    +0.000 A 
ATOM     30  N   UNL     1      -3.212  13.123  20.714  0.00  0.00    +0.000 N 
ATOM     31  C   UNL     1      -2.759  11.480  18.941  0.00  0.00    +0.000 A 
ATOM     32  C   UNL     1      -1.422  11.222  19.324  0.00  0.00    +0.000 A 
ATOM     33  H   UNL     1      -4.024  13.635  21.047  0.00  0.00    +0.000 HD
ATOM     34  H   UNL     1      -2.787  12.556  21.435  0.00  0.00    +0.000 HD
ENDBRANCH  19  22
ENDBRANCH   1  19
TORSDOF 5
ENDMDL
MODEL 5
REMARK VINA RESULT:      -7.8      2.505      8.589
REMARK  Name = 
REMARK  6 active torsions:
REMARK  status: ('A' for Active; 'I' for Inactive)
REMARK    1  A    between atoms: C_1  and  C_2
REMARK    2  A    between atoms: C_2  and  C_3
REMARK    3  A    between atoms: C_2  and  N_11
REMARK    4  A    between atoms: C_14  and  N_15
REMARK    5  A    between atoms: N_15  and  S_16
REMARK    6  A    between atoms: S_16  and  C_19
REMARK                            x       y       z     vdW  Elec       q    Type
REMARK                         _______ _______ _______ _____ _____    ______ ____
ROOT
ATOM      1  N   UNL     1       1.289   7.588  20.097  0.00  0.00    +0.000 NA
ATOM      2  H   UNL     1       0.541   7.416  19.424  0.00  0.00    +0.000 HD
ENDROOT
BRANCH   1   6
ATOM      3  N   UNL     1       3.128   4.538  19.587  0.00  0.00    +0.000 N 
ATOM      4  C   UNL     1       2.176   4.028  20.547  0.00  0.00    +0.000 C 
ATOM      5  C   UNL     1       1.171   5.171  20.655  0.00  0.00    +0.000 C 
ATOM      6  C   UNL     1       2.055   6.417  20.544  0.00  0.00    +0.000 C 
ATOM      7  C   UNL     1       3.136   5.925  19.604  0.00  0.00    +0.000 C 
ATOM      8  O   UNL     1       3.956   6.601  19.010  0.00  0.00    +0.000 OA
BRANCH   3  10
ATOM      9  C   UNL     1       4.492   2.496  19.908  0.00  0.00    +0.000 C 
ATOM     10  C   UNL     1       4.360   3.843  19.181  0.00  0.00    +0.000 C 
BRANCH  10  11
ATOM     11  C   UNL     1       4.445   3.676  17.653  0.00  0.00    +0.000 C 
ATOM     12  O   UNL     1       3.451   3.340  17.002  0.00  0.00    +0.000 OA
ATOM     13  N   UNL     1       5.636   4.011  17.027  0.00  0.00    +0.000 N 
ATOM     14  C   UNL     1       6.859   4.503  17.671  0.00  0.00    +0.000 C 
ATOM     15  C   UNL     1       7.170   5.919  17.172  0.00  0.00    +0.000 C 
ATOM     16  O   UNL     1       7.263   5.952  15.738  0.00  0.00    +0.000 OA
ATOM     17  C   UNL     1       6.043   5.498  15.125  0.00  0.00    +0.000 C 
ATOM     18  C   UNL     1       5.694   4.072  15.566  0.00  0.00    +0.000 C 
ENDBRANCH  10  11
ENDBRANCH   3  10
ENDBRANCH   1   6
BRANCH   1  19
ATOM     19  S   UNL     1       0.697   8.628  21.307  0.00  0.00    +0.000 S 
ATOM     20  O   UNL     1      -0.575   8.050  21.694  0.00  0.00    +0.000 OA
ATOM     21  O   UNL     1       1.743   8.832  22.278  0.00  0.00    +0.000 OA
BRANCH  19  22
ATOM     22  C   UNL     1       0.324  10.144  20.464  0.00  0.00    +0.000 A 
ATOM     23  C   UNL     1      -0.680  10.157  19.499  0.00  0.00    +0.000 A 
ATOM     24  C   UNL     1      -0.964  11.343  18.823  0.00  0.00    +0.000 A 
ATOM     25  C   UNL     1      -0.241  12.522  19.090  0.00  0.00    +0.000 A 
ATOM     26  C   UNL     1      -0.506  13.702  18.392  0.00  0.00    +0.000 A 
ATOM     27  C   UNL     1       0.253  14.824  18.669  0.00  0.00    +0.000 A 
ATOM     28  N   UNL     1       1.249  14.855  19.576  0.00  0.00    +0.000 NA
ATOM     29  C   UNL     1       1.501  13.718  20.256  0.00  0.00    +0.000 A 
ATOM     30  N   UNL     1       2.590  13.802  21.126  0.00  0.00    +0.000 N 
ATOM     31  C   UNL     1       0.780  12.517  20.067  0.00  0.00    +0.000 A 
ATOM     32  C   UNL     1       1.027  11.316  20.772  0.00  0.00    +0.000 A 
ATOM     33  H   UNL     1       2.904  14.768  21.116  0.00  0.00    +0.000 HD
ATOM     34  H   UNL     1       2.362  13.475  22.055  0.00  0.00    +0.000 HD
ENDBRANCH  19  22
ENDBRANCH   1  19
TORSDOF 5
ENDMDL
MODEL 6
REMARK VINA RESULT:      -7.8      2.846      9.596
REMARK  Name = 
REMARK  6 active torsions:
REMARK  status: ('A' for Active; 'I' for Inactive)
REMARK    1  A    between atoms: C_1  and  C_2
REMARK    2  A    between atoms: C_2  and  C_3
REMARK    3  A    between atoms: C_2  and  N_11
REMARK    4  A    between atoms: C_14  and  N_15
REMARK    5  A    between atoms: N_15  and  S_16
REMARK    6  A    between atoms: S_16  and  C_19
REMARK                            x       y       z     vdW  Elec       q    Type
REMARK                         _______ _______ _______ _____ _____    ______ ____
ROOT
ATOM      1  N   UNL     1       2.041   8.628  18.918  0.00  0.00    +0.000 NA
ATOM      2  H   UNL     1       2.730   8.962  19.592  0.00  0.00    +0.000 HD
ENDROOT
BRANCH   1   6
ATOM      3  N   UNL     1       3.911   5.820  17.664  0.00  0.00    +0.000 N 
ATOM      4  C   UNL     1       4.476   6.828  16.797  0.00  0.00    +0.000 C 
ATOM      5  C   UNL     1       3.944   8.122  17.404  0.00  0.00    +0.000 C 
ATOM      6  C   UNL     1       2.535   7.735  17.861  0.00  0.00    +0.000 C 
ATOM      7  C   UNL     1       2.743   6.286  18.250  0.00  0.00    +0.000 C 
ATOM      8  O   UNL     1       1.987   5.583  18.897  0.00  0.00    +0.000 OA
BRANCH   3  10
ATOM      9  C   UNL     1       5.019   4.070  16.309  0.00  0.00    +0.000 C 
ATOM     10  C   UNL     1       4.056   4.369  17.467  0.00  0.00    +0.000 C 
BRANCH  10  11
ATOM     11  C   UNL     1       4.484   3.656  18.762  0.00  0.00    +0.000 C 
ATOM     12  O   UNL     1       5.534   3.968  19.333  0.00  0.00    +0.000 OA
ATOM     13  N   UNL     1       3.612   2.731  19.315  0.00  0.00    +0.000 N 
ATOM     14  C   UNL     1       2.302   2.334  18.787  0.00  0.00    +0.000 C 
ATOM     15  C   UNL     1       1.205   2.717  19.787  0.00  0.00    +0.000 C 
ATOM     16  O   UNL     1       1.463   2.144  21.080  0.00  0.00    +0.000 OA
ATOM     17  C   UNL     1       2.736   2.572  21.597  0.00  0.00    +0.000 C 
ATOM     18  C   UNL     1       3.879   2.190  20.648  0.00  0.00    +0.000 C 
ENDBRANCH  10  11
ENDBRANCH   3  10
ENDBRANCH   1   6
BRANCH   1  19
ATOM     19  S   UNL     1       1.083   9.945  18.427  0.00  0.00    +0.000 S 
ATOM     20  O   UNL     1       2.035  10.994  18.119  0.00  0.00    +0.000 OA
ATOM     21  O   UNL     1       0.149   9.478  17.432  0.00  0.00    +0.000 OA
BRANCH  19  22
ATOM     22  C   UNL     1       0.227  10.458  19.894  0.00  0.00    +0.000 A 
ATOM     23  C   UNL     1       0.602   9.921  21.123  0.00  0.00    +0.000 A 
ATOM     24  C   UNL     1      -0.080  10.310  22.276  0.00  0.00    +0.000 A 
ATOM     25  C   UNL     1      -1.149  11.225  22.214  0.00  0.00    +0.000 A 
ATOM     26  C   UNL     1      -1.850  11.591  23.364  0.00  0.00    +0.000 A 
ATOM     27  C   UNL     1      -2.912  12.469  23.245  0.00  0.00    +0.000 A 
ATOM     28  N   UNL     1      -3.326  12.998  22.077  0.00  0.00    +0.000 NA
ATOM     29  C   UNL     1      -2.645  12.650  20.966  0.00  0.00    +0.000 A 
ATOM     30  N   UNL     1      -3.172  13.177  19.785  0.00  0.00    +0.000 N 
ATOM     31  C   UNL     1      -1.535  11.775  20.971  0.00  0.00    +0.000 A 
ATOM     32  C   UNL     1      -0.807  11.400  19.817  0.00  0.00    +0.000 A 
ATOM     33  H   UNL     1      -3.927  13.803  20.050  0.00  0.00    +0.000 HD
ATOM     34  H   UNL     1      -2.466  13.634  19.223  0.00  0.00    +0.000 HD
ENDBRANCH  19  22
ENDBRANCH   1  19
TORSDOF 5
ENDMDL
MODEL 7
REMARK VINA RESULT:      -7.8      1.071      1.304
REMARK  Name = 
REMARK  6 active torsions:
REMARK  status: ('A' for Active; 'I' for Inactive)
REMARK    1  A    between atoms: C_1  and  C_2
REMARK    2  A    between atoms: C_2  and  C_3
REMARK    3  A    between atoms: C_2  and  N_11
REMARK    4  A    between atoms: C_14  and  N_15
REMARK    5  A    between atoms: N_15  and  S_16
REMARK    6  A    between atoms: S_16  and  C_19
REMARK                            x       y       z     vdW  Elec       q    Type
REMARK                         _______ _______ _______ _____ _____    ______ ____
ROOT
ATOM      1  N   UNL     1       2.634   6.809  20.334  0.00  0.00    +0.000 NA
ATOM      2  H   UNL     1       3.211   6.932  21.166  0.00  0.00    +0.000 HD
ENDROOT
BRANCH   1   6
ATOM      3  N   UNL     1       0.806   9.837  19.674  0.00  0.00    +0.000 N 
ATOM      4  C   UNL     1       0.320   9.609  21.016  0.00  0.00    +0.000 C 
ATOM      5  C   UNL     1       1.220   8.481  21.507  0.00  0.00    +0.000 C 
ATOM      6  C   UNL     1       1.415   7.625  20.252  0.00  0.00    +0.000 C 
ATOM      7  C   UNL     1       1.391   8.685  19.170  0.00  0.00    +0.000 C 
ATOM      8  O   UNL     1       1.736   8.558  18.009  0.00  0.00    +0.000 OA
BRANCH   3  10
ATOM      9  C   UNL     1      -0.780  10.082  17.789  0.00  0.00    +0.000 C 
ATOM     10  C   UNL     1       0.214  10.789  18.721  0.00  0.00    +0.000 C 
BRANCH  10  11
ATOM     11  C   UNL     1      -0.431  11.989  19.437  0.00  0.00    +0.000 C 
ATOM     12  O   UNL     1      -1.614  11.947  19.792  0.00  0.00    +0.000 OA
ATOM     13  N   UNL     1       0.378  13.068  19.759  0.00  0.00    +0.000 N 
ATOM     14  C   UNL     1       1.811  13.207  19.474  0.00  0.00    +0.000 C 
ATOM     15  C   UNL     1       2.591  13.301  20.790  0.00  0.00    +0.000 C 
ATOM     16  O   UNL     1       2.096  14.375  21.608  0.00  0.00    +0.000 OA
ATOM     17  C   UNL     1       0.698  14.204  21.905  0.00  0.00    +0.000 C 
ATOM     18  C   UNL     1      -0.140  14.130  20.622  0.00  0.00    +0.000 C 
ENDBRANCH  10  11
ENDBRANCH   3  10
ENDBRANCH   1   6
BRANCH   1  19
ATOM     19  S   UNL     1       2.464   5.142  20.037  0.00  0.00    +0.000 S 
ATOM     20  O   UNL     1       3.127   4.502  21.156  0.00  0.00    +0.000 OA
ATOM     21  O   UNL     1       1.077   4.874  19.746  0.00  0.00    +0.000 OA
BRANCH  19  22
ATOM     22  C   UNL     1       3.472   4.829  18.610  0.00  0.00    +0.000 A 
ATOM     23  C   UNL     1       3.152   3.763  17.773  0.00  0.00    +0.000 A 
ATOM     24  C   UNL     1       3.952   3.504  16.659  0.00  0.00    +0.000 A 
ATOM     25  C   UNL     1       5.083   4.295  16.378  0.00  0.00    +0.000 A 
ATOM     26  C   UNL     1       5.900   4.016  15.280  0.00  0.00    +0.000 A 
ATOM     27  C   UNL     1       7.017   4.803  15.066  0.00  0.00    +0.000 A 
ATOM     28  N   UNL     1       7.380   5.830  15.859  0.00  0.00    +0.000 NA
ATOM     29  C   UNL     1       6.588   6.104  16.916  0.00  0.00    +0.000 A 
ATOM     30  N   UNL     1       7.061   7.131  17.734  0.00  0.00    +0.000 N 
ATOM     31  C   UNL     1       5.414   5.378  17.223  0.00  0.00    +0.000 A 
ATOM     32  C   UNL     1       4.570   5.651  18.325  0.00  0.00    +0.000 A 
ATOM     33  H   UNL     1       7.883   7.518  17.279  0.00  0.00    +0.000 HD
ATOM     34  H   UNL     1       6.353   7.829  17.918  0.00  0.00    +0.000 HD
ENDBRANCH  19  22
ENDBRANCH   1  19
TORSDOF 5
ENDMDL
MODEL 8
REMARK VINA RESULT:      -7.7      2.501      8.456
REMARK  Name = 
REMARK  6 active torsions:
REMARK  status: ('A' for Active; 'I' for Inactive)
REMARK    1  A    between atoms: C_1  and  C_2
REMARK    2  A    between atoms: C_2  and  C_3
REMARK    3  A    between atoms: C_2  and  N_11
REMARK    4  A    between atoms: C_14  and  N_15
REMARK    5  A    between atoms: N_15  and  S_16
REMARK    6  A    between atoms: S_16  and  C_19
REMARK                            x       y       z     vdW  Elec       q    Type
REMARK                         _______ _______ _______ _____ _____    ______ ____
ROOT
ATOM      1  N   UNL     1       1.673   8.321  21.583  0.00  0.00    +0.000 NA
ATOM      2  H   UNL     1       2.439   8.995  21.573  0.00  0.00    +0.000 HD
ENDROOT
BRANCH   1   6
ATOM      3  N   UNL     1       2.825   5.949  19.134  0.00  0.00    +0.000 N 
ATOM      4  C   UNL     1       2.381   6.972  18.216  0.00  0.00    +0.000 C 
ATOM      5  C   UNL     1       2.099   8.150  19.142  0.00  0.00    +0.000 C 
ATOM      6  C   UNL     1       1.525   7.475  20.391  0.00  0.00    +0.000 C 
ATOM      7  C   UNL     1       2.293   6.170  20.396  0.00  0.00    +0.000 C 
ATOM      8  O   UNL     1       2.379   5.372  21.312  0.00  0.00    +0.000 OA
BRANCH   3  10
ATOM      9  C   UNL     1       2.564   4.226  17.376  0.00  0.00    +0.000 C 
ATOM     10  C   UNL     1       3.154   4.567  18.752  0.00  0.00    +0.000 C 
BRANCH  10  11
ATOM     11  C   UNL     1       4.670   4.305  18.802  0.00  0.00    +0.000 C 
ATOM     12  O   UNL     1       5.123   3.355  19.448  0.00  0.00    +0.000 OA
ATOM     13  N   UNL     1       5.494   5.103  18.023  0.00  0.00    +0.000 N 
ATOM     14  C   UNL     1       5.078   6.205  17.147  0.00  0.00    +0.000 C 
ATOM     15  C   UNL     1       5.432   5.869  15.694  0.00  0.00    +0.000 C 
ATOM     16  O   UNL     1       6.832   5.571  15.559  0.00  0.00    +0.000 OA
ATOM     17  C   UNL     1       7.214   4.467  16.400  0.00  0.00    +0.000 C 
ATOM     18  C   UNL     1       6.908   4.757  17.874  0.00  0.00    +0.000 C 
ENDBRANCH  10  11
ENDBRANCH   3  10
ENDBRANCH   1   6
BRANCH   1  19
ATOM     19  S   UNL     1       0.273   9.105  22.149  0.00  0.00    +0.000 S 
ATOM     20  O   UNL     1      -0.801   8.165  21.893  0.00  0.00    +0.000 OA
ATOM     21  O   UNL     1       0.533   9.587  23.483  0.00  0.00    +0.000 OA
BRANCH  19  22
ATOM     22  C   UNL     1       0.029  10.463  21.033  0.00  0.00    +0.000 A 
ATOM     23  C   UNL     1      -0.739  10.272  19.887  0.00  0.00    +0.000 A 
ATOM     24  C   UNL     1      -0.920  11.333  18.999  0.00  0.00    +0.000 A 
ATOM     25  C   UNL     1      -0.325  12.588  19.237  0.00  0.00    +0.000 A 
ATOM     26  C   UNL     1      -0.482  13.640  18.334  0.00  0.00    +0.000 A 
ATOM     27  C   UNL     1       0.148  14.843  18.597  0.00  0.00    +0.000 A 
ATOM     28  N   UNL     1       0.918  15.069  19.679  0.00  0.00    +0.000 NA
ATOM     29  C   UNL     1       1.064  14.055  20.557  0.00  0.00    +0.000 A 
ATOM     30  N   UNL     1       1.931  14.335  21.614  0.00  0.00    +0.000 N 
ATOM     31  C   UNL     1       0.455  12.790  20.398  0.00  0.00    +0.000 A 
ATOM     32  C   UNL     1       0.594  11.715  21.307  0.00  0.00    +0.000 A 
ATOM     33  H   UNL     1       2.197  15.312  21.530  0.00  0.00    +0.000 HD
ATOM     34  H   UNL     1       1.520  14.120  22.513  0.00  0.00    +0.000 HD
ENDBRANCH  19  22
ENDBRANCH   1  19
TORSDOF 5
ENDMDL
MODEL 9
REMARK VINA RESULT:      -7.7      3.372      9.990
REMARK  Name = 
REMARK  6 active torsions:
REMARK  status: ('A' for Active; 'I' for Inactive)
REMARK    1  A    between atoms: C_1  and  C_2
REMARK    2  A    between atoms: C_2  and  C_3
REMARK    3  A    between atoms: C_2  and  N_11
REMARK    4  A    between atoms: C_14  and  N_15
REMARK    5  A    between atoms: N_15  and  S_16
REMARK    6  A    between atoms: S_16  and  C_19
REMARK                            x       y       z     vdW  Elec       q    Type
REMARK                         _______ _______ _______ _____ _____    ______ ____
ROOT
ATOM      1  N   UNL     1       0.173  10.067  19.346  0.00  0.00    +0.000 NA
ATOM      2  H   UNL     1      -0.708   9.706  19.714  0.00  0.00    +0.000 HD
ENDROOT
BRANCH   1   6
ATOM      3  N   UNL     1       2.234   7.143  18.954  0.00  0.00    +0.000 N 
ATOM      4  C   UNL     1       2.196   7.158  20.398  0.00  0.00    +0.000 C 
ATOM      5  C   UNL     1       1.135   8.214  20.691  0.00  0.00    +0.000 C 
ATOM      6  C   UNL     1       1.371   9.252  19.590  0.00  0.00    +0.000 C 
ATOM      7  C   UNL     1       1.824   8.368  18.447  0.00  0.00    +0.000 C 
ATOM      8  O   UNL     1       1.914   8.675  17.272  0.00  0.00    +0.000 OA
BRANCH   3  10
ATOM      9  C   UNL     1       4.230   7.226  17.491  0.00  0.00    +0.000 C 
ATOM     10  C   UNL     1       3.165   6.337  18.149  0.00  0.00    +0.000 C 
BRANCH  10  11
ATOM     11  C   UNL     1       3.802   5.204  18.976  0.00  0.00    +0.000 C 
ATOM     12  O   UNL     1       4.907   5.358  19.506  0.00  0.00    +0.000 OA
ATOM     13  N   UNL     1       3.056   4.055  19.188  0.00  0.00    +0.000 N 
ATOM     14  C   UNL     1       1.703   3.781  18.690  0.00  0.00    +0.000 C 
ATOM     15  C   UNL     1       0.742   3.618  19.874  0.00  0.00    +0.000 C 
ATOM     16  O   UNL     1       1.203   2.597  20.775  0.00  0.00    +0.000 OA
ATOM     17  C   UNL     1       2.517   2.900  21.279  0.00  0.00    +0.000 C 
ATOM     18  C   UNL     1       3.531   3.048  20.138  0.00  0.00    +0.000 C 
ENDBRANCH  10  11
ENDBRANCH   3  10
ENDBRANCH   1   6
BRANCH   1  19
ATOM     19  S   UNL     1       0.278  11.722  19.725  0.00  0.00    +0.000 S 
ATOM     20  O   UNL     1       1.567  11.868  20.371  0.00  0.00    +0.000 OA
ATOM     21  O   UNL     1      -0.046  12.478  18.540  0.00  0.00    +0.000 OA
BRANCH  19  22
ATOM     22  C   UNL     1      -0.947  11.980  20.982  0.00  0.00    +0.000 A 
ATOM     23  C   UNL     1      -0.744  11.443  22.251  0.00  0.00    +0.000 A 
ATOM     24  C   UNL     1      -1.713  11.630  23.237  0.00  0.00    +0.000 A 
ATOM     25  C   UNL     1      -2.898  12.341  22.964  0.00  0.00    +0.000 A 
ATOM     26  C   UNL     1      -3.880  12.502  23.943  0.00  0.00    +0.000 A 
ATOM     27  C   UNL     1      -5.040  13.181  23.617  0.00  0.00    +0.000 A 
ATOM     28  N   UNL     1      -5.292  13.700  22.399  0.00  0.00    +0.000 NA
ATOM     29  C   UNL     1      -4.341  13.550  21.455  0.00  0.00    +0.000 A 
ATOM     30  N   UNL     1      -4.698  14.047  20.200  0.00  0.00    +0.000 N 
ATOM     31  C   UNL     1      -3.112  12.889  21.680  0.00  0.00    +0.000 A 
ATOM     32  C   UNL     1      -2.101  12.725  20.704  0.00  0.00    +0.000 A 
ATOM     33  H   UNL     1      -5.596  14.510  20.308  0.00  0.00    +0.000 HD
ATOM     34  H   UNL     1      -3.990  14.657  19.815  0.00  0.00    +0.000 HD
ENDBRANCH  19  22
ENDBRANCH   1  19
TORSDOF 5
ENDMDL
