MODEL 1
REMARK VINA RESULT:      -6.5      0.000      0.000
REMARK  Name = 
REMARK  4 active torsions:
REMARK  status: ('A' for Active; 'I' for Inactive)
REMARK    1  A    between atoms: C_1  and  C_2
REMARK    2  A    between atoms: C_6  and  C_7
REMARK    3  A    between atoms: C_10  and  O_11
REMARK    4  A    between atoms: C_13  and  O_14
REMARK                            x       y       z     vdW  Elec       q    Type
REMARK                         _______ _______ _______ _____ _____    ______ ____
ROOT
ATOM      1  C   UNL     1       7.621   5.492  19.684  0.00  0.00    +0.000 C 
ATOM      2  C   UNL     1       6.854   5.416  18.357  0.00  0.00    +0.000 C 
ATOM      3  C   UNL     1       7.701   4.618  17.343  0.00  0.00    +0.000 C 
ATOM      4  C   UNL     1       7.028   4.468  15.980  0.00  0.00    +0.000 C 
ATOM      5  C   UNL     1       5.598   3.935  16.091  0.00  0.00    +0.000 C 
ATOM      6  C   UNL     1       4.724   4.767  17.066  0.00  0.00    +0.000 C 
ATOM      7  C   UNL     1       4.514   6.180  16.455  0.00  0.00    +0.000 C 
ATOM      8  C   UNL     1       3.332   4.090  17.193  0.00  0.00    +0.000 C 
ATOM      9  C   UNL     1       2.439   4.763  18.241  0.00  0.00    +0.000 C 
ATOM     10  C   UNL     1       3.127   4.901  19.599  0.00  0.00    +0.000 C 
ATOM     11  C   UNL     1       4.526   5.528  19.505  0.00  0.00    +0.000 C 
ATOM     12  C   UNL     1       5.422   4.809  18.473  0.00  0.00    +0.000 C 
ENDROOT
BRANCH  10  13
ATOM     13  O   UNL     1       3.218   3.612  20.211  0.00  0.00    +0.000 OA
ATOM     14  H   UNL     1       3.773   3.722  21.009  0.00  0.00    +0.000 HD
ENDBRANCH  10  13
BRANCH  12  15
ATOM     15  O   UNL     1       5.556   3.443  18.930  0.00  0.00    +0.000 OA
ATOM     16  H   UNL     1       5.112   3.371  19.795  0.00  0.00    +0.000 HD
ENDBRANCH  12  15
TORSDOF 2
ENDMDL
MODEL 2
REMARK VINA RESULT:      -6.4      1.690      2.706
REMARK  Name = 
REMARK  4 active torsions:
REMARK  status: ('A' for Active; 'I' for Inactive)
REMARK    1  A    between atoms: C_1  and  C_2
REMARK    2  A    between atoms: C_6  and  C_7
REMARK    3  A    between atoms: C_10  and  O_11
REMARK    4  A    between atoms: C_13  and  O_14
REMARK                            x       y       z     vdW  Elec       q    Type
REMARK                         _______ _______ _______ _____ _____    ______ ____
ROOT
ATOM      1  C   UNL     1       5.627   5.483  19.355  0.00  0.00    +0.000 C 
ATOM      2  C   UNL     1       4.487   4.878  18.524  0.00  0.00    +0.000 C 
ATOM      3  C   UNL     1       5.099   4.099  17.341  0.00  0.00    +0.000 C 
ATOM      4  C   UNL     1       4.051   3.440  16.446  0.00  0.00    +0.000 C 
ATOM      5  C   UNL     1       3.050   2.600  17.240  0.00  0.00    +0.000 C 
ATOM      6  C   UNL     1       2.387   3.395  18.396  0.00  0.00    +0.000 C 
ATOM      7  C   UNL     1       1.489   4.503  17.780  0.00  0.00    +0.000 C 
ATOM      8  C   UNL     1       1.473   2.434  19.204  0.00  0.00    +0.000 C 
ATOM      9  C   UNL     1       0.878   3.094  20.453  0.00  0.00    +0.000 C 
ATOM     10  C   UNL     1       1.939   3.744  21.339  0.00  0.00    +0.000 C 
ATOM     11  C   UNL     1       2.890   4.668  20.563  0.00  0.00    +0.000 C 
ATOM     12  C   UNL     1       3.510   3.969  19.333  0.00  0.00    +0.000 C 
ENDROOT
BRANCH  10  13
ATOM     13  O   UNL     1       2.693   2.720  21.994  0.00  0.00    +0.000 OA
ATOM     14  H   UNL     1       3.476   3.159  22.385  0.00  0.00    +0.000 HD
ENDBRANCH  10  13
BRANCH  12  15
ATOM     15  O   UNL     1       4.268   2.846  19.840  0.00  0.00    +0.000 OA
ATOM     16  H   UNL     1       4.049   2.738  20.783  0.00  0.00    +0.000 HD
ENDBRANCH  12  15
TORSDOF 2
ENDMDL
MODEL 3
REMARK VINA RESULT:      -6.3      2.201      3.380
REMARK  Name = 
REMARK  4 active torsions:
REMARK  status: ('A' for Active; 'I' for Inactive)
REMARK    1  A    between atoms: C_1  and  C_2
REMARK    2  A    between atoms: C_6  and  C_7
REMARK    3  A    between atoms: C_10  and  O_11
REMARK    4  A    between atoms: C_13  and  O_14
REMARK                            x       y       z     vdW  Elec       q    Type
REMARK                         _______ _______ _______ _____ _____    ______ ____
ROOT
ATOM      1  C   UNL     1       2.209   7.518  19.184  0.00  0.00    +0.000 C 
ATOM      2  C   UNL     1       2.608   6.242  18.430  0.00  0.00    +0.000 C 
ATOM      3  C   UNL     1       3.973   6.477  17.750  0.00  0.00    +0.000 C 
ATOM      4  C   UNL     1       4.478   5.262  16.975  0.00  0.00    +0.000 C 
ATOM      5  C   UNL     1       4.458   3.984  17.814  0.00  0.00    +0.000 C 
ATOM      6  C   UNL     1       3.072   3.711  18.455  0.00  0.00    +0.000 C 
ATOM      7  C   UNL     1       2.061   3.388  17.320  0.00  0.00    +0.000 C 
ATOM      8  C   UNL     1       3.180   2.459  19.368  0.00  0.00    +0.000 C 
ATOM      9  C   UNL     1       1.894   2.187  20.154  0.00  0.00    +0.000 C 
ATOM     10  C   UNL     1       1.405   3.411  20.928  0.00  0.00    +0.000 C 
ATOM     11  C   UNL     1       1.327   4.679  20.064  0.00  0.00    +0.000 C 
ATOM     12  C   UNL     1       2.649   4.957  19.313  0.00  0.00    +0.000 C 
ENDROOT
BRANCH  10  13
ATOM     13  O   UNL     1       2.274   3.640  22.039  0.00  0.00    +0.000 OA
ATOM     14  H   UNL     1       2.572   2.759  22.345  0.00  0.00    +0.000 HD
ENDBRANCH  10  13
BRANCH  12  15
ATOM     15  O   UNL     1       3.662   5.148  20.327  0.00  0.00    +0.000 OA
ATOM     16  H   UNL     1       3.354   4.716  21.145  0.00  0.00    +0.000 HD
ENDBRANCH  12  15
TORSDOF 2
ENDMDL
MODEL 4
REMARK VINA RESULT:      -6.3      2.111      4.418
REMARK  Name = 
REMARK  4 active torsions:
REMARK  status: ('A' for Active; 'I' for Inactive)
REMARK    1  A    between atoms: C_1  and  C_2
REMARK    2  A    between atoms: C_6  and  C_7
REMARK    3  A    between atoms: C_10  and  O_11
REMARK    4  A    between atoms: C_13  and  O_14
REMARK                            x       y       z     vdW  Elec       q    Type
REMARK                         _______ _______ _______ _____ _____    ______ ____
ROOT
ATOM      1  C   UNL     1       1.620   5.802  20.812  0.00  0.00    +0.000 C 
ATOM      2  C   UNL     1       2.095   4.490  20.171  0.00  0.00    +0.000 C 
ATOM      3  C   UNL     1       0.858   3.644  19.804  0.00  0.00    +0.000 C 
ATOM      4  C   UNL     1       1.211   2.313  19.144  0.00  0.00    +0.000 C 
ATOM      5  C   UNL     1       2.170   2.482  17.965  0.00  0.00    +0.000 C 
ATOM      6  C   UNL     1       3.444   3.284  18.342  0.00  0.00    +0.000 C 
ATOM      7  C   UNL     1       4.280   2.437  19.342  0.00  0.00    +0.000 C 
ATOM      8  C   UNL     1       4.300   3.493  17.062  0.00  0.00    +0.000 C 
ATOM      9  C   UNL     1       5.516   4.393  17.304  0.00  0.00    +0.000 C 
ATOM     10  C   UNL     1       5.144   5.722  17.960  0.00  0.00    +0.000 C 
ATOM     11  C   UNL     1       4.261   5.554  19.206  0.00  0.00    +0.000 C 
ATOM     12  C   UNL     1       3.019   4.678  18.928  0.00  0.00    +0.000 C 
ENDROOT
BRANCH  10  13
ATOM     13  O   UNL     1       4.473   6.545  17.003  0.00  0.00    +0.000 OA
ATOM     14  H   UNL     1       4.965   7.391  16.969  0.00  0.00    +0.000 HD
ENDBRANCH  10  13
BRANCH  12  15
ATOM     15  O   UNL     1       2.256   5.362  17.907  0.00  0.00    +0.000 OA
ATOM     16  H   UNL     1       2.877   5.889  17.371  0.00  0.00    +0.000 HD
ENDBRANCH  12  15
TORSDOF 2
ENDMDL
MODEL 5
REMARK VINA RESULT:      -6.2      1.916      3.137
REMARK  Name = 
REMARK  4 active torsions:
REMARK  status: ('A' for Active; 'I' for Inactive)
REMARK    1  A    between atoms: C_1  and  C_2
REMARK    2  A    between atoms: C_6  and  C_7
REMARK    3  A    between atoms: C_10  and  O_11
REMARK    4  A    between atoms: C_13  and  O_14
REMARK                            x       y       z     vdW  Elec       q    Type
REMARK                         _______ _______ _______ _____ _____    ______ ____
ROOT
ATOM      1  C   UNL     1       6.450   4.803  18.184  0.00  0.00    +0.000 C 
ATOM      2  C   UNL     1       5.052   5.332  18.535  0.00  0.00    +0.000 C 
ATOM      3  C   UNL     1       4.737   6.535  17.620  0.00  0.00    +0.000 C 
ATOM      4  C   UNL     1       3.357   7.140  17.874  0.00  0.00    +0.000 C 
ATOM      5  C   UNL     1       2.247   6.089  17.857  0.00  0.00    +0.000 C 
ATOM      6  C   UNL     1       2.530   4.904  18.817  0.00  0.00    +0.000 C 
ATOM      7  C   UNL     1       2.477   5.431  20.278  0.00  0.00    +0.000 C 
ATOM      8  C   UNL     1       1.406   3.845  18.651  0.00  0.00    +0.000 C 
ATOM      9  C   UNL     1       1.669   2.571  19.461  0.00  0.00    +0.000 C 
ATOM     10  C   UNL     1       3.051   1.976  19.192  0.00  0.00    +0.000 C 
ATOM     11  C   UNL     1       4.184   3.007  19.305  0.00  0.00    +0.000 C 
ATOM     12  C   UNL     1       3.918   4.265  18.449  0.00  0.00    +0.000 C 
ENDROOT
BRANCH  10  13
ATOM     13  O   UNL     1       3.063   1.391  17.888  0.00  0.00    +0.000 OA
ATOM     14  H   UNL     1       3.980   1.470  17.556  0.00  0.00    +0.000 HD
ENDBRANCH  10  13
BRANCH  12  15
ATOM     15  O   UNL     1       3.836   3.815  17.076  0.00  0.00    +0.000 OA
ATOM     16  H   UNL     1       3.320   4.473  16.575  0.00  0.00    +0.000 HD
ENDBRANCH  12  15
TORSDOF 2
ENDMDL
MODEL 6
REMARK VINA RESULT:      -6.2      1.784      4.164
REMARK  Name = 
REMARK  4 active torsions:
REMARK  status: ('A' for Active; 'I' for Inactive)
REMARK    1  A    between atoms: C_1  and  C_2
REMARK    2  A    between atoms: C_6  and  C_7
REMARK    3  A    between atoms: C_10  and  O_11
REMARK    4  A    between atoms: C_13  and  O_14
REMARK                            x       y       z     vdW  Elec       q    Type
REMARK                         _______ _______ _______ _____ _____    ______ ____
ROOT
ATOM      1  C   UNL     1       3.685   1.172  18.566  0.00  0.00    +0.000 C 
ATOM      2  C   UNL     1       3.169   2.600  18.793  0.00  0.00    +0.000 C 
ATOM      3  C   UNL     1       2.908   2.796  20.301  0.00  0.00    +0.000 C 
ATOM      4  C   UNL     1       2.399   4.193  20.649  0.00  0.00    +0.000 C 
ATOM      5  C   UNL     1       3.279   5.298  20.063  0.00  0.00    +0.000 C 
ATOM      6  C   UNL     1       3.499   5.139  18.535  0.00  0.00    +0.000 C 
ATOM      7  C   UNL     1       2.140   5.369  17.817  0.00  0.00    +0.000 C 
ATOM      8  C   UNL     1       4.485   6.238  18.054  0.00  0.00    +0.000 C 
ATOM      9  C   UNL     1       4.873   6.083  16.580  0.00  0.00    +0.000 C 
ATOM     10  C   UNL     1       5.383   4.681  16.250  0.00  0.00    +0.000 C 
ATOM     11  C   UNL     1       4.452   3.566  16.750  0.00  0.00    +0.000 C 
ATOM     12  C   UNL     1       4.108   3.720  18.249  0.00  0.00    +0.000 C 
ENDROOT
BRANCH  10  13
ATOM     13  O   UNL     1       6.684   4.511  16.818  0.00  0.00    +0.000 OA
ATOM     14  H   UNL     1       7.285   5.100  16.319  0.00  0.00    +0.000 HD
ENDBRANCH  10  13
BRANCH  12  15
ATOM     15  O   UNL     1       5.362   3.634  18.966  0.00  0.00    +0.000 OA
ATOM     16  H   UNL     1       5.175   3.280  19.855  0.00  0.00    +0.000 HD
ENDBRANCH  12  15
TORSDOF 2
ENDMDL
MODEL 7
REMARK VINA RESULT:      -6.2      1.306      4.129
REMARK  Name = 
REMARK  4 active torsions:
REMARK  status: ('A' for Active; 'I' for Inactive)
REMARK    1  A    between atoms: C_1  and  C_2
REMARK    2  A    between atoms: C_6  and  C_7
REMARK    3  A    between atoms: C_10  and  O_11
REMARK    4  A    between atoms: C_13  and  O_14
REMARK                            x       y       z     vdW  Elec       q    Type
REMARK                         _______ _______ _______ _____ _____    ______ ____
ROOT
ATOM      1  C   UNL     1       3.564   2.093  17.467  0.00  0.00    +0.000 C 
ATOM      2  C   UNL     1       3.578   3.592  17.796  0.00  0.00    +0.000 C 
ATOM      3  C   UNL     1       2.963   3.796  19.197  0.00  0.00    +0.000 C 
ATOM      4  C   UNL     1       2.936   5.258  19.638  0.00  0.00    +0.000 C 
ATOM      5  C   UNL     1       4.300   5.936  19.497  0.00  0.00    +0.000 C 
ATOM      6  C   UNL     1       4.899   5.784  18.073  0.00  0.00    +0.000 C 
ATOM      7  C   UNL     1       4.015   6.588  17.080  0.00  0.00    +0.000 C 
ATOM      8  C   UNL     1       6.321   6.408  18.060  0.00  0.00    +0.000 C 
ATOM      9  C   UNL     1       7.052   6.187  16.731  0.00  0.00    +0.000 C 
ATOM     10  C   UNL     1       7.073   4.719  16.307  0.00  0.00    +0.000 C 
ATOM     11  C   UNL     1       5.688   4.057  16.351  0.00  0.00    +0.000 C 
ATOM     12  C   UNL     1       4.987   4.257  17.714  0.00  0.00    +0.000 C 
ENDROOT
BRANCH  10  13
ATOM     13  O   UNL     1       7.975   4.001  17.153  0.00  0.00    +0.000 OA
ATOM     14  H   UNL     1       8.653   3.608  16.568  0.00  0.00    +0.000 HD
ENDBRANCH  10  13
BRANCH  12  15
ATOM     15  O   UNL     1       5.833   3.628  18.704  0.00  0.00    +0.000 OA
ATOM     16  H   UNL     1       5.257   3.162  19.338  0.00  0.00    +0.000 HD
ENDBRANCH  12  15
TORSDOF 2
ENDMDL
MODEL 8
REMARK VINA RESULT:      -6.1      1.868      4.352
REMARK  Name = 
REMARK  4 active torsions:
REMARK  status: ('A' for Active; 'I' for Inactive)
REMARK    1  A    between atoms: C_1  and  C_2
REMARK    2  A    between atoms: C_6  and  C_7
REMARK    3  A    between atoms: C_10  and  O_11
REMARK    4  A    between atoms: C_13  and  O_14
REMARK                            x       y       z     vdW  Elec       q    Type
REMARK                         _______ _______ _______ _____ _____    ______ ____
ROOT
ATOM      1  C   UNL     1       3.724   1.240  18.551  0.00  0.00    +0.000 C 
ATOM      2  C   UNL     1       2.790   2.448  18.705  0.00  0.00    +0.000 C 
ATOM      3  C   UNL     1       2.051   2.330  20.055  0.00  0.00    +0.000 C 
ATOM      4  C   UNL     1       1.096   3.491  20.323  0.00  0.00    +0.000 C 
ATOM      5  C   UNL     1       1.767   4.854  20.143  0.00  0.00    +0.000 C 
ATOM      6  C   UNL     1       2.463   5.000  18.765  0.00  0.00    +0.000 C 
ATOM      7  C   UNL     1       1.370   5.011  17.661  0.00  0.00    +0.000 C 
ATOM      8  C   UNL     1       3.202   6.365  18.719  0.00  0.00    +0.000 C 
ATOM      9  C   UNL     1       4.036   6.546  17.446  0.00  0.00    +0.000 C 
ATOM     10  C   UNL     1       4.989   5.378  17.196  0.00  0.00    +0.000 C 
ATOM     11  C   UNL     1       4.299   4.008  17.276  0.00  0.00    +0.000 C 
ATOM     12  C   UNL     1       3.499   3.832  18.586  0.00  0.00    +0.000 C 
ENDROOT
BRANCH  10  13
ATOM     13  O   UNL     1       6.057   5.434  18.144  0.00  0.00    +0.000 OA
ATOM     14  H   UNL     1       5.902   6.230  18.692  0.00  0.00    +0.000 HD
ENDBRANCH  10  13
BRANCH  12  15
ATOM     15  O   UNL     1       4.456   3.933  19.666  0.00  0.00    +0.000 OA
ATOM     16  H   UNL     1       5.197   4.488  19.360  0.00  0.00    +0.000 HD
ENDBRANCH  12  15
TORSDOF 2
ENDMDL
MODEL 9
REMARK VINA RESULT:      -6.0      1.562      4.521
REMARK  Name = 
REMARK  4 active torsions:
REMARK  status: ('A' for Active; 'I' for Inactive)
REMARK    1  A    between atoms: C_1  and  C_2
REMARK    2  A    between atoms: C_6  and  C_7
REMARK    3  A    between atoms: C_10  and  O_11
REMARK    4  A    between atoms: C_13  and  O_14
REMARK                            x       y       z     vdW  Elec       q    Type
REMARK                         _______ _______ _______ _____ _____    ______ ____
ROOT
ATOM      1  C   UNL     1       2.103   1.690  17.924  0.00  0.00    +0.000 C 
ATOM      2  C   UNL     1       2.015   3.129  18.451  0.00  0.00    +0.000 C 
ATOM      3  C   UNL     1       1.297   3.112  19.816  0.00  0.00    +0.000 C 
ATOM      4  C   UNL     1       1.162   4.498  20.444  0.00  0.00    +0.000 C 
ATOM      5  C   UNL     1       2.494   5.248  20.496  0.00  0.00    +0.000 C 
ATOM      6  C   UNL     1       3.195   5.318  19.114  0.00  0.00    +0.000 C 
ATOM      7  C   UNL     1       2.338   6.211  18.174  0.00  0.00    +0.000 C 
ATOM      8  C   UNL     1       4.579   6.000  19.289  0.00  0.00    +0.000 C 
ATOM      9  C   UNL     1       5.409   5.995  18.001  0.00  0.00    +0.000 C 
ATOM     10  C   UNL     1       5.538   4.601  17.388  0.00  0.00    +0.000 C 
ATOM     11  C   UNL     1       4.189   3.880  17.241  0.00  0.00    +0.000 C 
ATOM     12  C   UNL     1       3.389   3.860  18.562  0.00  0.00    +0.000 C 
ENDROOT
BRANCH  10  13
ATOM     13  O   UNL     1       6.417   3.814  18.195  0.00  0.00    +0.000 OA
ATOM     14  H   UNL     1       6.195   2.878  18.018  0.00  0.00    +0.000 HD
ENDBRANCH  10  13
BRANCH  12  15
ATOM     15  O   UNL     1       4.198   3.139  19.520  0.00  0.00    +0.000 OA
ATOM     16  H   UNL     1       4.879   2.646  19.026  0.00  0.00    +0.000 HD
ENDBRANCH  12  15
TORSDOF 2
ENDMDL
