MODEL 1
REMARK VINA RESULT:      -7.6      0.000      0.000
REMARK  Name = 
REMARK  8 active torsions:
REMARK  status: ('A' for Active; 'I' for Inactive)
REMARK    1  A    between atoms: C_1  and  C_2
REMARK    2  A    between atoms: C_2  and  C_3
REMARK    3  A    between atoms: C_5  and  C_6
REMARK    4  A    between atoms: C_6  and  C_7
REMARK    5  A    between atoms: N_10  and  C_11
REMARK    6  A    between atoms: C_11  and  C_12
REMARK    7  A    between atoms: N_14  and  C_15
REMARK    8  A    between atoms: C_15  and  C_16
REMARK                            x       y       z     vdW  Elec       q    Type
REMARK                         _______ _______ _______ _____ _____    ______ ____
ROOT
ATOM      1  C   UNL     1       7.695   6.446  18.511  0.00  0.00    +0.000 C 
ENDROOT
BRANCH   1   7
ATOM      2  C   UNL     1       4.263   5.075  18.402  0.00  0.00    +0.000 C 
ATOM      3  S   UNL     1       4.257   3.757  17.147  0.00  0.00    +0.000 S 
ATOM      4  C   UNL     1       5.613   4.390  16.101  0.00  0.00    +0.000 C 
ATOM      5  C   UNL     1       6.847   4.821  16.918  0.00  0.00    +0.000 C 
ATOM      6  O   UNL     1       7.999   4.536  16.586  0.00  0.00    +0.000 OA
ATOM      7  N   UNL     1       6.581   5.675  17.983  0.00  0.00    +0.000 N 
ATOM      8  C   UNL     1       5.687   5.197  18.928  0.00  0.00    +0.000 C 
ATOM      9  O   UNL     1       6.003   4.906  20.078  0.00  0.00    +0.000 OA
BRANCH   2  11
ATOM     10  C   UNL     1       2.761   7.160  18.724  0.00  0.00    +0.000 C 
ATOM     11  C   UNL     1       3.816   6.454  17.889  0.00  0.00    +0.000 C 
ENDBRANCH   2  11
BRANCH   4  12
ATOM     12  C   UNL     1       5.940   3.414  14.962  0.00  0.00    +0.000 C 
ATOM     13  C   UNL     1       6.229   4.055  13.610  0.00  0.00    +0.000 C 
ENDBRANCH   4  12
ENDBRANCH   1   7
BRANCH   1  14
ATOM     14  C   UNL     1       7.703   7.809  17.818  0.00  0.00    +0.000 C 
ATOM     15  O   UNL     1       7.086   8.020  16.776  0.00  0.00    +0.000 OA
ATOM     16  N   UNL     1       8.536   8.737  18.401  0.00  0.00    +0.000 N 
ATOM     17  H   UNL     1       9.297   8.368  18.972  0.00  0.00    +0.000 HD
BRANCH  16  18
ATOM     18  C   UNL     1       8.732  10.047  17.825  0.00  0.00    +0.000 C 
BRANCH  18  19
ATOM     19  C   UNL     1       9.186  11.040  18.860  0.00  0.00    +0.000 A 
ATOM     20  C   UNL     1       9.377  10.661  20.194  0.00  0.00    +0.000 A 
ATOM     21  C   UNL     1       9.828  11.603  21.128  0.00  0.00    +0.000 A 
ATOM     22  C   UNL     1      10.068  12.907  20.729  0.00  0.00    +0.000 A 
ATOM     23  F   UNL     1      10.508  13.804  21.623  0.00  0.00    +0.000 F 
ATOM     24  C   UNL     1       9.860  13.303  19.410  0.00  0.00    +0.000 A 
ATOM     25  C   UNL     1       9.414  12.367  18.479  0.00  0.00    +0.000 A 
ENDBRANCH  18  19
ENDBRANCH  16  18
ENDBRANCH   1  14
TORSDOF 6
ENDMDL
MODEL 2
REMARK VINA RESULT:      -7.6      0.201      1.006
REMARK  Name = 
REMARK  8 active torsions:
REMARK  status: ('A' for Active; 'I' for Inactive)
REMARK    1  A    between atoms: C_1  and  C_2
REMARK    2  A    between atoms: C_2  and  C_3
REMARK    3  A    between atoms: C_5  and  C_6
REMARK    4  A    between atoms: C_6  and  C_7
REMARK    5  A    between atoms: N_10  and  C_11
REMARK    6  A    between atoms: C_11  and  C_12
REMARK    7  A    between atoms: N_14  and  C_15
REMARK    8  A    between atoms: C_15  and  C_16
REMARK                            x       y       z     vdW  Elec       q    Type
REMARK                         _______ _______ _______ _____ _____    ______ ____
ROOT
ATOM      1  C   UNL     1       7.733   6.506  18.487  0.00  0.00    +0.000 C 
ENDROOT
BRANCH   1   7
ATOM      2  C   UNL     1       4.268   5.227  18.308  0.00  0.00    +0.000 C 
ATOM      3  S   UNL     1       4.263   3.876  17.089  0.00  0.00    +0.000 S 
ATOM      4  C   UNL     1       5.667   4.443  16.069  0.00  0.00    +0.000 C 
ATOM      5  C   UNL     1       6.887   4.862  16.912  0.00  0.00    +0.000 C 
ATOM      6  O   UNL     1       8.041   4.537  16.624  0.00  0.00    +0.000 OA
ATOM      7  N   UNL     1       6.614   5.752  17.946  0.00  0.00    +0.000 N 
ATOM      8  C   UNL     1       5.679   5.324  18.874  0.00  0.00    +0.000 C 
ATOM      9  O   UNL     1       5.951   5.056  20.041  0.00  0.00    +0.000 OA
BRANCH   2  11
ATOM     10  C   UNL     1       2.667   7.261  18.390  0.00  0.00    +0.000 C 
ATOM     11  C   UNL     1       3.875   6.604  17.745  0.00  0.00    +0.000 C 
ENDBRANCH   2  11
BRANCH   4  12
ATOM     12  C   UNL     1       6.001   3.428  14.967  0.00  0.00    +0.000 C 
ATOM     13  C   UNL     1       5.893   3.948  13.539  0.00  0.00    +0.000 C 
ENDBRANCH   4  12
ENDBRANCH   1   7
BRANCH   1  14
ATOM     14  C   UNL     1       7.741   7.886  17.828  0.00  0.00    +0.000 C 
ATOM     15  O   UNL     1       7.098   8.132  16.810  0.00  0.00    +0.000 OA
ATOM     16  N   UNL     1       8.605   8.787  18.408  0.00  0.00    +0.000 N 
ATOM     17  H   UNL     1       9.377   8.392  18.947  0.00  0.00    +0.000 HD
BRANCH  16  18
ATOM     18  C   UNL     1       8.805  10.107  17.859  0.00  0.00    +0.000 C 
BRANCH  18  19
ATOM     19  C   UNL     1       9.187  11.095  18.927  0.00  0.00    +0.000 A 
ATOM     20  C   UNL     1       9.335  12.456  18.637  0.00  0.00    +0.000 A 
ATOM     21  C   UNL     1       9.663  13.355  19.660  0.00  0.00    +0.000 A 
ATOM     22  C   UNL     1       9.854  12.889  20.951  0.00  0.00    +0.000 A 
ATOM     23  F   UNL     1      10.159  13.753  21.929  0.00  0.00    +0.000 F 
ATOM     24  C   UNL     1       9.731  11.534  21.249  0.00  0.00    +0.000 A 
ATOM     25  C   UNL     1       9.402  10.639  20.234  0.00  0.00    +0.000 A 
ENDBRANCH  18  19
ENDBRANCH  16  18
ENDBRANCH   1  14
TORSDOF 6
ENDMDL
MODEL 3
REMARK VINA RESULT:      -7.1      6.815      9.819
REMARK  Name = 
REMARK  8 active torsions:
REMARK  status: ('A' for Active; 'I' for Inactive)
REMARK    1  A    between atoms: C_1  and  C_2
REMARK    2  A    between atoms: C_2  and  C_3
REMARK    3  A    between atoms: C_5  and  C_6
REMARK    4  A    between atoms: C_6  and  C_7
REMARK    5  A    between atoms: N_10  and  C_11
REMARK    6  A    between atoms: C_11  and  C_12
REMARK    7  A    between atoms: N_14  and  C_15
REMARK    8  A    between atoms: C_15  and  C_16
REMARK                            x       y       z     vdW  Elec       q    Type
REMARK                         _______ _______ _______ _____ _____    ______ ____
ROOT
ATOM      1  C   UNL     1       0.749   9.755  17.904  0.00  0.00    +0.000 C 
ENDROOT
BRANCH   1   7
ATOM      2  C   UNL     1      -0.728  10.828  21.120  0.00  0.00    +0.000 C 
ATOM      3  S   UNL     1      -0.030  12.464  21.505  0.00  0.00    +0.000 S 
ATOM      4  C   UNL     1       1.550  12.289  20.608  0.00  0.00    +0.000 C 
ATOM      5  C   UNL     1       1.370  11.722  19.186  0.00  0.00    +0.000 C 
ATOM      6  O   UNL     1       1.959  12.181  18.205  0.00  0.00    +0.000 OA
ATOM      7  N   UNL     1       0.605  10.563  19.104  0.00  0.00    +0.000 N 
ATOM      8  C   UNL     1      -0.683  10.659  19.607  0.00  0.00    +0.000 C 
ATOM      9  O   UNL     1      -1.693  10.604  18.909  0.00  0.00    +0.000 OA
BRANCH   2  11
ATOM     10  C   UNL     1      -0.085   9.546  23.276  0.00  0.00    +0.000 C 
ATOM     11  C   UNL     1       0.014   9.644  21.763  0.00  0.00    +0.000 C 
ENDBRANCH   2  11
BRANCH   4  12
ATOM     12  C   UNL     1       2.364  13.590  20.652  0.00  0.00    +0.000 C 
ATOM     13  C   UNL     1       1.578  14.867  20.380  0.00  0.00    +0.000 C 
ENDBRANCH   4  12
ENDBRANCH   1   7
BRANCH   1  14
ATOM     14  C   UNL     1       1.889   8.761  18.134  0.00  0.00    +0.000 C 
ATOM     15  O   UNL     1       2.772   8.570  17.300  0.00  0.00    +0.000 OA
ATOM     16  N   UNL     1       1.781   8.033  19.297  0.00  0.00    +0.000 N 
ATOM     17  H   UNL     1       0.845   7.950  19.695  0.00  0.00    +0.000 HD
BRANCH  16  18
ATOM     18  C   UNL     1       2.723   6.989  19.627  0.00  0.00    +0.000 C 
BRANCH  18  19
ATOM     19  C   UNL     1       2.131   5.625  19.403  0.00  0.00    +0.000 A 
ATOM     20  C   UNL     1       1.563   4.898  20.456  0.00  0.00    +0.000 A 
ATOM     21  C   UNL     1       0.994   3.642  20.209  0.00  0.00    +0.000 A 
ATOM     22  C   UNL     1       1.011   3.120  18.926  0.00  0.00    +0.000 A 
ATOM     23  F   UNL     1       0.458   1.921  18.692  0.00  0.00    +0.000 F 
ATOM     24  C   UNL     1       1.593   3.821  17.874  0.00  0.00    +0.000 A 
ATOM     25  C   UNL     1       2.156   5.072  18.117  0.00  0.00    +0.000 A 
ENDBRANCH  18  19
ENDBRANCH  16  18
ENDBRANCH   1  14
TORSDOF 6
ENDMDL
MODEL 4
REMARK VINA RESULT:      -7.0      6.560      9.810
REMARK  Name = 
REMARK  8 active torsions:
REMARK  status: ('A' for Active; 'I' for Inactive)
REMARK    1  A    between atoms: C_1  and  C_2
REMARK    2  A    between atoms: C_2  and  C_3
REMARK    3  A    between atoms: C_5  and  C_6
REMARK    4  A    between atoms: C_6  and  C_7
REMARK    5  A    between atoms: N_10  and  C_11
REMARK    6  A    between atoms: C_11  and  C_12
REMARK    7  A    between atoms: N_14  and  C_15
REMARK    8  A    between atoms: C_15  and  C_16
REMARK                            x       y       z     vdW  Elec       q    Type
REMARK                         _______ _______ _______ _____ _____    ______ ____
ROOT
ATOM      1  C   UNL     1       0.869   9.737  17.911  0.00  0.00    +0.000 C 
ENDROOT
BRANCH   1   7
ATOM      2  C   UNL     1      -0.540  10.939  21.111  0.00  0.00    +0.000 C 
ATOM      3  S   UNL     1       0.097  12.624  21.373  0.00  0.00    +0.000 S 
ATOM      4  C   UNL     1       1.651  12.462  20.428  0.00  0.00    +0.000 C 
ATOM      5  C   UNL     1       1.447  11.802  19.050  0.00  0.00    +0.000 C 
ATOM      6  O   UNL     1       1.979  12.226  18.022  0.00  0.00    +0.000 OA
ATOM      7  N   UNL     1       0.731  10.610  19.065  0.00  0.00    +0.000 N 
ATOM      8  C   UNL     1      -0.541  10.681  19.610  0.00  0.00    +0.000 C 
ATOM      9  O   UNL     1      -1.571  10.541  18.956  0.00  0.00    +0.000 OA
BRANCH   2  11
ATOM     10  C   UNL     1      -0.080   9.544  23.244  0.00  0.00    +0.000 C 
ATOM     11  C   UNL     1       0.276   9.829  21.794  0.00  0.00    +0.000 C 
ENDBRANCH   2  11
BRANCH   4  12
ATOM     12  C   UNL     1       2.407  13.796  20.365  0.00  0.00    +0.000 C 
ATOM     13  C   UNL     1       3.558  13.947  21.352  0.00  0.00    +0.000 C 
ENDBRANCH   4  12
ENDBRANCH   1   7
BRANCH   1  14
ATOM     14  C   UNL     1       1.988   8.735  18.202  0.00  0.00    +0.000 C 
ATOM     15  O   UNL     1       2.938   8.572  17.440  0.00  0.00    +0.000 OA
ATOM     16  N   UNL     1       1.783   7.968  19.326  0.00  0.00    +0.000 N 
ATOM     17  H   UNL     1       0.816   7.871  19.640  0.00  0.00    +0.000 HD
BRANCH  16  18
ATOM     18  C   UNL     1       2.696   6.912  19.699  0.00  0.00    +0.000 C 
BRANCH  18  19
ATOM     19  C   UNL     1       2.121   5.556  19.394  0.00  0.00    +0.000 A 
ATOM     20  C   UNL     1       2.161   5.025  18.100  0.00  0.00    +0.000 A 
ATOM     21  C   UNL     1       1.644   3.747  17.854  0.00  0.00    +0.000 A 
ATOM     22  C   UNL     1       1.081   3.021  18.892  0.00  0.00    +0.000 A 
ATOM     23  F   UNL     1       0.594   1.795  18.656  0.00  0.00    +0.000 F 
ATOM     24  C   UNL     1       1.014   3.546  20.180  0.00  0.00    +0.000 A 
ATOM     25  C   UNL     1       1.531   4.816  20.426  0.00  0.00    +0.000 A 
ENDBRANCH  18  19
ENDBRANCH  16  18
ENDBRANCH   1  14
TORSDOF 6
ENDMDL
MODEL 5
REMARK VINA RESULT:      -6.8      6.752      9.942
REMARK  Name = 
REMARK  8 active torsions:
REMARK  status: ('A' for Active; 'I' for Inactive)
REMARK    1  A    between atoms: C_1  and  C_2
REMARK    2  A    between atoms: C_2  and  C_3
REMARK    3  A    between atoms: C_5  and  C_6
REMARK    4  A    between atoms: C_6  and  C_7
REMARK    5  A    between atoms: N_10  and  C_11
REMARK    6  A    between atoms: C_11  and  C_12
REMARK    7  A    between atoms: N_14  and  C_15
REMARK    8  A    between atoms: C_15  and  C_16
REMARK                            x       y       z     vdW  Elec       q    Type
REMARK                         _______ _______ _______ _____ _____    ______ ____
ROOT
ATOM      1  C   UNL     1       0.781   9.405  20.596  0.00  0.00    +0.000 C 
ENDROOT
BRANCH   1   7
ATOM      2  C   UNL     1       0.949  12.951  19.560  0.00  0.00    +0.000 C 
ATOM      3  S   UNL     1      -0.624  13.337  18.729  0.00  0.00    +0.000 S 
ATOM      4  C   UNL     1      -1.022  11.656  18.135  0.00  0.00    +0.000 C 
ATOM      5  C   UNL     1      -0.843  10.580  19.223  0.00  0.00    +0.000 C 
ATOM      6  O   UNL     1      -1.661   9.678  19.410  0.00  0.00    +0.000 OA
ATOM      7  N   UNL     1       0.378  10.611  19.890  0.00  0.00    +0.000 N 
ATOM      8  C   UNL     1       0.684  11.803  20.526  0.00  0.00    +0.000 C 
ATOM      9  O   UNL     1       0.746  11.929  21.746  0.00  0.00    +0.000 OA
BRANCH   2  11
ATOM     10  C   UNL     1       2.984  13.663  18.125  0.00  0.00    +0.000 C 
ATOM     11  C   UNL     1       2.090  12.537  18.616  0.00  0.00    +0.000 C 
ENDBRANCH   2  11
BRANCH   4  12
ATOM     12  C   UNL     1      -2.396  11.617  17.452  0.00  0.00    +0.000 C 
ATOM     13  C   UNL     1      -2.496  10.717  16.226  0.00  0.00    +0.000 C 
ENDBRANCH   4  12
ENDBRANCH   1   7
BRANCH   1  14
ATOM     14  C   UNL     1       1.702   8.601  19.677  0.00  0.00    +0.000 C 
ATOM     15  O   UNL     1       1.915   8.926  18.511  0.00  0.00    +0.000 OA
ATOM     16  N   UNL     1       2.181   7.436  20.233  0.00  0.00    +0.000 N 
ATOM     17  H   UNL     1       1.638   7.045  21.005  0.00  0.00    +0.000 HD
BRANCH  16  18
ATOM     18  C   UNL     1       2.992   6.512  19.475  0.00  0.00    +0.000 C 
BRANCH  18  19
ATOM     19  C   UNL     1       2.285   5.201  19.271  0.00  0.00    +0.000 A 
ATOM     20  C   UNL     1       1.517   4.625  20.290  0.00  0.00    +0.000 A 
ATOM     21  C   UNL     1       0.846   3.416  20.059  0.00  0.00    +0.000 A 
ATOM     22  C   UNL     1       0.960   2.791  18.828  0.00  0.00    +0.000 A 
ATOM     23  F   UNL     1       0.311   1.639  18.607  0.00  0.00    +0.000 F 
ATOM     24  C   UNL     1       1.739   3.341  17.813  0.00  0.00    +0.000 A 
ATOM     25  C   UNL     1       2.404   4.544  18.040  0.00  0.00    +0.000 A 
ENDBRANCH  18  19
ENDBRANCH  16  18
ENDBRANCH   1  14
TORSDOF 6
ENDMDL
MODEL 6
REMARK VINA RESULT:      -6.8      4.537      6.417
REMARK  Name = 
REMARK  8 active torsions:
REMARK  status: ('A' for Active; 'I' for Inactive)
REMARK    1  A    between atoms: C_1  and  C_2
REMARK    2  A    between atoms: C_2  and  C_3
REMARK    3  A    between atoms: C_5  and  C_6
REMARK    4  A    between atoms: C_6  and  C_7
REMARK    5  A    between atoms: N_10  and  C_11
REMARK    6  A    between atoms: C_11  and  C_12
REMARK    7  A    between atoms: N_14  and  C_15
REMARK    8  A    between atoms: C_15  and  C_16
REMARK                            x       y       z     vdW  Elec       q    Type
REMARK                         _______ _______ _______ _____ _____    ______ ____
ROOT
ATOM      1  C   UNL     1       3.998   3.139  20.583  0.00  0.00    +0.000 C 
ENDROOT
BRANCH   1   7
ATOM      2  C   UNL     1       3.272   3.187  16.958  0.00  0.00    +0.000 C 
ATOM      3  S   UNL     1       4.707   3.951  16.139  0.00  0.00    +0.000 S 
ATOM      4  C   UNL     1       5.278   4.987  17.530  0.00  0.00    +0.000 C 
ATOM      5  C   UNL     1       5.333   4.217  18.864  0.00  0.00    +0.000 C 
ATOM      6  O   UNL     1       6.278   4.311  19.650  0.00  0.00    +0.000 OA
ATOM      7  N   UNL     1       4.177   3.515  19.190  0.00  0.00    +0.000 N 
ATOM      8  C   UNL     1       3.766   2.573  18.261  0.00  0.00    +0.000 C 
ATOM      9  O   UNL     1       3.786   1.362  18.464  0.00  0.00    +0.000 OA
BRANCH   2  11
ATOM     10  C   UNL     1       0.980   3.579  18.097  0.00  0.00    +0.000 C 
ATOM     11  C   UNL     1       2.125   4.158  17.283  0.00  0.00    +0.000 C 
ENDBRANCH   2  11
BRANCH   4  12
ATOM     12  C   UNL     1       6.585   5.713  17.184  0.00  0.00    +0.000 C 
ATOM     13  C   UNL     1       6.551   7.230  17.323  0.00  0.00    +0.000 C 
ENDBRANCH   4  12
ENDBRANCH   1   7
BRANCH   1  14
ATOM     14  C   UNL     1       2.852   3.972  21.158  0.00  0.00    +0.000 C 
ATOM     15  O   UNL     1       2.019   3.500  21.929  0.00  0.00    +0.000 OA
ATOM     16  N   UNL     1       2.776   5.253  20.660  0.00  0.00    +0.000 N 
ATOM     17  H   UNL     1       3.219   5.414  19.753  0.00  0.00    +0.000 HD
BRANCH  16  18
ATOM     18  C   UNL     1       1.703   6.147  21.027  0.00  0.00    +0.000 C 
BRANCH  18  19
ATOM     19  C   UNL     1       1.694   7.378  20.164  0.00  0.00    +0.000 A 
ATOM     20  C   UNL     1       2.305   7.386  18.904  0.00  0.00    +0.000 A 
ATOM     21  C   UNL     1       2.254   8.540  18.112  0.00  0.00    +0.000 A 
ATOM     22  C   UNL     1       1.612   9.673  18.586  0.00  0.00    +0.000 A 
ATOM     23  F   UNL     1       1.558  10.773  17.822  0.00  0.00    +0.000 F 
ATOM     24  C   UNL     1       1.020   9.686  19.847  0.00  0.00    +0.000 A 
ATOM     25  C   UNL     1       1.067   8.538  20.635  0.00  0.00    +0.000 A 
ENDBRANCH  18  19
ENDBRANCH  16  18
ENDBRANCH   1  14
TORSDOF 6
ENDMDL
MODEL 7
REMARK VINA RESULT:      -6.7      6.803      9.903
REMARK  Name = 
REMARK  8 active torsions:
REMARK  status: ('A' for Active; 'I' for Inactive)
REMARK    1  A    between atoms: C_1  and  C_2
REMARK    2  A    between atoms: C_2  and  C_3
REMARK    3  A    between atoms: C_5  and  C_6
REMARK    4  A    between atoms: C_6  and  C_7
REMARK    5  A    between atoms: N_10  and  C_11
REMARK    6  A    between atoms: C_11  and  C_12
REMARK    7  A    between atoms: N_14  and  C_15
REMARK    8  A    between atoms: C_15  and  C_16
REMARK                            x       y       z     vdW  Elec       q    Type
REMARK                         _______ _______ _______ _____ _____    ______ ____
ROOT
ATOM      1  C   UNL     1       1.572   9.493  17.973  0.00  0.00    +0.000 C 
ENDROOT
BRANCH   1   7
ATOM      2  C   UNL     1      -0.947  11.245  20.036  0.00  0.00    +0.000 C 
ATOM      3  S   UNL     1      -0.431  12.988  20.137  0.00  0.00    +0.000 S 
ATOM      4  C   UNL     1       1.365  12.740  19.920  0.00  0.00    +0.000 C 
ATOM      5  C   UNL     1       1.699  11.789  18.753  0.00  0.00    +0.000 C 
ATOM      6  O   UNL     1       2.596  12.021  17.940  0.00  0.00    +0.000 OA
ATOM      7  N   UNL     1       1.012  10.580  18.761  0.00  0.00    +0.000 N 
ATOM      8  C   UNL     1      -0.370  10.674  18.748  0.00  0.00    +0.000 C 
ATOM      9  O   UNL     1      -1.068  10.326  17.799  0.00  0.00    +0.000 OA
BRANCH   2  11
ATOM     10  C   UNL     1      -0.821  10.881  22.597  0.00  0.00    +0.000 C 
ATOM     11  C   UNL     1      -0.479  10.367  21.209  0.00  0.00    +0.000 C 
ENDBRANCH   2  11
BRANCH   4  12
ATOM     12  C   UNL     1       2.109  14.080  19.853  0.00  0.00    +0.000 C 
ATOM     13  C   UNL     1       1.241  15.323  20.005  0.00  0.00    +0.000 C 
ENDBRANCH   4  12
ENDBRANCH   1   7
BRANCH   1  14
ATOM     14  C   UNL     1       1.955   8.361  18.928  0.00  0.00    +0.000 C 
ATOM     15  O   UNL     1       1.587   8.337  20.101  0.00  0.00    +0.000 OA
ATOM     16  N   UNL     1       2.824   7.438  18.393  0.00  0.00    +0.000 N 
ATOM     17  H   UNL     1       3.389   7.751  17.602  0.00  0.00    +0.000 HD
BRANCH  16  18
ATOM     18  C   UNL     1       3.359   6.353  19.183  0.00  0.00    +0.000 C 
BRANCH  18  19
ATOM     19  C   UNL     1       2.541   5.101  19.023  0.00  0.00    +0.000 A 
ATOM     20  C   UNL     1       2.610   4.335  17.853  0.00  0.00    +0.000 A 
ATOM     21  C   UNL     1       1.858   3.158  17.747  0.00  0.00    +0.000 A 
ATOM     22  C   UNL     1       1.038   2.768  18.794  0.00  0.00    +0.000 A 
ATOM     23  F   UNL     1       0.326   1.637  18.692  0.00  0.00    +0.000 F 
ATOM     24  C   UNL     1       0.943   3.533  19.953  0.00  0.00    +0.000 A 
ATOM     25  C   UNL     1       1.693   4.702  20.062  0.00  0.00    +0.000 A 
ENDBRANCH  18  19
ENDBRANCH  16  18
ENDBRANCH   1  14
TORSDOF 6
ENDMDL
MODEL 8
REMARK VINA RESULT:      -6.7      6.891     10.162
REMARK  Name = 
REMARK  8 active torsions:
REMARK  status: ('A' for Active; 'I' for Inactive)
REMARK    1  A    between atoms: C_1  and  C_2
REMARK    2  A    between atoms: C_2  and  C_3
REMARK    3  A    between atoms: C_5  and  C_6
REMARK    4  A    between atoms: C_6  and  C_7
REMARK    5  A    between atoms: N_10  and  C_11
REMARK    6  A    between atoms: C_11  and  C_12
REMARK    7  A    between atoms: N_14  and  C_15
REMARK    8  A    between atoms: C_15  and  C_16
REMARK                            x       y       z     vdW  Elec       q    Type
REMARK                         _______ _______ _______ _____ _____    ______ ____
ROOT
ATOM      1  C   UNL     1       0.615  10.013  18.627  0.00  0.00    +0.000 C 
ENDROOT
BRANCH   1   7
ATOM      2  C   UNL     1      -0.760  12.557  20.931  0.00  0.00    +0.000 C 
ATOM      3  S   UNL     1       0.312  14.022  20.806  0.00  0.00    +0.000 S 
ATOM      4  C   UNL     1       1.853  13.174  20.315  0.00  0.00    +0.000 C 
ATOM      5  C   UNL     1       1.635  12.144  19.188  0.00  0.00    +0.000 C 
ATOM      6  O   UNL     1       2.394  12.042  18.223  0.00  0.00    +0.000 OA
ATOM      7  N   UNL     1       0.601  11.240  19.407  0.00  0.00    +0.000 N 
ATOM      8  C   UNL     1      -0.650  11.799  19.615  0.00  0.00    +0.000 C 
ATOM      9  O   UNL     1      -1.585  11.690  18.826  0.00  0.00    +0.000 OA
BRANCH   2  11
ATOM     10  C   UNL     1      -1.518  11.305  23.068  0.00  0.00    +0.000 C 
ATOM     11  C   UNL     1      -0.403  11.595  22.077  0.00  0.00    +0.000 C 
ENDBRANCH   2  11
BRANCH   4  12
ATOM     12  C   UNL     1       2.974  14.180  20.019  0.00  0.00    +0.000 C 
ATOM     13  C   UNL     1       2.545  15.445  19.285  0.00  0.00    +0.000 C 
ENDBRANCH   4  12
ENDBRANCH   1   7
BRANCH   1  14
ATOM     14  C   UNL     1       1.274   8.921  19.471  0.00  0.00    +0.000 C 
ATOM     15  O   UNL     1       1.178   8.888  20.696  0.00  0.00    +0.000 OA
ATOM     16  N   UNL     1       2.062   8.049  18.754  0.00  0.00    +0.000 N 
ATOM     17  H   UNL     1       2.415   8.388  17.858  0.00  0.00    +0.000 HD
BRANCH  16  18
ATOM     18  C   UNL     1       2.829   7.011  19.403  0.00  0.00    +0.000 C 
BRANCH  18  19
ATOM     19  C   UNL     1       2.200   5.660  19.210  0.00  0.00    +0.000 A 
ATOM     20  C   UNL     1       2.190   5.037  17.956  0.00  0.00    +0.000 A 
ATOM     21  C   UNL     1       1.621   3.764  17.815  0.00  0.00    +0.000 A 
ATOM     22  C   UNL     1       1.058   3.136  18.914  0.00  0.00    +0.000 A 
ATOM     23  F   UNL     1       0.522   1.915  18.777  0.00  0.00    +0.000 F 
ATOM     24  C   UNL     1       1.040   3.754  20.162  0.00  0.00    +0.000 A 
ATOM     25  C   UNL     1       1.608   5.018  20.305  0.00  0.00    +0.000 A 
ENDBRANCH  18  19
ENDBRANCH  16  18
ENDBRANCH   1  14
TORSDOF 6
ENDMDL
MODEL 9
REMARK VINA RESULT:      -6.7      6.548      9.913
REMARK  Name = 
REMARK  8 active torsions:
REMARK  status: ('A' for Active; 'I' for Inactive)
REMARK    1  A    between atoms: C_1  and  C_2
REMARK    2  A    between atoms: C_2  and  C_3
REMARK    3  A    between atoms: C_5  and  C_6
REMARK    4  A    between atoms: C_6  and  C_7
REMARK    5  A    between atoms: N_10  and  C_11
REMARK    6  A    between atoms: C_11  and  C_12
REMARK    7  A    between atoms: N_14  and  C_15
REMARK    8  A    between atoms: C_15  and  C_16
REMARK                            x       y       z     vdW  Elec       q    Type
REMARK                         _______ _______ _______ _____ _____    ______ ____
ROOT
ATOM      1  C   UNL     1       1.077   9.685  18.423  0.00  0.00    +0.000 C 
ENDROOT
BRANCH   1   7
ATOM      2  C   UNL     1      -0.612  11.635  21.071  0.00  0.00    +0.000 C 
ATOM      3  S   UNL     1       0.063  13.324  20.999  0.00  0.00    +0.000 S 
ATOM      4  C   UNL     1       1.701  12.919  20.301  0.00  0.00    +0.000 C 
ATOM      5  C   UNL     1       1.616  11.953  19.102  0.00  0.00    +0.000 C 
ATOM      6  O   UNL     1       2.272  12.112  18.071  0.00  0.00    +0.000 OA
ATOM      7  N   UNL     1       0.854  10.810  19.317  0.00  0.00    +0.000 N 
ATOM      8  C   UNL     1      -0.465  11.027  19.682  0.00  0.00    +0.000 C 
ATOM      9  O   UNL     1      -1.424  10.752  18.968  0.00  0.00    +0.000 OA
BRANCH   2  11
ATOM     10  C   UNL     1      -0.825  10.073  23.125  0.00  0.00    +0.000 C 
ATOM     11  C   UNL     1       0.080  10.708  22.083  0.00  0.00    +0.000 C 
ENDBRANCH   2  11
BRANCH   4  12
ATOM     12  C   UNL     1       2.513  14.188  20.011  0.00  0.00    +0.000 C 
ATOM     13  C   UNL     1       3.800  14.342  20.813  0.00  0.00    +0.000 C 
ENDBRANCH   4  12
ENDBRANCH   1   7
BRANCH   1  14
ATOM     14  C   UNL     1       1.674   8.538  19.240  0.00  0.00    +0.000 C 
ATOM     15  O   UNL     1       1.503   8.437  20.453  0.00  0.00    +0.000 OA
ATOM     16  N   UNL     1       2.497   7.699  18.523  0.00  0.00    +0.000 N 
ATOM     17  H   UNL     1       2.906   8.085  17.671  0.00  0.00    +0.000 HD
BRANCH  16  18
ATOM     18  C   UNL     1       3.213   6.617  19.157  0.00  0.00    +0.000 C 
BRANCH  18  19
ATOM     19  C   UNL     1       2.459   5.321  19.050  0.00  0.00    +0.000 A 
ATOM     20  C   UNL     1       1.717   4.822  20.127  0.00  0.00    +0.000 A 
ATOM     21  C   UNL     1       1.001   3.626  19.986  0.00  0.00    +0.000 A 
ATOM     22  C   UNL     1       1.043   2.936  18.786  0.00  0.00    +0.000 A 
ATOM     23  F   UNL     1       0.350   1.797  18.652  0.00  0.00    +0.000 F 
ATOM     24  C   UNL     1       1.795   3.409  17.713  0.00  0.00    +0.000 A 
ATOM     25  C   UNL     1       2.505   4.600  17.851  0.00  0.00    +0.000 A 
ENDBRANCH  18  19
ENDBRANCH  16  18
ENDBRANCH   1  14
TORSDOF 6
ENDMDL
