MODEL 1
REMARK VINA RESULT:      -7.3      0.000      0.000
REMARK  Name = 
REMARK  9 active torsions:
REMARK  status: ('A' for Active; 'I' for Inactive)
REMARK    1  A    between atoms: C_1  and  C_2
REMARK    2  A    between atoms: C_2  and  O_3
REMARK    3  A    between atoms: O_3  and  C_4
REMARK    4  A    between atoms: C_7  and  N_8
REMARK    5  A    between atoms: C_9  and  C_11
REMARK    6  A    between atoms: C_15  and  C_16
REMARK    7  A    between atoms: C_19  and  O_20
REMARK    8  A    between atoms: O_20  and  C_21
REMARK    9  A    between atoms: C_26  and  C_27
REMARK                            x       y       z     vdW  Elec       q    Type
REMARK                         _______ _______ _______ _____ _____    ______ ____
ROOT
ATOM      1  C   UNL     1       0.450  10.326  20.803  0.00  0.00    +0.000 A 
ATOM      2  S   UNL     1       0.811   8.823  21.671  0.00  0.00    +0.000 S 
ATOM      3  C   UNL     1       1.580   8.231  20.236  0.00  0.00    +0.000 A 
ATOM      4  N   UNL     1       2.232   7.146  19.933  0.00  0.00    +0.000 NA
ATOM      5  C   UNL     1       2.625   7.360  18.618  0.00  0.00    +0.000 A 
ATOM      6  C   UNL     1       2.169   8.587  18.156  0.00  0.00    +0.000 A 
ATOM      7  N   UNL     1       1.515   9.137  19.221  0.00  0.00    +0.000 N 
ATOM      8  C   UNL     1       0.874  10.327  19.517  0.00  0.00    +0.000 A 
ATOM      9  C   UNL     1       0.742  11.420  18.510  0.00  0.00    +0.000 C 
ENDROOT
BRANCH   5  10
ATOM     10  C   UNL     1       3.434   6.401  17.876  0.00  0.00    +0.000 A 
ATOM     11  C   UNL     1       4.565   6.850  17.184  0.00  0.00    +0.000 A 
ATOM     12  C   UNL     1       5.351   5.962  16.444  0.00  0.00    +0.000 A 
ATOM     13  C   UNL     1       5.032   4.606  16.397  0.00  0.00    +0.000 A 
ATOM     14  C   UNL     1       3.902   4.146  17.072  0.00  0.00    +0.000 A 
ATOM     15  C   UNL     1       3.108   5.039  17.807  0.00  0.00    +0.000 A 
BRANCH  13  16
ATOM     16  O   UNL     1       5.861   3.836  15.631  0.00  0.00    +0.000 OA
ATOM     17  C   UNL     1       5.840   4.111  14.235  0.00  0.00    +0.000 C 
ENDBRANCH  13  16
ENDBRANCH   5  10
BRANCH   1  19
ATOM     18  N   UNL     1      -1.588  11.474  21.448  0.00  0.00    +0.000 N 
ATOM     19  C   UNL     1      -0.208  11.478  21.492  0.00  0.00    +0.000 C 
ATOM     20  O   UNL     1       0.492  12.322  22.042  0.00  0.00    +0.000 OA
ATOM     21  H   UNL     1      -2.027  10.727  20.922  0.00  0.00    +0.000 HD
BRANCH  18  25
ATOM     22  C   UNL     1      -4.188  14.287  23.241  0.00  0.00    +0.000 A 
ATOM     23  C   UNL     1      -3.751  13.188  23.973  0.00  0.00    +0.000 A 
ATOM     24  C   UNL     1      -2.885  12.255  23.403  0.00  0.00    +0.000 A 
ATOM     25  C   UNL     1      -2.455  12.392  22.083  0.00  0.00    +0.000 A 
ATOM     26  C   UNL     1      -2.919  13.485  21.341  0.00  0.00    +0.000 A 
ATOM     27  C   UNL     1      -3.788  14.427  21.915  0.00  0.00    +0.000 A 
BRANCH  22  28
ATOM     28  O   UNL     1      -5.017  15.130  23.924  0.00  0.00    +0.000 OA
BRANCH  28  30
ATOM     29  C   UNL     1      -7.311  14.527  23.962  0.00  0.00    +0.000 C 
ATOM     30  C   UNL     1      -6.270  15.421  23.312  0.00  0.00    +0.000 C 
ENDBRANCH  28  30
ENDBRANCH  22  28
ENDBRANCH  18  25
ENDBRANCH   1  19
TORSDOF 6
ENDMDL
MODEL 2
REMARK VINA RESULT:      -7.3      0.515      1.358
REMARK  Name = 
REMARK  9 active torsions:
REMARK  status: ('A' for Active; 'I' for Inactive)
REMARK    1  A    between atoms: C_1  and  C_2
REMARK    2  A    between atoms: C_2  and  O_3
REMARK    3  A    between atoms: O_3  and  C_4
REMARK    4  A    between atoms: C_7  and  N_8
REMARK    5  A    between atoms: C_9  and  C_11
REMARK    6  A    between atoms: C_15  and  C_16
REMARK    7  A    between atoms: C_19  and  O_20
REMARK    8  A    between atoms: O_20  and  C_21
REMARK    9  A    between atoms: C_26  and  C_27
REMARK                            x       y       z     vdW  Elec       q    Type
REMARK                         _______ _______ _______ _____ _____    ______ ____
ROOT
ATOM      1  C   UNL     1       0.079  10.597  20.971  0.00  0.00    +0.000 A 
ATOM      2  S   UNL     1       0.547   9.145  21.874  0.00  0.00    +0.000 S 
ATOM      3  C   UNL     1       1.283   8.537  20.429  0.00  0.00    +0.000 A 
ATOM      4  N   UNL     1       1.972   7.472  20.137  0.00  0.00    +0.000 NA
ATOM      5  C   UNL     1       2.300   7.654  18.799  0.00  0.00    +0.000 A 
ATOM      6  C   UNL     1       1.767   8.841  18.315  0.00  0.00    +0.000 A 
ATOM      7  N   UNL     1       1.133   9.400  19.387  0.00  0.00    +0.000 N 
ATOM      8  C   UNL     1       0.449  10.569  19.668  0.00  0.00    +0.000 A 
ATOM      9  C   UNL     1       0.222  11.617  18.630  0.00  0.00    +0.000 C 
ENDROOT
BRANCH   5  10
ATOM     10  C   UNL     1       3.121   6.707  18.057  0.00  0.00    +0.000 A 
ATOM     11  C   UNL     1       2.833   5.339  18.138  0.00  0.00    +0.000 A 
ATOM     12  C   UNL     1       3.613   4.401  17.458  0.00  0.00    +0.000 A 
ATOM     13  C   UNL     1       4.685   4.813  16.668  0.00  0.00    +0.000 A 
ATOM     14  C   UNL     1       4.992   6.170  16.586  0.00  0.00    +0.000 A 
ATOM     15  C   UNL     1       4.214   7.111  17.276  0.00  0.00    +0.000 A 
BRANCH  13  16
ATOM     16  O   UNL     1       5.385   3.807  16.062  0.00  0.00    +0.000 OA
ATOM     17  C   UNL     1       6.149   4.188  14.924  0.00  0.00    +0.000 C 
ENDBRANCH  13  16
ENDBRANCH   5  10
BRANCH   1  19
ATOM     18  N   UNL     1      -1.983  11.718  21.585  0.00  0.00    +0.000 N 
ATOM     19  C   UNL     1      -0.604  11.742  21.646  0.00  0.00    +0.000 C 
ATOM     20  O   UNL     1       0.077  12.599  22.201  0.00  0.00    +0.000 OA
ATOM     21  H   UNL     1      -2.404  10.963  21.057  0.00  0.00    +0.000 HD
BRANCH  18  25
ATOM     22  C   UNL     1      -4.617  14.382  23.549  0.00  0.00    +0.000 A 
ATOM     23  C   UNL     1      -4.372  14.533  22.189  0.00  0.00    +0.000 A 
ATOM     24  C   UNL     1      -3.514  13.658  21.521  0.00  0.00    +0.000 A 
ATOM     25  C   UNL     1      -2.871  12.627  22.205  0.00  0.00    +0.000 A 
ATOM     26  C   UNL     1      -3.099  12.495  23.580  0.00  0.00    +0.000 A 
ATOM     27  C   UNL     1      -3.965  13.373  24.252  0.00  0.00    +0.000 A 
BRANCH  22  28
ATOM     28  O   UNL     1      -5.488  15.292  24.073  0.00  0.00    +0.000 OA
BRANCH  28  30
ATOM     29  C   UNL     1      -7.662  14.345  23.995  0.00  0.00    +0.000 C 
ATOM     30  C   UNL     1      -6.748  15.413  23.420  0.00  0.00    +0.000 C 
ENDBRANCH  28  30
ENDBRANCH  22  28
ENDBRANCH  18  25
ENDBRANCH   1  19
TORSDOF 6
ENDMDL
MODEL 3
REMARK VINA RESULT:      -7.3      0.757      1.277
REMARK  Name = 
REMARK  9 active torsions:
REMARK  status: ('A' for Active; 'I' for Inactive)
REMARK    1  A    between atoms: C_1  and  C_2
REMARK    2  A    between atoms: C_2  and  O_3
REMARK    3  A    between atoms: O_3  and  C_4
REMARK    4  A    between atoms: C_7  and  N_8
REMARK    5  A    between atoms: C_9  and  C_11
REMARK    6  A    between atoms: C_15  and  C_16
REMARK    7  A    between atoms: C_19  and  O_20
REMARK    8  A    between atoms: O_20  and  C_21
REMARK    9  A    between atoms: C_26  and  C_27
REMARK                            x       y       z     vdW  Elec       q    Type
REMARK                         _______ _______ _______ _____ _____    ______ ____
ROOT
ATOM      1  C   UNL     1       0.445  10.329  20.704  0.00  0.00    +0.000 A 
ATOM      2  S   UNL     1       0.749   8.806  21.558  0.00  0.00    +0.000 S 
ATOM      3  C   UNL     1       1.547   8.219  20.137  0.00  0.00    +0.000 A 
ATOM      4  N   UNL     1       2.184   7.125  19.836  0.00  0.00    +0.000 NA
ATOM      5  C   UNL     1       2.619   7.350  18.535  0.00  0.00    +0.000 A 
ATOM      6  C   UNL     1       2.201   8.593  18.080  0.00  0.00    +0.000 A 
ATOM      7  N   UNL     1       1.529   9.141  19.134  0.00  0.00    +0.000 N 
ATOM      8  C   UNL     1       0.905  10.339  19.430  0.00  0.00    +0.000 A 
ATOM      9  C   UNL     1       0.823  11.450  18.436  0.00  0.00    +0.000 C 
ENDROOT
BRANCH   5  10
ATOM     10  C   UNL     1       3.428   6.385  17.802  0.00  0.00    +0.000 A 
ATOM     11  C   UNL     1       4.463   6.845  16.979  0.00  0.00    +0.000 A 
ATOM     12  C   UNL     1       5.245   5.950  16.244  0.00  0.00    +0.000 A 
ATOM     13  C   UNL     1       5.020   4.577  16.332  0.00  0.00    +0.000 A 
ATOM     14  C   UNL     1       3.985   4.105  17.138  0.00  0.00    +0.000 A 
ATOM     15  C   UNL     1       3.195   5.004  17.869  0.00  0.00    +0.000 A 
BRANCH  13  16
ATOM     16  O   UNL     1       5.835   3.799  15.558  0.00  0.00    +0.000 OA
ATOM     17  C   UNL     1       6.740   4.505  14.717  0.00  0.00    +0.000 C 
ENDBRANCH  13  16
ENDBRANCH   5  10
BRANCH   1  19
ATOM     18  N   UNL     1      -1.584  11.534  21.272  0.00  0.00    +0.000 N 
ATOM     19  C   UNL     1      -0.209  11.485  21.391  0.00  0.00    +0.000 C 
ATOM     20  O   UNL     1       0.489  12.285  22.005  0.00  0.00    +0.000 OA
ATOM     21  H   UNL     1      -2.019  10.820  20.700  0.00  0.00    +0.000 HD
BRANCH  18  25
ATOM     22  C   UNL     1      -4.168  14.259  23.218  0.00  0.00    +0.000 A 
ATOM     23  C   UNL     1      -3.819  14.469  21.888  0.00  0.00    +0.000 A 
ATOM     24  C   UNL     1      -2.976  13.576  21.226  0.00  0.00    +0.000 A 
ATOM     25  C   UNL     1      -2.451  12.466  21.887  0.00  0.00    +0.000 A 
ATOM     26  C   UNL     1      -2.782  12.272  23.233  0.00  0.00    +0.000 A 
ATOM     27  C   UNL     1      -3.633  13.169  23.899  0.00  0.00    +0.000 A 
BRANCH  22  28
ATOM     28  O   UNL     1      -5.012  15.196  23.738  0.00  0.00    +0.000 OA
BRANCH  28  30
ATOM     29  C   UNL     1      -3.860  16.773  25.086  0.00  0.00    +0.000 C 
ATOM     30  C   UNL     1      -4.538  16.540  23.747  0.00  0.00    +0.000 C 
ENDBRANCH  28  30
ENDBRANCH  22  28
ENDBRANCH  18  25
ENDBRANCH   1  19
TORSDOF 6
ENDMDL
MODEL 4
REMARK VINA RESULT:      -7.2      1.255      1.706
REMARK  Name = 
REMARK  9 active torsions:
REMARK  status: ('A' for Active; 'I' for Inactive)
REMARK    1  A    between atoms: C_1  and  C_2
REMARK    2  A    between atoms: C_2  and  O_3
REMARK    3  A    between atoms: O_3  and  C_4
REMARK    4  A    between atoms: C_7  and  N_8
REMARK    5  A    between atoms: C_9  and  C_11
REMARK    6  A    between atoms: C_15  and  C_16
REMARK    7  A    between atoms: C_19  and  O_20
REMARK    8  A    between atoms: O_20  and  C_21
REMARK    9  A    between atoms: C_26  and  C_27
REMARK                            x       y       z     vdW  Elec       q    Type
REMARK                         _______ _______ _______ _____ _____    ______ ____
ROOT
ATOM      1  C   UNL     1       0.125  11.069  20.794  0.00  0.00    +0.000 A 
ATOM      2  S   UNL     1       0.478  11.276  19.069  0.00  0.00    +0.000 S 
ATOM      3  C   UNL     1       1.263   9.732  19.089  0.00  0.00    +0.000 A 
ATOM      4  N   UNL     1       1.823   8.984  18.184  0.00  0.00    +0.000 NA
ATOM      5  C   UNL     1       2.195   7.846  18.889  0.00  0.00    +0.000 A 
ATOM      6  C   UNL     1       1.856   7.959  20.230  0.00  0.00    +0.000 A 
ATOM      7  N   UNL     1       1.241   9.174  20.331  0.00  0.00    +0.000 N 
ATOM      8  C   UNL     1       0.609   9.915  21.313  0.00  0.00    +0.000 A 
ATOM      9  C   UNL     1       0.491   9.422  22.717  0.00  0.00    +0.000 C 
ENDROOT
BRANCH   5  10
ATOM     10  C   UNL     1       2.830   6.700  18.250  0.00  0.00    +0.000 A 
ATOM     11  C   UNL     1       4.015   6.888  17.529  0.00  0.00    +0.000 A 
ATOM     12  C   UNL     1       4.640   5.817  16.885  0.00  0.00    +0.000 A 
ATOM     13  C   UNL     1       4.101   4.533  16.965  0.00  0.00    +0.000 A 
ATOM     14  C   UNL     1       2.915   4.333  17.669  0.00  0.00    +0.000 A 
ATOM     15  C   UNL     1       2.284   5.410  18.308  0.00  0.00    +0.000 A 
BRANCH  13  16
ATOM     16  O   UNL     1       4.788   3.568  16.283  0.00  0.00    +0.000 OA
ATOM     17  C   UNL     1       6.020   3.982  15.705  0.00  0.00    +0.000 C 
ENDBRANCH  13  16
ENDBRANCH   5  10
BRANCH   1  19
ATOM     18  N   UNL     1      -2.054  11.915  21.445  0.00  0.00    +0.000 N 
ATOM     19  C   UNL     1      -0.686  12.076  21.545  0.00  0.00    +0.000 C 
ATOM     20  O   UNL     1      -0.108  12.947  22.188  0.00  0.00    +0.000 OA
ATOM     21  H   UNL     1      -2.384  11.169  20.845  0.00  0.00    +0.000 HD
BRANCH  18  25
ATOM     22  C   UNL     1      -5.029  14.245  23.345  0.00  0.00    +0.000 A 
ATOM     23  C   UNL     1      -4.433  13.193  24.033  0.00  0.00    +0.000 A 
ATOM     24  C   UNL     1      -3.442  12.420  23.427  0.00  0.00    +0.000 A 
ATOM     25  C   UNL     1      -3.043  12.671  22.115  0.00  0.00    +0.000 A 
ATOM     26  C   UNL     1      -3.665  13.713  21.416  0.00  0.00    +0.000 A 
ATOM     27  C   UNL     1      -4.660  14.494  22.026  0.00  0.00    +0.000 A 
BRANCH  22  28
ATOM     28  O   UNL     1      -5.969  14.930  24.060  0.00  0.00    +0.000 OA
BRANCH  28  30
ATOM     29  C   UNL     1      -4.933  16.905  24.869  0.00  0.00    +0.000 C 
ATOM     30  C   UNL     1      -5.970  16.346  23.910  0.00  0.00    +0.000 C 
ENDBRANCH  28  30
ENDBRANCH  22  28
ENDBRANCH  18  25
ENDBRANCH   1  19
TORSDOF 6
ENDMDL
MODEL 5
REMARK VINA RESULT:      -7.2      1.659      2.258
REMARK  Name = 
REMARK  9 active torsions:
REMARK  status: ('A' for Active; 'I' for Inactive)
REMARK    1  A    between atoms: C_1  and  C_2
REMARK    2  A    between atoms: C_2  and  O_3
REMARK    3  A    between atoms: O_3  and  C_4
REMARK    4  A    between atoms: C_7  and  N_8
REMARK    5  A    between atoms: C_9  and  C_11
REMARK    6  A    between atoms: C_15  and  C_16
REMARK    7  A    between atoms: C_19  and  O_20
REMARK    8  A    between atoms: O_20  and  C_21
REMARK    9  A    between atoms: C_26  and  C_27
REMARK                            x       y       z     vdW  Elec       q    Type
REMARK                         _______ _______ _______ _____ _____    ______ ____
ROOT
ATOM      1  C   UNL     1       0.006  10.649  20.107  0.00  0.00    +0.000 A 
ATOM      2  S   UNL     1       0.803  11.154  18.606  0.00  0.00    +0.000 S 
ATOM      3  C   UNL     1       1.606   9.619  18.568  0.00  0.00    +0.000 A 
ATOM      4  N   UNL     1       2.415   9.036  17.733  0.00  0.00    +0.000 NA
ATOM      5  C   UNL     1       2.621   7.785  18.301  0.00  0.00    +0.000 A 
ATOM      6  C   UNL     1       1.929   7.663  19.499  0.00  0.00    +0.000 A 
ATOM      7  N   UNL     1       1.269   8.850  19.640  0.00  0.00    +0.000 N 
ATOM      8  C   UNL     1       0.370   9.415  20.527  0.00  0.00    +0.000 A 
ATOM      9  C   UNL     1      -0.105   8.682  21.738  0.00  0.00    +0.000 C 
ENDROOT
BRANCH   5  10
ATOM     10  C   UNL     1       3.444   6.762  17.669  0.00  0.00    +0.000 A 
ATOM     11  C   UNL     1       3.110   5.413  17.839  0.00  0.00    +0.000 A 
ATOM     12  C   UNL     1       3.889   4.404  17.265  0.00  0.00    +0.000 A 
ATOM     13  C   UNL     1       5.005   4.726  16.494  0.00  0.00    +0.000 A 
ATOM     14  C   UNL     1       5.356   6.065  16.324  0.00  0.00    +0.000 A 
ATOM     15  C   UNL     1       4.579   7.076  16.908  0.00  0.00    +0.000 A 
BRANCH  13  16
ATOM     16  O   UNL     1       5.699   3.659  15.996  0.00  0.00    +0.000 OA
ATOM     17  C   UNL     1       6.269   3.843  14.705  0.00  0.00    +0.000 C 
ENDBRANCH  13  16
ENDBRANCH   5  10
BRANCH   1  19
ATOM     18  N   UNL     1      -0.723  11.860  22.080  0.00  0.00    +0.000 N 
ATOM     19  C   UNL     1      -1.012  11.519  20.773  0.00  0.00    +0.000 C 
ATOM     20  O   UNL     1      -2.001  11.871  20.139  0.00  0.00    +0.000 OA
ATOM     21  H   UNL     1       0.116  11.460  22.481  0.00  0.00    +0.000 HD
BRANCH  18  25
ATOM     22  C   UNL     1      -3.038  14.376  24.570  0.00  0.00    +0.000 A 
ATOM     23  C   UNL     1      -1.807  14.818  24.097  0.00  0.00    +0.000 A 
ATOM     24  C   UNL     1      -1.034  14.007  23.266  0.00  0.00    +0.000 A 
ATOM     25  C   UNL     1      -1.468  12.730  22.908  0.00  0.00    +0.000 A 
ATOM     26  C   UNL     1      -2.694  12.278  23.409  0.00  0.00    +0.000 A 
ATOM     27  C   UNL     1      -3.475  13.095  24.243  0.00  0.00    +0.000 A 
BRANCH  22  28
ATOM     28  O   UNL     1      -3.699  15.274  25.357  0.00  0.00    +0.000 OA
BRANCH  28  30
ATOM     29  C   UNL     1      -4.961  17.075  24.469  0.00  0.00    +0.000 C 
ATOM     30  C   UNL     1      -3.597  16.643  24.980  0.00  0.00    +0.000 C 
ENDBRANCH  28  30
ENDBRANCH  22  28
ENDBRANCH  18  25
ENDBRANCH   1  19
TORSDOF 6
ENDMDL
MODEL 6
REMARK VINA RESULT:      -7.1      1.573      2.534
REMARK  Name = 
REMARK  9 active torsions:
REMARK  status: ('A' for Active; 'I' for Inactive)
REMARK    1  A    between atoms: C_1  and  C_2
REMARK    2  A    between atoms: C_2  and  O_3
REMARK    3  A    between atoms: O_3  and  C_4
REMARK    4  A    between atoms: C_7  and  N_8
REMARK    5  A    between atoms: C_9  and  C_11
REMARK    6  A    between atoms: C_15  and  C_16
REMARK    7  A    between atoms: C_19  and  O_20
REMARK    8  A    between atoms: O_20  and  C_21
REMARK    9  A    between atoms: C_26  and  C_27
REMARK                            x       y       z     vdW  Elec       q    Type
REMARK                         _______ _______ _______ _____ _____    ______ ____
ROOT
ATOM      1  C   UNL     1      -0.020  11.124  21.224  0.00  0.00    +0.000 A 
ATOM      2  S   UNL     1       0.471  11.276  19.527  0.00  0.00    +0.000 S 
ATOM      3  C   UNL     1       1.132   9.677  19.622  0.00  0.00    +0.000 A 
ATOM      4  N   UNL     1       1.698   8.874  18.768  0.00  0.00    +0.000 NA
ATOM      5  C   UNL     1       1.930   7.723  19.511  0.00  0.00    +0.000 A 
ATOM      6  C   UNL     1       1.504   7.884  20.822  0.00  0.00    +0.000 A 
ATOM      7  N   UNL     1       0.978   9.143  20.864  0.00  0.00    +0.000 N 
ATOM      8  C   UNL     1       0.335   9.946  21.789  0.00  0.00    +0.000 A 
ATOM      9  C   UNL     1       0.078   9.487  23.186  0.00  0.00    +0.000 C 
ENDROOT
BRANCH   5  10
ATOM     10  C   UNL     1       2.520   6.523  18.932  0.00  0.00    +0.000 A 
ATOM     11  C   UNL     1       2.129   5.267  19.413  0.00  0.00    +0.000 A 
ATOM     12  C   UNL     1       2.691   4.096  18.897  0.00  0.00    +0.000 A 
ATOM     13  C   UNL     1       3.639   4.157  17.878  0.00  0.00    +0.000 A 
ATOM     14  C   UNL     1       4.046   5.400  17.396  0.00  0.00    +0.000 A 
ATOM     15  C   UNL     1       3.489   6.576  17.921  0.00  0.00    +0.000 A 
BRANCH  13  16
ATOM     16  O   UNL     1       4.129   2.950  17.463  0.00  0.00    +0.000 OA
ATOM     17  C   UNL     1       3.529   1.805  18.057  0.00  0.00    +0.000 C 
ENDBRANCH  13  16
ENDBRANCH   5  10
BRANCH   1  19
ATOM     18  N   UNL     1      -2.171  12.141  21.706  0.00  0.00    +0.000 N 
ATOM     19  C   UNL     1      -0.805  12.201  21.902  0.00  0.00    +0.000 C 
ATOM     20  O   UNL     1      -0.210  13.038  22.573  0.00  0.00    +0.000 OA
ATOM     21  H   UNL     1      -2.512  11.410  21.093  0.00  0.00    +0.000 HD
BRANCH  18  25
ATOM     22  C   UNL     1      -5.076  14.585  23.570  0.00  0.00    +0.000 A 
ATOM     23  C   UNL     1      -4.666  14.869  22.272  0.00  0.00    +0.000 A 
ATOM     24  C   UNL     1      -3.716  14.069  21.636  0.00  0.00    +0.000 A 
ATOM     25  C   UNL     1      -3.145  12.980  22.294  0.00  0.00    +0.000 A 
ATOM     26  C   UNL     1      -3.540  12.713  23.610  0.00  0.00    +0.000 A 
ATOM     27  C   UNL     1      -4.498  13.516  24.250  0.00  0.00    +0.000 A 
BRANCH  22  28
ATOM     28  O   UNL     1      -6.022  15.435  24.065  0.00  0.00    +0.000 OA
BRANCH  28  30
ATOM     29  C   UNL     1      -4.786  17.189  25.078  0.00  0.00    +0.000 C 
ATOM     30  C   UNL     1      -5.743  16.827  23.955  0.00  0.00    +0.000 C 
ENDBRANCH  28  30
ENDBRANCH  22  28
ENDBRANCH  18  25
ENDBRANCH   1  19
TORSDOF 6
ENDMDL
MODEL 7
REMARK VINA RESULT:      -7.1      1.743      2.191
REMARK  Name = 
REMARK  9 active torsions:
REMARK  status: ('A' for Active; 'I' for Inactive)
REMARK    1  A    between atoms: C_1  and  C_2
REMARK    2  A    between atoms: C_2  and  O_3
REMARK    3  A    between atoms: O_3  and  C_4
REMARK    4  A    between atoms: C_7  and  N_8
REMARK    5  A    between atoms: C_9  and  C_11
REMARK    6  A    between atoms: C_15  and  C_16
REMARK    7  A    between atoms: C_19  and  O_20
REMARK    8  A    between atoms: O_20  and  C_21
REMARK    9  A    between atoms: C_26  and  C_27
REMARK                            x       y       z     vdW  Elec       q    Type
REMARK                         _______ _______ _______ _____ _____    ______ ____
ROOT
ATOM      1  C   UNL     1       0.105  10.969  20.992  0.00  0.00    +0.000 A 
ATOM      2  S   UNL     1       0.647  11.014  19.305  0.00  0.00    +0.000 S 
ATOM      3  C   UNL     1       1.293   9.420  19.516  0.00  0.00    +0.000 A 
ATOM      4  N   UNL     1       1.878   8.564  18.730  0.00  0.00    +0.000 NA
ATOM      5  C   UNL     1       2.079   7.458  19.547  0.00  0.00    +0.000 A 
ATOM      6  C   UNL     1       1.617   7.701  20.834  0.00  0.00    +0.000 A 
ATOM      7  N   UNL     1       1.099   8.963  20.783  0.00  0.00    +0.000 N 
ATOM      8  C   UNL     1       0.435   9.825  21.638  0.00  0.00    +0.000 A 
ATOM      9  C   UNL     1       0.134   9.453  23.052  0.00  0.00    +0.000 C 
ENDROOT
BRANCH   5  10
ATOM     10  C   UNL     1       2.677   6.222  19.061  0.00  0.00    +0.000 A 
ATOM     11  C   UNL     1       2.005   5.473  18.087  0.00  0.00    +0.000 A 
ATOM     12  C   UNL     1       2.539   4.271  17.614  0.00  0.00    +0.000 A 
ATOM     13  C   UNL     1       3.763   3.805  18.090  0.00  0.00    +0.000 A 
ATOM     14  C   UNL     1       4.438   4.534  19.068  0.00  0.00    +0.000 A 
ATOM     15  C   UNL     1       3.898   5.735  19.550  0.00  0.00    +0.000 A 
BRANCH  13  16
ATOM     16  O   UNL     1       4.178   2.612  17.567  0.00  0.00    +0.000 OA
ATOM     17  C   UNL     1       3.597   1.450  18.148  0.00  0.00    +0.000 C 
ENDBRANCH  13  16
ENDBRANCH   5  10
BRANCH   1  19
ATOM     18  N   UNL     1      -2.037  11.829  21.738  0.00  0.00    +0.000 N 
ATOM     19  C   UNL     1      -0.691  12.090  21.580  0.00  0.00    +0.000 C 
ATOM     20  O   UNL     1      -0.118  13.131  21.883  0.00  0.00    +0.000 OA
ATOM     21  H   UNL     1      -2.372  10.933  21.405  0.00  0.00    +0.000 HD
BRANCH  18  25
ATOM     22  C   UNL     1      -4.935  14.408  23.425  0.00  0.00    +0.000 A 
ATOM     23  C   UNL     1      -4.197  13.566  24.251  0.00  0.00    +0.000 A 
ATOM     24  C   UNL     1      -3.229  12.716  23.714  0.00  0.00    +0.000 A 
ATOM     25  C   UNL     1      -2.995  12.677  22.340  0.00  0.00    +0.000 A 
ATOM     26  C   UNL     1      -3.759  13.506  21.509  0.00  0.00    +0.000 A 
ATOM     27  C   UNL     1      -4.731  14.365  22.049  0.00  0.00    +0.000 A 
BRANCH  22  28
ATOM     28  O   UNL     1      -5.834  15.199  24.080  0.00  0.00    +0.000 OA
BRANCH  28  30
ATOM     29  C   UNL     1      -7.835  13.958  24.371  0.00  0.00    +0.000 C 
ATOM     30  C   UNL     1      -7.186  15.120  23.639  0.00  0.00    +0.000 C 
ENDBRANCH  28  30
ENDBRANCH  22  28
ENDBRANCH  18  25
ENDBRANCH   1  19
TORSDOF 6
ENDMDL
MODEL 8
REMARK VINA RESULT:      -7.0      1.858      2.358
REMARK  Name = 
REMARK  9 active torsions:
REMARK  status: ('A' for Active; 'I' for Inactive)
REMARK    1  A    between atoms: C_1  and  C_2
REMARK    2  A    between atoms: C_2  and  O_3
REMARK    3  A    between atoms: O_3  and  C_4
REMARK    4  A    between atoms: C_7  and  N_8
REMARK    5  A    between atoms: C_9  and  C_11
REMARK    6  A    between atoms: C_15  and  C_16
REMARK    7  A    between atoms: C_19  and  O_20
REMARK    8  A    between atoms: O_20  and  C_21
REMARK    9  A    between atoms: C_26  and  C_27
REMARK                            x       y       z     vdW  Elec       q    Type
REMARK                         _______ _______ _______ _____ _____    ______ ____
ROOT
ATOM      1  C   UNL     1       0.287  10.464  19.857  0.00  0.00    +0.000 A 
ATOM      2  S   UNL     1       1.014  10.877  18.294  0.00  0.00    +0.000 S 
ATOM      3  C   UNL     1       1.824   9.345  18.316  0.00  0.00    +0.000 A 
ATOM      4  N   UNL     1       2.599   8.713  17.484  0.00  0.00    +0.000 NA
ATOM      5  C   UNL     1       2.839   7.501  18.120  0.00  0.00    +0.000 A 
ATOM      6  C   UNL     1       2.200   7.453  19.352  0.00  0.00    +0.000 A 
ATOM      7  N   UNL     1       1.539   8.643  19.447  0.00  0.00    +0.000 N 
ATOM      8  C   UNL     1       0.677   9.260  20.337  0.00  0.00    +0.000 A 
ATOM      9  C   UNL     1       0.260   8.603  21.611  0.00  0.00    +0.000 C 
ENDROOT
BRANCH   5  10
ATOM     10  C   UNL     1       3.639   6.443  17.517  0.00  0.00    +0.000 A 
ATOM     11  C   UNL     1       4.748   6.786  16.734  0.00  0.00    +0.000 A 
ATOM     12  C   UNL     1       5.525   5.798  16.122  0.00  0.00    +0.000 A 
ATOM     13  C   UNL     1       5.219   4.449  16.296  0.00  0.00    +0.000 A 
ATOM     14  C   UNL     1       4.111   4.094  17.064  0.00  0.00    +0.000 A 
ATOM     15  C   UNL     1       3.326   5.085  17.671  0.00  0.00    +0.000 A 
BRANCH  13  16
ATOM     16  O   UNL     1       6.038   3.574  15.639  0.00  0.00    +0.000 OA
ATOM     17  C   UNL     1       6.272   3.865  14.266  0.00  0.00    +0.000 C 
ENDBRANCH  13  16
ENDBRANCH   5  10
BRANCH   1  19
ATOM     18  N   UNL     1      -0.303  11.902  21.720  0.00  0.00    +0.000 N 
ATOM     19  C   UNL     1      -0.706  11.370  20.511  0.00  0.00    +0.000 C 
ATOM     20  O   UNL     1      -1.776  11.585  19.951  0.00  0.00    +0.000 OA
ATOM     21  H   UNL     1       0.597  11.601  22.075  0.00  0.00    +0.000 HD
BRANCH  18  25
ATOM     22  C   UNL     1      -2.491  14.630  24.101  0.00  0.00    +0.000 A 
ATOM     23  C   UNL     1      -1.361  15.064  23.415  0.00  0.00    +0.000 A 
ATOM     24  C   UNL     1      -0.632  14.182  22.617  0.00  0.00    +0.000 A 
ATOM     25  C   UNL     1      -1.008  12.844  22.504  0.00  0.00    +0.000 A 
ATOM     26  C   UNL     1      -2.130  12.404  23.217  0.00  0.00    +0.000 A 
ATOM     27  C   UNL     1      -2.866  13.292  24.018  0.00  0.00    +0.000 A 
BRANCH  22  28
ATOM     28  O   UNL     1      -3.119  15.597  24.829  0.00  0.00    +0.000 OA
BRANCH  28  30
ATOM     29  C   UNL     1      -2.355  17.711  25.589  0.00  0.00    +0.000 C 
ATOM     30  C   UNL     1      -2.917  16.942  24.406  0.00  0.00    +0.000 C 
ENDBRANCH  28  30
ENDBRANCH  22  28
ENDBRANCH  18  25
ENDBRANCH   1  19
TORSDOF 6
ENDMDL
MODEL 9
REMARK VINA RESULT:      -6.9      0.646      1.417
REMARK  Name = 
REMARK  9 active torsions:
REMARK  status: ('A' for Active; 'I' for Inactive)
REMARK    1  A    between atoms: C_1  and  C_2
REMARK    2  A    between atoms: C_2  and  O_3
REMARK    3  A    between atoms: O_3  and  C_4
REMARK    4  A    between atoms: C_7  and  N_8
REMARK    5  A    between atoms: C_9  and  C_11
REMARK    6  A    between atoms: C_15  and  C_16
REMARK    7  A    between atoms: C_19  and  O_20
REMARK    8  A    between atoms: O_20  and  C_21
REMARK    9  A    between atoms: C_26  and  C_27
REMARK                            x       y       z     vdW  Elec       q    Type
REMARK                         _______ _______ _______ _____ _____    ______ ____
ROOT
ATOM      1  C   UNL     1       0.539   9.843  20.786  0.00  0.00    +0.000 A 
ATOM      2  S   UNL     1       0.963   8.289  21.526  0.00  0.00    +0.000 S 
ATOM      3  C   UNL     1       1.753   7.851  20.048  0.00  0.00    +0.000 A 
ATOM      4  N   UNL     1       2.448   6.823  19.657  0.00  0.00    +0.000 NA
ATOM      5  C   UNL     1       2.830   7.161  18.364  0.00  0.00    +0.000 A 
ATOM      6  C   UNL     1       2.322   8.402  18.006  0.00  0.00    +0.000 A 
ATOM      7  N   UNL     1       1.649   8.834  19.112  0.00  0.00    +0.000 N 
ATOM      8  C   UNL     1       0.960   9.968  19.505  0.00  0.00    +0.000 A 
ATOM      9  C   UNL     1       0.780  11.135  18.592  0.00  0.00    +0.000 C 
ENDROOT
BRANCH   5  10
ATOM     10  C   UNL     1       3.676   6.301  17.547  0.00  0.00    +0.000 A 
ATOM     11  C   UNL     1       3.503   4.913  17.607  0.00  0.00    +0.000 A 
ATOM     12  C   UNL     1       4.311   4.058  16.853  0.00  0.00    +0.000 A 
ATOM     13  C   UNL     1       5.294   4.574  16.010  0.00  0.00    +0.000 A 
ATOM     14  C   UNL     1       5.486   5.954  15.948  0.00  0.00    +0.000 A 
ATOM     15  C   UNL     1       4.680   6.812  16.712  0.00  0.00    +0.000 A 
BRANCH  13  16
ATOM     16  O   UNL     1       6.033   3.644  15.334  0.00  0.00    +0.000 OA
ATOM     17  C   UNL     1       6.261   3.921  13.957  0.00  0.00    +0.000 C 
ENDBRANCH  13  16
ENDBRANCH   5  10
BRANCH   1  19
ATOM     18  N   UNL     1      -1.243  11.485  20.926  0.00  0.00    +0.000 N 
ATOM     19  C   UNL     1      -0.165  10.906  21.567  0.00  0.00    +0.000 C 
ATOM     20  O   UNL     1       0.237  11.183  22.692  0.00  0.00    +0.000 OA
ATOM     21  H   UNL     1      -1.431  11.177  19.980  0.00  0.00    +0.000 HD
BRANCH  18  25
ATOM     22  C   UNL     1      -3.899  14.296  22.639  0.00  0.00    +0.000 A 
ATOM     23  C   UNL     1      -3.305  14.568  21.411  0.00  0.00    +0.000 A 
ATOM     24  C   UNL     1      -2.434  13.649  20.824  0.00  0.00    +0.000 A 
ATOM     25  C   UNL     1      -2.126  12.449  21.465  0.00  0.00    +0.000 A 
ATOM     26  C   UNL     1      -2.704  12.191  22.713  0.00  0.00    +0.000 A 
ATOM     27  C   UNL     1      -3.583  13.114  23.303  0.00  0.00    +0.000 A 
BRANCH  22  28
ATOM     28  O   UNL     1      -4.742  15.270  23.089  0.00  0.00    +0.000 OA
BRANCH  28  30
ATOM     29  C   UNL     1      -6.939  14.654  22.440  0.00  0.00    +0.000 C 
ATOM     30  C   UNL     1      -5.992  14.834  23.614  0.00  0.00    +0.000 C 
ENDBRANCH  28  30
ENDBRANCH  22  28
ENDBRANCH  18  25
ENDBRANCH   1  19
TORSDOF 6
ENDMDL
