MODEL 1
REMARK VINA RESULT:      -6.2      0.000      0.000
REMARK  Name = 
REMARK  3 active torsions:
REMARK  status: ('A' for Active; 'I' for Inactive)
REMARK    1  A    between atoms: N_2  and  C_4
REMARK    2  A    between atoms: C_6  and  C_7
REMARK    3  A    between atoms: C_6  and  N_12
REMARK                            x       y       z     vdW  Elec       q    Type
REMARK                         _______ _______ _______ _____ _____    ______ ____
ROOT
ATOM      1  C   UNL     1       6.716   5.973  17.795  0.00  0.00    +0.000 C 
ATOM      2 CL   UNL     1       7.327   7.582  17.611  0.00  0.00    +0.000 Cl
ATOM      3  C   UNL     1       5.418   5.603  17.668  0.00  0.00    +0.000 C 
ENDROOT
BRANCH   3   4
ATOM      4  N   UNL     1       4.853   4.356  17.990  0.00  0.00    +0.000 N 
ATOM      5  C   UNL     1       4.341   3.408  16.976  0.00  0.00    +0.000 C 
ATOM      6  C   UNL     1       3.049   2.755  17.496  0.00  0.00    +0.000 C 
ATOM      7  O   UNL     1       3.246   2.123  18.774  0.00  0.00    +0.000 OA
ATOM      8  C   UNL     1       3.709   3.078  19.744  0.00  0.00    +0.000 C 
ATOM      9  C   UNL     1       5.039   3.711  19.309  0.00  0.00    +0.000 C 
ENDBRANCH   3   4
BRANCH   3  10
ATOM     10  C   UNL     1       4.423   6.605  17.233  0.00  0.00    +0.000 C 
ATOM     11 CL   UNL     1       4.662   7.180  15.595  0.00  0.00    +0.000 Cl
ATOM     12  C   UNL     1       3.417   7.080  17.996  0.00  0.00    +0.000 C 
ATOM     13 CL   UNL     1       2.263   8.242  17.423  0.00  0.00    +0.000 Cl
ATOM     14 CL   UNL     1       3.181   6.572  19.644  0.00  0.00    +0.000 Cl
ENDBRANCH   3  10
BRANCH   1  16
ATOM     15  O   UNL     1       8.126   4.906  19.258  0.00  0.00    +0.000 OA
ATOM     16  N   UNL     1       7.683   4.936  18.102  0.00  0.00    +0.000 N 
ATOM     17  O   UNL     1       8.045   4.196  17.178  0.00  0.00    +0.000 OA
ENDBRANCH   1  16
TORSDOF 3
ENDMDL
MODEL 2
REMARK VINA RESULT:      -6.1      2.169      3.979
REMARK  Name = 
REMARK  3 active torsions:
REMARK  status: ('A' for Active; 'I' for Inactive)
REMARK    1  A    between atoms: N_2  and  C_4
REMARK    2  A    between atoms: C_6  and  C_7
REMARK    3  A    between atoms: C_6  and  N_12
REMARK                            x       y       z     vdW  Elec       q    Type
REMARK                         _______ _______ _______ _____ _____    ______ ____
ROOT
ATOM      1  C   UNL     1       2.999   4.484  17.645  0.00  0.00    +0.000 C 
ATOM      2 CL   UNL     1       1.284   4.277  17.536  0.00  0.00    +0.000 Cl
ATOM      3  C   UNL     1       3.631   5.542  18.210  0.00  0.00    +0.000 C 
ENDROOT
BRANCH   3   4
ATOM      4  N   UNL     1       5.005   5.841  18.156  0.00  0.00    +0.000 N 
ATOM      5  C   UNL     1       5.583   6.851  17.244  0.00  0.00    +0.000 C 
ATOM      6  C   UNL     1       6.922   6.331  16.693  0.00  0.00    +0.000 C 
ATOM      7  O   UNL     1       7.832   5.973  17.748  0.00  0.00    +0.000 OA
ATOM      8  C   UNL     1       7.255   4.965  18.595  0.00  0.00    +0.000 C 
ATOM      9  C   UNL     1       5.948   5.459  19.233  0.00  0.00    +0.000 C 
ENDBRANCH   3   4
BRANCH   3  10
ATOM     10  C   UNL     1       2.831   6.576  18.897  0.00  0.00    +0.000 C 
ATOM     11 CL   UNL     1       2.698   8.081  18.008  0.00  0.00    +0.000 Cl
ATOM     12  C   UNL     1       2.251   6.431  20.106  0.00  0.00    +0.000 C 
ATOM     13 CL   UNL     1       1.302   7.675  20.855  0.00  0.00    +0.000 Cl
ATOM     14 CL   UNL     1       2.405   4.971  21.042  0.00  0.00    +0.000 Cl
ENDBRANCH   3  10
BRANCH   1  16
ATOM     15  O   UNL     1       3.828   2.345  17.691  0.00  0.00    +0.000 OA
ATOM     16  N   UNL     1       3.824   3.428  17.090  0.00  0.00    +0.000 N 
ATOM     17  O   UNL     1       4.513   3.697  16.097  0.00  0.00    +0.000 OA
ENDBRANCH   1  16
TORSDOF 3
ENDMDL
MODEL 3
REMARK VINA RESULT:      -6.0      2.558      4.412
REMARK  Name = 
REMARK  3 active torsions:
REMARK  status: ('A' for Active; 'I' for Inactive)
REMARK    1  A    between atoms: N_2  and  C_4
REMARK    2  A    between atoms: C_6  and  C_7
REMARK    3  A    between atoms: C_6  and  N_12
REMARK                            x       y       z     vdW  Elec       q    Type
REMARK                         _______ _______ _______ _____ _____    ______ ____
ROOT
ATOM      1  C   UNL     1       4.111   4.171  17.011  0.00  0.00    +0.000 C 
ATOM      2 CL   UNL     1       2.619   3.344  16.721  0.00  0.00    +0.000 Cl
ATOM      3  C   UNL     1       4.436   4.836  18.146  0.00  0.00    +0.000 C 
ENDROOT
BRANCH   3   4
ATOM      4  N   UNL     1       5.547   5.673  18.355  0.00  0.00    +0.000 N 
ATOM      5  C   UNL     1       5.694   7.004  17.729  0.00  0.00    +0.000 C 
ATOM      6  C   UNL     1       7.159   7.210  17.308  0.00  0.00    +0.000 C 
ATOM      7  O   UNL     1       8.064   7.031  18.413  0.00  0.00    +0.000 OA
ATOM      8  C   UNL     1       7.922   5.716  18.976  0.00  0.00    +0.000 C 
ATOM      9  C   UNL     1       6.490   5.481  19.482  0.00  0.00    +0.000 C 
ENDBRANCH   3   4
BRANCH   3  10
ATOM     10  C   UNL     1       3.512   4.788  19.298  0.00  0.00    +0.000 C 
ATOM     11 CL   UNL     1       2.585   6.257  19.531  0.00  0.00    +0.000 Cl
ATOM     12  C   UNL     1       3.373   3.740  20.136  0.00  0.00    +0.000 C 
ATOM     13 CL   UNL     1       2.253   3.731  21.462  0.00  0.00    +0.000 Cl
ATOM     14 CL   UNL     1       4.314   2.285  19.969  0.00  0.00    +0.000 Cl
ENDBRANCH   3  10
BRANCH   1  16
ATOM     15  O   UNL     1       5.991   3.285  16.038  0.00  0.00    +0.000 OA
ATOM     16  N   UNL     1       5.097   4.138  15.948  0.00  0.00    +0.000 N 
ATOM     17  O   UNL     1       5.017   4.999  15.061  0.00  0.00    +0.000 OA
ENDBRANCH   1  16
TORSDOF 3
ENDMDL
MODEL 4
REMARK VINA RESULT:      -5.9      1.589      3.944
REMARK  Name = 
REMARK  3 active torsions:
REMARK  status: ('A' for Active; 'I' for Inactive)
REMARK    1  A    between atoms: N_2  and  C_4
REMARK    2  A    between atoms: C_6  and  C_7
REMARK    3  A    between atoms: C_6  and  N_12
REMARK                            x       y       z     vdW  Elec       q    Type
REMARK                         _______ _______ _______ _____ _____    ______ ____
ROOT
ATOM      1  C   UNL     1       2.969   4.053  18.194  0.00  0.00    +0.000 C 
ATOM      2 CL   UNL     1       1.327   4.301  17.705  0.00  0.00    +0.000 Cl
ATOM      3  C   UNL     1       3.958   4.977  18.133  0.00  0.00    +0.000 C 
ENDROOT
BRANCH   3   4
ATOM      4  N   UNL     1       5.334   4.768  18.340  0.00  0.00    +0.000 N 
ATOM      5  C   UNL     1       6.019   5.065  19.616  0.00  0.00    +0.000 C 
ATOM      6  C   UNL     1       7.402   5.673  19.322  0.00  0.00    +0.000 C 
ATOM      7  O   UNL     1       8.190   4.821  18.472  0.00  0.00    +0.000 OA
ATOM      8  C   UNL     1       7.513   4.581  17.227  0.00  0.00    +0.000 C 
ATOM      9  C   UNL     1       6.152   3.905  17.458  0.00  0.00    +0.000 C 
ENDBRANCH   3   4
BRANCH   3  10
ATOM     10  C   UNL     1       3.630   6.357  17.721  0.00  0.00    +0.000 C 
ATOM     11 CL   UNL     1       4.405   6.860  16.232  0.00  0.00    +0.000 Cl
ATOM     12  C   UNL     1       2.827   7.199  18.404  0.00  0.00    +0.000 C 
ATOM     13 CL   UNL     1       2.459   8.805  17.859  0.00  0.00    +0.000 Cl
ATOM     14 CL   UNL     1       2.082   6.754  19.913  0.00  0.00    +0.000 Cl
ENDBRANCH   3  10
BRANCH   1  16
ATOM     15  O   UNL     1       3.380   1.813  17.908  0.00  0.00    +0.000 OA
ATOM     16  N   UNL     1       3.305   2.744  18.721  0.00  0.00    +0.000 N 
ATOM     17  O   UNL     1       3.430   2.633  19.948  0.00  0.00    +0.000 OA
ENDBRANCH   1  16
TORSDOF 3
ENDMDL
MODEL 5
REMARK VINA RESULT:      -5.9      2.080      4.164
REMARK  Name = 
REMARK  3 active torsions:
REMARK  status: ('A' for Active; 'I' for Inactive)
REMARK    1  A    between atoms: N_2  and  C_4
REMARK    2  A    between atoms: C_6  and  C_7
REMARK    3  A    between atoms: C_6  and  N_12
REMARK                            x       y       z     vdW  Elec       q    Type
REMARK                         _______ _______ _______ _____ _____    ______ ____
ROOT
ATOM      1  C   UNL     1       3.034   4.425  17.623  0.00  0.00    +0.000 C 
ATOM      2 CL   UNL     1       1.309   4.345  17.499  0.00  0.00    +0.000 Cl
ATOM      3  C   UNL     1       3.740   5.457  18.145  0.00  0.00    +0.000 C 
ENDROOT
BRANCH   3   4
ATOM      4  N   UNL     1       5.133   5.647  18.097  0.00  0.00    +0.000 N 
ATOM      5  C   UNL     1       6.088   4.892  18.938  0.00  0.00    +0.000 C 
ATOM      6  C   UNL     1       7.205   5.836  19.414  0.00  0.00    +0.000 C 
ATOM      7  O   UNL     1       7.858   6.490  18.310  0.00  0.00    +0.000 OA
ATOM      8  C   UNL     1       6.911   7.243  17.535  0.00  0.00    +0.000 C 
ATOM      9  C   UNL     1       5.808   6.334  16.972  0.00  0.00    +0.000 C 
ENDBRANCH   3   4
BRANCH   3  10
ATOM     10  C   UNL     1       3.015   6.583  18.769  0.00  0.00    +0.000 C 
ATOM     11 CL   UNL     1       3.041   8.058  17.822  0.00  0.00    +0.000 Cl
ATOM     12  C   UNL     1       2.391   6.536  19.963  0.00  0.00    +0.000 C 
ATOM     13 CL   UNL     1       1.535   7.887  20.637  0.00  0.00    +0.000 Cl
ATOM     14 CL   UNL     1       2.390   5.106  20.956  0.00  0.00    +0.000 Cl
ENDBRANCH   3  10
BRANCH   1  16
ATOM     15  O   UNL     1       4.375   3.420  16.056  0.00  0.00    +0.000 OA
ATOM     16  N   UNL     1       3.780   3.281  17.133  0.00  0.00    +0.000 N 
ATOM     17  O   UNL     1       3.720   2.232  17.786  0.00  0.00    +0.000 OA
ENDBRANCH   1  16
TORSDOF 3
ENDMDL
MODEL 6
REMARK VINA RESULT:      -5.9      3.510      5.272
REMARK  Name = 
REMARK  3 active torsions:
REMARK  status: ('A' for Active; 'I' for Inactive)
REMARK    1  A    between atoms: N_2  and  C_4
REMARK    2  A    between atoms: C_6  and  C_7
REMARK    3  A    between atoms: C_6  and  N_12
REMARK                            x       y       z     vdW  Elec       q    Type
REMARK                         _______ _______ _______ _____ _____    ______ ____
ROOT
ATOM      1  C   UNL     1       3.012   3.740  18.106  0.00  0.00    +0.000 C 
ATOM      2 CL   UNL     1       3.654   2.148  17.878  0.00  0.00    +0.000 Cl
ATOM      3  C   UNL     1       3.742   4.877  18.210  0.00  0.00    +0.000 C 
ENDROOT
BRANCH   3   4
ATOM      4  N   UNL     1       3.283   6.154  18.579  0.00  0.00    +0.000 N 
ATOM      5  C   UNL     1       2.926   6.522  19.966  0.00  0.00    +0.000 C 
ATOM      6  C   UNL     1       1.675   7.417  19.950  0.00  0.00    +0.000 C 
ATOM      7  O   UNL     1       1.857   8.575  19.115  0.00  0.00    +0.000 OA
ATOM      8  C   UNL     1       2.167   8.184  17.767  0.00  0.00    +0.000 C 
ATOM      9  C   UNL     1       3.453   7.345  17.715  0.00  0.00    +0.000 C 
ENDBRANCH   3   4
BRANCH   3  10
ATOM     10  C   UNL     1       5.205   4.814  18.012  0.00  0.00    +0.000 C 
ATOM     11 CL   UNL     1       6.134   5.077  19.475  0.00  0.00    +0.000 Cl
ATOM     12  C   UNL     1       5.818   4.596  16.830  0.00  0.00    +0.000 C 
ATOM     13 CL   UNL     1       7.543   4.510  16.661  0.00  0.00    +0.000 Cl
ATOM     14 CL   UNL     1       4.931   4.383  15.348  0.00  0.00    +0.000 Cl
ENDBRANCH   3  10
BRANCH   1  16
ATOM     15  O   UNL     1       0.983   4.241  17.160  0.00  0.00    +0.000 OA
ATOM     16  N   UNL     1       1.569   3.860  18.182  0.00  0.00    +0.000 N 
ATOM     17  O   UNL     1       1.029   3.638  19.274  0.00  0.00    +0.000 OA
ENDBRANCH   1  16
TORSDOF 3
ENDMDL
MODEL 7
REMARK VINA RESULT:      -5.9      2.463      4.230
REMARK  Name = 
REMARK  3 active torsions:
REMARK  status: ('A' for Active; 'I' for Inactive)
REMARK    1  A    between atoms: N_2  and  C_4
REMARK    2  A    between atoms: C_6  and  C_7
REMARK    3  A    between atoms: C_6  and  N_12
REMARK                            x       y       z     vdW  Elec       q    Type
REMARK                         _______ _______ _______ _____ _____    ______ ____
ROOT
ATOM      1  C   UNL     1       4.361   4.159  16.774  0.00  0.00    +0.000 C 
ATOM      2 CL   UNL     1       2.919   3.273  16.409  0.00  0.00    +0.000 Cl
ATOM      3  C   UNL     1       4.647   4.745  17.963  0.00  0.00    +0.000 C 
ENDROOT
BRANCH   3   4
ATOM      4  N   UNL     1       5.708   5.624  18.246  0.00  0.00    +0.000 N 
ATOM      5  C   UNL     1       5.861   6.948  17.606  0.00  0.00    +0.000 C 
ATOM      6  C   UNL     1       7.348   7.199  17.304  0.00  0.00    +0.000 C 
ATOM      7  O   UNL     1       8.162   7.072  18.483  0.00  0.00    +0.000 OA
ATOM      8  C   UNL     1       8.019   5.763  19.060  0.00  0.00    +0.000 C 
ATOM      9  C   UNL     1       6.558   5.486  19.450  0.00  0.00    +0.000 C 
ENDBRANCH   3   4
BRANCH   3  10
ATOM     10  C   UNL     1       3.728   4.546  19.103  0.00  0.00    +0.000 C 
ATOM     11 CL   UNL     1       3.989   3.049  19.976  0.00  0.00    +0.000 Cl
ATOM     12  C   UNL     1       2.749   5.400  19.466  0.00  0.00    +0.000 C 
ATOM     13 CL   UNL     1       1.712   5.124  20.831  0.00  0.00    +0.000 Cl
ATOM     14 CL   UNL     1       2.425   6.870  18.592  0.00  0.00    +0.000 Cl
ENDBRANCH   3  10
BRANCH   1  16
ATOM     15  O   UNL     1       6.351   3.553  15.806  0.00  0.00    +0.000 OA
ATOM     16  N   UNL     1       5.347   4.272  15.716  0.00  0.00    +0.000 N 
ATOM     17  O   UNL     1       5.151   5.120  14.835  0.00  0.00    +0.000 OA
ENDBRANCH   1  16
TORSDOF 3
ENDMDL
MODEL 8
REMARK VINA RESULT:      -5.8      2.675      3.909
REMARK  Name = 
REMARK  3 active torsions:
REMARK  status: ('A' for Active; 'I' for Inactive)
REMARK    1  A    between atoms: N_2  and  C_4
REMARK    2  A    between atoms: C_6  and  C_7
REMARK    3  A    between atoms: C_6  and  N_12
REMARK                            x       y       z     vdW  Elec       q    Type
REMARK                         _______ _______ _______ _____ _____    ______ ____
ROOT
ATOM      1  C   UNL     1       4.556   3.709  17.178  0.00  0.00    +0.000 C 
ATOM      2 CL   UNL     1       5.672   3.577  15.862  0.00  0.00    +0.000 Cl
ATOM      3  C   UNL     1       4.663   4.569  18.221  0.00  0.00    +0.000 C 
ENDROOT
BRANCH   3   4
ATOM      4  N   UNL     1       3.891   4.584  19.396  0.00  0.00    +0.000 N 
ATOM      5  C   UNL     1       3.977   3.541  20.441  0.00  0.00    +0.000 C 
ATOM      6  C   UNL     1       2.566   3.237  20.975  0.00  0.00    +0.000 C 
ATOM      7  O   UNL     1       1.908   4.424  21.451  0.00  0.00    +0.000 OA
ATOM      8  C   UNL     1       1.808   5.404  20.403  0.00  0.00    +0.000 C 
ATOM      9  C   UNL     1       3.198   5.800  19.881  0.00  0.00    +0.000 C 
ENDBRANCH   3   4
BRANCH   3  10
ATOM     10  C   UNL     1       5.751   5.569  18.220  0.00  0.00    +0.000 C 
ATOM     11 CL   UNL     1       6.931   5.338  19.495  0.00  0.00    +0.000 Cl
ATOM     12  C   UNL     1       5.860   6.594  17.351  0.00  0.00    +0.000 C 
ATOM     13 CL   UNL     1       7.175   7.727  17.384  0.00  0.00    +0.000 Cl
ATOM     14 CL   UNL     1       4.680   6.886  16.104  0.00  0.00    +0.000 Cl
ENDBRANCH   3  10
BRANCH   1  16
ATOM     15  O   UNL     1       2.344   3.301  16.725  0.00  0.00    +0.000 OA
ATOM     16  N   UNL     1       3.404   2.827  17.152  0.00  0.00    +0.000 N 
ATOM     17  O   UNL     1       3.542   1.687  17.616  0.00  0.00    +0.000 OA
ENDBRANCH   1  16
TORSDOF 3
ENDMDL
MODEL 9
REMARK VINA RESULT:      -5.8      2.625      3.931
REMARK  Name = 
REMARK  3 active torsions:
REMARK  status: ('A' for Active; 'I' for Inactive)
REMARK    1  A    between atoms: N_2  and  C_4
REMARK    2  A    between atoms: C_6  and  C_7
REMARK    3  A    between atoms: C_6  and  N_12
REMARK                            x       y       z     vdW  Elec       q    Type
REMARK                         _______ _______ _______ _____ _____    ______ ____
ROOT
ATOM      1  C   UNL     1       4.416   3.898  17.007  0.00  0.00    +0.000 C 
ATOM      2 CL   UNL     1       5.529   3.400  15.779  0.00  0.00    +0.000 Cl
ATOM      3  C   UNL     1       4.450   5.080  17.670  0.00  0.00    +0.000 C 
ENDROOT
BRANCH   3   4
ATOM      4  N   UNL     1       3.689   5.449  18.794  0.00  0.00    +0.000 N 
ATOM      5  C   UNL     1       3.650   4.662  20.046  0.00  0.00    +0.000 C 
ATOM      6  C   UNL     1       2.215   4.656  20.600  0.00  0.00    +0.000 C 
ATOM      7  O   UNL     1       1.709   5.990  20.786  0.00  0.00    +0.000 OA
ATOM      8  C   UNL     1       1.726   6.717  19.545  0.00  0.00    +0.000 C 
ATOM      9  C   UNL     1       3.152   6.817  18.981  0.00  0.00    +0.000 C 
ENDBRANCH   3   4
BRANCH   3  10
ATOM     10  C   UNL     1       5.438   6.102  17.269  0.00  0.00    +0.000 C 
ATOM     11 CL   UNL     1       5.023   6.954  15.794  0.00  0.00    +0.000 Cl
ATOM     12  C   UNL     1       6.580   6.379  17.932  0.00  0.00    +0.000 C 
ATOM     13 CL   UNL     1       7.695   7.608  17.424  0.00  0.00    +0.000 Cl
ATOM     14 CL   UNL     1       7.051   5.518  19.370  0.00  0.00    +0.000 Cl
ENDBRANCH   3  10
BRANCH   1  16
ATOM     15  O   UNL     1       3.682   1.927  17.924  0.00  0.00    +0.000 OA
ATOM     16  N   UNL     1       3.353   2.970  17.345  0.00  0.00    +0.000 N 
ATOM     17  O   UNL     1       2.205   3.252  16.977  0.00  0.00    +0.000 OA
ENDBRANCH   1  16
TORSDOF 3
ENDMDL
