MODEL 1
REMARK VINA RESULT:      -6.5      0.000      0.000
REMARK  Name = 
REMARK  8 active torsions:
REMARK  status: ('A' for Active; 'I' for Inactive)
REMARK    1  A    between atoms: C_1  and  C_2
REMARK    2  A    between atoms: C_2  and  N_3
REMARK    3  A    between atoms: C_4  and  C_6
REMARK    4  A    between atoms: N_10  and  C_11
REMARK    5  A    between atoms: N_10  and  C_12
REMARK    6  A    between atoms: C_12  and  C_13
REMARK    7  A    between atoms: C_13  and  C_14
REMARK    8  A    between atoms: C_13  and  O_15
REMARK                            x       y       z     vdW  Elec       q    Type
REMARK                         _______ _______ _______ _____ _____    ______ ____
ROOT
ATOM      1  C   UNL     1       5.552   4.879  15.669  0.00  0.00    +0.000 A 
ATOM      2  C   UNL     1       5.229   3.740  16.403  0.00  0.00    +0.000 A 
ATOM      3  C   UNL     1       4.388   3.851  17.516  0.00  0.00    +0.000 A 
ATOM      4  C   UNL     1       3.872   5.096  17.896  0.00  0.00    +0.000 A 
ATOM      5  N   UNL     1       3.076   5.195  19.062  0.00  0.00    +0.000 N 
ATOM      6  C   UNL     1       2.863   6.580  19.498  0.00  0.00    +0.000 C 
ATOM      7  N   UNL     1       4.204   6.201  17.187  0.00  0.00    +0.000 NA
ATOM      8  C   UNL     1       5.034   6.078  16.116  0.00  0.00    +0.000 A 
ENDROOT
BRANCH   1  10
ATOM      9  N   UNL     1       6.050   3.945  13.468  0.00  0.00    +0.000 N 
ATOM     10  C   UNL     1       6.461   4.763  14.501  0.00  0.00    +0.000 C 
ATOM     11  O   UNL     1       7.537   5.350  14.510  0.00  0.00    +0.000 OA
ATOM     12  H   UNL     1       5.205   3.395  13.555  0.00  0.00    +0.000 HD
BRANCH   9  14
ATOM     13  C   UNL     1       6.512   2.408  11.600  0.00  0.00    +0.000 C 
ATOM     14  C   UNL     1       6.895   3.693  12.315  0.00  0.00    +0.000 C 
ENDBRANCH   9  14
ENDBRANCH   1  10
BRANCH   5  15
ATOM     15  C   UNL     1       1.855   4.360  19.018  0.00  0.00    +0.000 C 
BRANCH  15  16
ATOM     16  C   UNL     1       1.297   3.975  20.410  0.00  0.00    +0.000 C 
ATOM     17  C   UNL     1       2.334   3.354  21.340  0.00  0.00    +0.000 C 
BRANCH  16  18
ATOM     18  O   UNL     1       0.215   3.047  20.243  0.00  0.00    +0.000 OA
ATOM     19  H   UNL     1       0.272   2.668  19.349  0.00  0.00    +0.000 HD
ENDBRANCH  16  18
ENDBRANCH  15  16
ENDBRANCH   5  15
TORSDOF 5
ENDMDL
MODEL 2
REMARK VINA RESULT:      -6.4      2.833      4.016
REMARK  Name = 
REMARK  8 active torsions:
REMARK  status: ('A' for Active; 'I' for Inactive)
REMARK    1  A    between atoms: C_1  and  C_2
REMARK    2  A    between atoms: C_2  and  N_3
REMARK    3  A    between atoms: C_4  and  C_6
REMARK    4  A    between atoms: N_10  and  C_11
REMARK    5  A    between atoms: N_10  and  C_12
REMARK    6  A    between atoms: C_12  and  C_13
REMARK    7  A    between atoms: C_13  and  C_14
REMARK    8  A    between atoms: C_13  and  O_15
REMARK                            x       y       z     vdW  Elec       q    Type
REMARK                         _______ _______ _______ _____ _____    ______ ____
ROOT
ATOM      1  C   UNL     1       5.624   5.866  17.344  0.00  0.00    +0.000 A 
ATOM      2  C   UNL     1       4.407   6.523  17.517  0.00  0.00    +0.000 A 
ATOM      3  C   UNL     1       3.255   5.779  17.793  0.00  0.00    +0.000 A 
ATOM      4  C   UNL     1       3.316   4.384  17.894  0.00  0.00    +0.000 A 
ATOM      5  N   UNL     1       2.127   3.648  18.109  0.00  0.00    +0.000 N 
ATOM      6  C   UNL     1       2.295   2.206  17.893  0.00  0.00    +0.000 C 
ATOM      7  N   UNL     1       4.499   3.752  17.709  0.00  0.00    +0.000 NA
ATOM      8  C   UNL     1       5.608   4.489  17.427  0.00  0.00    +0.000 A 
ENDROOT
BRANCH   1  10
ATOM      9  N   UNL     1       7.046   7.808  17.761  0.00  0.00    +0.000 N 
ATOM     10  C   UNL     1       6.843   6.654  17.032  0.00  0.00    +0.000 C 
ATOM     11  O   UNL     1       7.588   6.286  16.130  0.00  0.00    +0.000 OA
ATOM     12  H   UNL     1       6.345   8.129  18.418  0.00  0.00    +0.000 HD
BRANCH   9  14
ATOM     13  C   UNL     1       8.700   9.341  18.749  0.00  0.00    +0.000 C 
ATOM     14  C   UNL     1       8.158   8.698  17.484  0.00  0.00    +0.000 C 
ENDBRANCH   9  14
ENDBRANCH   1  10
BRANCH   5  15
ATOM     15  C   UNL     1       1.421   4.013  19.358  0.00  0.00    +0.000 C 
BRANCH  15  16
ATOM     16  C   UNL     1       2.247   3.778  20.647  0.00  0.00    +0.000 C 
ATOM     17  C   UNL     1       1.611   2.785  21.614  0.00  0.00    +0.000 C 
BRANCH  16  18
ATOM     18  O   UNL     1       2.426   5.031  21.326  0.00  0.00    +0.000 OA
ATOM     19  H   UNL     1       2.788   4.851  22.211  0.00  0.00    +0.000 HD
ENDBRANCH  16  18
ENDBRANCH  15  16
ENDBRANCH   5  15
TORSDOF 5
ENDMDL
MODEL 3
REMARK VINA RESULT:      -6.2      2.115      7.264
REMARK  Name = 
REMARK  8 active torsions:
REMARK  status: ('A' for Active; 'I' for Inactive)
REMARK    1  A    between atoms: C_1  and  C_2
REMARK    2  A    between atoms: C_2  and  N_3
REMARK    3  A    between atoms: C_4  and  C_6
REMARK    4  A    between atoms: N_10  and  C_11
REMARK    5  A    between atoms: N_10  and  C_12
REMARK    6  A    between atoms: C_12  and  C_13
REMARK    7  A    between atoms: C_13  and  C_14
REMARK    8  A    between atoms: C_13  and  O_15
REMARK                            x       y       z     vdW  Elec       q    Type
REMARK                         _______ _______ _______ _____ _____    ______ ____
ROOT
ATOM      1  C   UNL     1       3.292   5.892  19.252  0.00  0.00    +0.000 A 
ATOM      2  C   UNL     1       3.262   6.206  17.895  0.00  0.00    +0.000 A 
ATOM      3  C   UNL     1       4.338   5.843  17.079  0.00  0.00    +0.000 A 
ATOM      4  C   UNL     1       5.443   5.169  17.615  0.00  0.00    +0.000 A 
ATOM      5  N   UNL     1       6.548   4.870  16.784  0.00  0.00    +0.000 N 
ATOM      6  C   UNL     1       7.735   4.444  17.534  0.00  0.00    +0.000 C 
ATOM      7  N   UNL     1       5.472   4.882  18.938  0.00  0.00    +0.000 NA
ATOM      8  C   UNL     1       4.423   5.254  19.721  0.00  0.00    +0.000 A 
ENDROOT
BRANCH   1  10
ATOM      9  N   UNL     1       2.002   7.645  20.360  0.00  0.00    +0.000 N 
ATOM     10  C   UNL     1       2.159   6.295  20.122  0.00  0.00    +0.000 C 
ATOM     11  O   UNL     1       1.443   5.434  20.622  0.00  0.00    +0.000 OA
ATOM     12  H   UNL     1       2.685   8.308  20.016  0.00  0.00    +0.000 HD
BRANCH   9  14
ATOM     13  C   UNL     1       0.574   9.570  20.925  0.00  0.00    +0.000 C 
ATOM     14  C   UNL     1       0.980   8.145  21.262  0.00  0.00    +0.000 C 
ENDBRANCH   9  14
ENDBRANCH   1  10
BRANCH   5  15
ATOM     15  C   UNL     1       6.204   4.016  15.625  0.00  0.00    +0.000 C 
BRANCH  15  16
ATOM     16  C   UNL     1       6.388   4.704  14.250  0.00  0.00    +0.000 C 
ATOM     17  C   UNL     1       6.290   3.749  13.065  0.00  0.00    +0.000 C 
BRANCH  16  18
ATOM     18  O   UNL     1       7.669   5.351  14.216  0.00  0.00    +0.000 OA
ATOM     19  H   UNL     1       8.285   4.783  13.722  0.00  0.00    +0.000 HD
ENDBRANCH  16  18
ENDBRANCH  15  16
ENDBRANCH   5  15
TORSDOF 5
ENDMDL
MODEL 4
REMARK VINA RESULT:      -6.2      2.962      4.161
REMARK  Name = 
REMARK  8 active torsions:
REMARK  status: ('A' for Active; 'I' for Inactive)
REMARK    1  A    between atoms: C_1  and  C_2
REMARK    2  A    between atoms: C_2  and  N_3
REMARK    3  A    between atoms: C_4  and  C_6
REMARK    4  A    between atoms: N_10  and  C_11
REMARK    5  A    between atoms: N_10  and  C_12
REMARK    6  A    between atoms: C_12  and  C_13
REMARK    7  A    between atoms: C_13  and  C_14
REMARK    8  A    between atoms: C_13  and  O_15
REMARK                            x       y       z     vdW  Elec       q    Type
REMARK                         _______ _______ _______ _____ _____    ______ ____
ROOT
ATOM      1  C   UNL     1       6.315   5.427  17.686  0.00  0.00    +0.000 A 
ATOM      2  C   UNL     1       5.625   4.614  16.791  0.00  0.00    +0.000 A 
ATOM      3  C   UNL     1       4.801   3.594  17.279  0.00  0.00    +0.000 A 
ATOM      4  C   UNL     1       4.667   3.386  18.657  0.00  0.00    +0.000 A 
ATOM      5  N   UNL     1       3.880   2.308  19.127  0.00  0.00    +0.000 N 
ATOM      6  C   UNL     1       4.074   2.032  20.555  0.00  0.00    +0.000 C 
ATOM      7  N   UNL     1       5.354   4.171  19.520  0.00  0.00    +0.000 NA
ATOM      8  C   UNL     1       6.162   5.149  19.029  0.00  0.00    +0.000 A 
ENDROOT
BRANCH   1  10
ATOM      9  N   UNL     1       7.408   7.592  17.982  0.00  0.00    +0.000 N 
ATOM     10  C   UNL     1       7.205   6.497  17.167  0.00  0.00    +0.000 C 
ATOM     11  O   UNL     1       7.683   6.394  16.043  0.00  0.00    +0.000 OA
ATOM     12  H   UNL     1       6.903   7.681  18.855  0.00  0.00    +0.000 HD
BRANCH   9  14
ATOM     13  C   UNL     1       8.750   9.523  18.714  0.00  0.00    +0.000 C 
ATOM     14  C   UNL     1       8.191   8.733  17.543  0.00  0.00    +0.000 C 
ENDBRANCH   9  14
ENDBRANCH   1  10
BRANCH   5  15
ATOM     15  C   UNL     1       2.467   2.372  18.690  0.00  0.00    +0.000 C 
BRANCH  15  16
ATOM     16  C   UNL     1       1.822   3.773  18.828  0.00  0.00    +0.000 C 
ATOM     17  C   UNL     1       0.895   3.908  20.032  0.00  0.00    +0.000 C 
BRANCH  16  18
ATOM     18  O   UNL     1       1.075   4.066  17.637  0.00  0.00    +0.000 OA
ATOM     19  H   UNL     1       1.612   4.651  17.076  0.00  0.00    +0.000 HD
ENDBRANCH  16  18
ENDBRANCH  15  16
ENDBRANCH   5  15
TORSDOF 5
ENDMDL
MODEL 5
REMARK VINA RESULT:      -6.0      1.010      1.087
REMARK  Name = 
REMARK  8 active torsions:
REMARK  status: ('A' for Active; 'I' for Inactive)
REMARK    1  A    between atoms: C_1  and  C_2
REMARK    2  A    between atoms: C_2  and  N_3
REMARK    3  A    between atoms: C_4  and  C_6
REMARK    4  A    between atoms: N_10  and  C_11
REMARK    5  A    between atoms: N_10  and  C_12
REMARK    6  A    between atoms: C_12  and  C_13
REMARK    7  A    between atoms: C_13  and  C_14
REMARK    8  A    between atoms: C_13  and  O_15
REMARK                            x       y       z     vdW  Elec       q    Type
REMARK                         _______ _______ _______ _____ _____    ______ ____
ROOT
ATOM      1  C   UNL     1       6.033   4.965  15.497  0.00  0.00    +0.000 A 
ATOM      2  C   UNL     1       6.267   4.049  16.521  0.00  0.00    +0.000 A 
ATOM      3  C   UNL     1       5.538   4.142  17.711  0.00  0.00    +0.000 A 
ATOM      4  C   UNL     1       4.578   5.148  17.879  0.00  0.00    +0.000 A 
ATOM      5  N   UNL     1       3.898   5.263  19.115  0.00  0.00    +0.000 N 
ATOM      6  C   UNL     1       3.158   6.523  19.251  0.00  0.00    +0.000 C 
ATOM      7  N   UNL     1       4.367   6.043  16.886  0.00  0.00    +0.000 NA
ATOM      8  C   UNL     1       5.095   5.947  15.741  0.00  0.00    +0.000 A 
ENDROOT
BRANCH   1  10
ATOM      9  N   UNL     1       6.359   4.011  13.272  0.00  0.00    +0.000 N 
ATOM     10  C   UNL     1       6.822   4.877  14.243  0.00  0.00    +0.000 C 
ATOM     11  O   UNL     1       7.855   5.528  14.129  0.00  0.00    +0.000 OA
ATOM     12  H   UNL     1       5.564   3.413  13.457  0.00  0.00    +0.000 HD
BRANCH   9  14
ATOM     13  C   UNL     1       6.848   2.394  11.481  0.00  0.00    +0.000 C 
ATOM     14  C   UNL     1       7.096   3.784  12.042  0.00  0.00    +0.000 C 
ENDBRANCH   9  14
ENDBRANCH   1  10
BRANCH   5  15
ATOM     15  C   UNL     1       3.137   4.049  19.488  0.00  0.00    +0.000 C 
BRANCH  15  16
ATOM     16  C   UNL     1       1.620   4.133  19.188  0.00  0.00    +0.000 C 
ATOM     17  C   UNL     1       0.752   3.377  20.188  0.00  0.00    +0.000 C 
BRANCH  16  18
ATOM     18  O   UNL     1       1.371   3.608  17.874  0.00  0.00    +0.000 OA
ATOM     19  H   UNL     1       1.869   2.778  17.777  0.00  0.00    +0.000 HD
ENDBRANCH  16  18
ENDBRANCH  15  16
ENDBRANCH   5  15
TORSDOF 5
ENDMDL
MODEL 6
REMARK VINA RESULT:      -6.0      3.124      4.141
REMARK  Name = 
REMARK  8 active torsions:
REMARK  status: ('A' for Active; 'I' for Inactive)
REMARK    1  A    between atoms: C_1  and  C_2
REMARK    2  A    between atoms: C_2  and  N_3
REMARK    3  A    between atoms: C_4  and  C_6
REMARK    4  A    between atoms: N_10  and  C_11
REMARK    5  A    between atoms: N_10  and  C_12
REMARK    6  A    between atoms: C_12  and  C_13
REMARK    7  A    between atoms: C_13  and  C_14
REMARK    8  A    between atoms: C_13  and  O_15
REMARK                            x       y       z     vdW  Elec       q    Type
REMARK                         _______ _______ _______ _____ _____    ______ ____
ROOT
ATOM      1  C   UNL     1       5.705   5.675  17.758  0.00  0.00    +0.000 A 
ATOM      2  C   UNL     1       4.745   4.991  17.015  0.00  0.00    +0.000 A 
ATOM      3  C   UNL     1       4.154   3.839  17.544  0.00  0.00    +0.000 A 
ATOM      4  C   UNL     1       4.520   3.371  18.812  0.00  0.00    +0.000 A 
ATOM      5  N   UNL     1       3.957   2.168  19.300  0.00  0.00    +0.000 N 
ATOM      6  C   UNL     1       4.647   1.648  20.487  0.00  0.00    +0.000 C 
ATOM      7  N   UNL     1       5.465   4.032  19.521  0.00  0.00    +0.000 NA
ATOM      8  C   UNL     1       6.041   5.143  18.986  0.00  0.00    +0.000 A 
ENDROOT
BRANCH   1  10
ATOM      9  N   UNL     1       7.396   7.433  17.898  0.00  0.00    +0.000 N 
ATOM     10  C   UNL     1       6.346   6.886  17.187  0.00  0.00    +0.000 C 
ATOM     11  O   UNL     1       5.907   7.373  16.151  0.00  0.00    +0.000 OA
ATOM     12  H   UNL     1       7.649   7.059  18.804  0.00  0.00    +0.000 HD
BRANCH   9  14
ATOM     13  C   UNL     1       8.695   9.388  18.641  0.00  0.00    +0.000 C 
ATOM     14  C   UNL     1       8.041   8.663  17.477  0.00  0.00    +0.000 C 
ENDBRANCH   9  14
ENDBRANCH   1  10
BRANCH   5  15
ATOM     15  C   UNL     1       2.481   2.204  19.404  0.00  0.00    +0.000 C 
BRANCH  15  16
ATOM     16  C   UNL     1       1.939   3.249  20.410  0.00  0.00    +0.000 C 
ATOM     17  C   UNL     1       1.395   2.640  21.698  0.00  0.00    +0.000 C 
BRANCH  16  18
ATOM     18  O   UNL     1       0.894   4.008  19.783  0.00  0.00    +0.000 OA
ATOM     19  H   UNL     1       0.340   4.400  20.480  0.00  0.00    +0.000 HD
ENDBRANCH  16  18
ENDBRANCH  15  16
ENDBRANCH   5  15
TORSDOF 5
ENDMDL
MODEL 7
REMARK VINA RESULT:      -6.0      1.063      1.134
REMARK  Name = 
REMARK  8 active torsions:
REMARK  status: ('A' for Active; 'I' for Inactive)
REMARK    1  A    between atoms: C_1  and  C_2
REMARK    2  A    between atoms: C_2  and  N_3
REMARK    3  A    between atoms: C_4  and  C_6
REMARK    4  A    between atoms: N_10  and  C_11
REMARK    5  A    between atoms: N_10  and  C_12
REMARK    6  A    between atoms: C_12  and  C_13
REMARK    7  A    between atoms: C_13  and  C_14
REMARK    8  A    between atoms: C_13  and  O_15
REMARK                            x       y       z     vdW  Elec       q    Type
REMARK                         _______ _______ _______ _____ _____    ______ ____
ROOT
ATOM      1  C   UNL     1       5.628   5.010  16.659  0.00  0.00    +0.000 A 
ATOM      2  C   UNL     1       5.219   3.886  17.373  0.00  0.00    +0.000 A 
ATOM      3  C   UNL     1       4.187   4.000  18.310  0.00  0.00    +0.000 A 
ATOM      4  C   UNL     1       3.565   5.234  18.536  0.00  0.00    +0.000 A 
ATOM      5  N   UNL     1       2.569   5.340  19.535  0.00  0.00    +0.000 N 
ATOM      6  C   UNL     1       2.228   6.729  19.865  0.00  0.00    +0.000 C 
ATOM      7  N   UNL     1       3.979   6.326  17.850  0.00  0.00    +0.000 NA
ATOM      8  C   UNL     1       4.993   6.200  16.952  0.00  0.00    +0.000 A 
ENDROOT
BRANCH   1  10
ATOM      9  N   UNL     1       6.423   5.106  14.352  0.00  0.00    +0.000 N 
ATOM     10  C   UNL     1       6.736   4.892  15.679  0.00  0.00    +0.000 C 
ATOM     11  O   UNL     1       7.856   4.576  16.065  0.00  0.00    +0.000 OA
ATOM     12  H   UNL     1       5.462   5.255  14.070  0.00  0.00    +0.000 HD
BRANCH   9  14
ATOM     13  C   UNL     1       6.922   3.991  12.214  0.00  0.00    +0.000 C 
ATOM     14  C   UNL     1       7.408   4.935  13.300  0.00  0.00    +0.000 C 
ENDBRANCH   9  14
ENDBRANCH   1  10
BRANCH   5  15
ATOM     15  C   UNL     1       1.407   4.450  19.310  0.00  0.00    +0.000 C 
BRANCH  15  16
ATOM     16  C   UNL     1       1.234   3.347  20.382  0.00  0.00    +0.000 C 
ATOM     17  C   UNL     1       2.123   3.532  21.607  0.00  0.00    +0.000 C 
BRANCH  16  18
ATOM     18  O   UNL     1       1.522   2.069  19.793  0.00  0.00    +0.000 OA
ATOM     19  H   UNL     1       2.402   2.114  19.381  0.00  0.00    +0.000 HD
ENDBRANCH  16  18
ENDBRANCH  15  16
ENDBRANCH   5  15
TORSDOF 5
ENDMDL
MODEL 8
REMARK VINA RESULT:      -5.9      3.362      4.591
REMARK  Name = 
REMARK  8 active torsions:
REMARK  status: ('A' for Active; 'I' for Inactive)
REMARK    1  A    between atoms: C_1  and  C_2
REMARK    2  A    between atoms: C_2  and  N_3
REMARK    3  A    between atoms: C_4  and  C_6
REMARK    4  A    between atoms: N_10  and  C_11
REMARK    5  A    between atoms: N_10  and  C_12
REMARK    6  A    between atoms: C_12  and  C_13
REMARK    7  A    between atoms: C_13  and  C_14
REMARK    8  A    between atoms: C_13  and  O_15
REMARK                            x       y       z     vdW  Elec       q    Type
REMARK                         _______ _______ _______ _____ _____    ______ ____
ROOT
ATOM      1  C   UNL     1       6.542   6.417  17.944  0.00  0.00    +0.000 A 
ATOM      2  C   UNL     1       5.282   6.408  17.349  0.00  0.00    +0.000 A 
ATOM      3  C   UNL     1       4.345   5.442  17.730  0.00  0.00    +0.000 A 
ATOM      4  C   UNL     1       4.665   4.486  18.702  0.00  0.00    +0.000 A 
ATOM      5  N   UNL     1       3.725   3.479  19.025  0.00  0.00    +0.000 N 
ATOM      6  C   UNL     1       4.300   2.388  19.822  0.00  0.00    +0.000 C 
ATOM      7  N   UNL     1       5.896   4.491  19.265  0.00  0.00    +0.000 NA
ATOM      8  C   UNL     1       6.801   5.429  18.872  0.00  0.00    +0.000 A 
ENDROOT
BRANCH   1  10
ATOM      9  N   UNL     1       7.668   8.552  18.320  0.00  0.00    +0.000 N 
ATOM     10  C   UNL     1       7.542   7.430  17.525  0.00  0.00    +0.000 C 
ATOM     11  O   UNL     1       8.177   7.263  16.490  0.00  0.00    +0.000 OA
ATOM     12  H   UNL     1       7.043   8.697  19.103  0.00  0.00    +0.000 HD
BRANCH   9  14
ATOM     13  C   UNL     1       9.268  10.218  19.172  0.00  0.00    +0.000 C 
ATOM     14  C   UNL     1       8.554   9.644  17.960  0.00  0.00    +0.000 C 
ENDBRANCH   9  14
ENDBRANCH   1  10
BRANCH   5  15
ATOM     15  C   UNL     1       2.439   4.009  19.531  0.00  0.00    +0.000 C 
BRANCH  15  16
ATOM     16  C   UNL     1       1.207   3.606  18.683  0.00  0.00    +0.000 C 
ATOM     17  C   UNL     1       0.704   2.193  18.960  0.00  0.00    +0.000 C 
BRANCH  16  18
ATOM     18  O   UNL     1       1.540   3.710  17.290  0.00  0.00    +0.000 OA
ATOM     19  H   UNL     1       1.842   2.838  16.981  0.00  0.00    +0.000 HD
ENDBRANCH  16  18
ENDBRANCH  15  16
ENDBRANCH   5  15
TORSDOF 5
ENDMDL
MODEL 9
REMARK VINA RESULT:      -5.9      1.360      1.712
REMARK  Name = 
REMARK  8 active torsions:
REMARK  status: ('A' for Active; 'I' for Inactive)
REMARK    1  A    between atoms: C_1  and  C_2
REMARK    2  A    between atoms: C_2  and  N_3
REMARK    3  A    between atoms: C_4  and  C_6
REMARK    4  A    between atoms: N_10  and  C_11
REMARK    5  A    between atoms: N_10  and  C_12
REMARK    6  A    between atoms: C_12  and  C_13
REMARK    7  A    between atoms: C_13  and  C_14
REMARK    8  A    between atoms: C_13  and  O_15
REMARK                            x       y       z     vdW  Elec       q    Type
REMARK                         _______ _______ _______ _____ _____    ______ ____
ROOT
ATOM      1  C   UNL     1       4.439   5.504  16.835  0.00  0.00    +0.000 A 
ATOM      2  C   UNL     1       4.252   4.260  17.433  0.00  0.00    +0.000 A 
ATOM      3  C   UNL     1       3.444   4.154  18.569  0.00  0.00    +0.000 A 
ATOM      4  C   UNL     1       2.824   5.288  19.109  0.00  0.00    +0.000 A 
ATOM      5  N   UNL     1       2.064   5.168  20.297  0.00  0.00    +0.000 N 
ATOM      6  C   UNL     1       1.734   6.464  20.903  0.00  0.00    +0.000 C 
ATOM      7  N   UNL     1       3.024   6.496  18.532  0.00  0.00    +0.000 NA
ATOM      8  C   UNL     1       3.824   6.584  17.435  0.00  0.00    +0.000 A 
ENDROOT
BRANCH   1  10
ATOM      9  N   UNL     1       5.903   4.457  15.183  0.00  0.00    +0.000 N 
ATOM     10  C   UNL     1       5.313   5.618  15.640  0.00  0.00    +0.000 C 
ATOM     11  O   UNL     1       5.510   6.719  15.137  0.00  0.00    +0.000 OA
ATOM     12  H   UNL     1       5.798   3.592  15.699  0.00  0.00    +0.000 HD
BRANCH   9  14
ATOM     13  C   UNL     1       6.292   3.734  12.862  0.00  0.00    +0.000 C 
ATOM     14  C   UNL     1       6.840   4.465  14.075  0.00  0.00    +0.000 C 
ENDBRANCH   9  14
ENDBRANCH   1  10
BRANCH   5  15
ATOM     15  C   UNL     1       0.928   4.227  20.181  0.00  0.00    +0.000 C 
BRANCH  15  16
ATOM     16  C   UNL     1       1.179   2.844  20.829  0.00  0.00    +0.000 C 
ATOM     17  C   UNL     1       2.345   2.826  21.811  0.00  0.00    +0.000 C 
BRANCH  16  18
ATOM     18  O   UNL     1       1.432   1.879  19.796  0.00  0.00    +0.000 OA
ATOM     19  H   UNL     1       1.067   1.023  20.081  0.00  0.00    +0.000 HD
ENDBRANCH  16  18
ENDBRANCH  15  16
ENDBRANCH   5  15
TORSDOF 5
ENDMDL
