MODEL 1
REMARK VINA RESULT:      -8.8      0.000      0.000
REMARK  Name = 
REMARK  4 active torsions:
REMARK  status: ('A' for Active; 'I' for Inactive)
REMARK    1  A    between atoms: C_1  and  N_2
REMARK    2  A    between atoms: C_4  and  C_5
REMARK    3  A    between atoms: C_6  and  C_7
REMARK    4  A    between atoms: N_9  and  C_10
REMARK                            x       y       z     vdW  Elec       q    Type
REMARK                         _______ _______ _______ _____ _____    ______ ____
ROOT
ATOM      1  C   UNL     1       2.418   3.979  19.302  0.00  0.00    +0.000 C 
ATOM      2  C   UNL     1       3.525   3.427  18.785  0.00  0.00    +0.000 C 
ATOM      3  C   UNL     1       3.252   1.981  18.608  0.00  0.00    +0.000 C 
ATOM      4  O   UNL     1       4.016   1.146  18.157  0.00  0.00    +0.000 OA
ATOM      5  N   UNL     1       1.994   1.752  19.044  0.00  0.00    +0.000 N 
ATOM      6  C   UNL     1       1.430   2.891  19.500  0.00  0.00    +0.000 C 
ATOM      7  O   UNL     1       0.323   2.986  19.995  0.00  0.00    +0.000 OA
ATOM      8  H   UNL     1       1.553   0.848  19.062  0.00  0.00    +0.000 HD
ENDROOT
BRANCH   1  12
ATOM      9  C   UNL     1       0.977   7.958  21.816  0.00  0.00    +0.000 C 
ATOM     10  N   UNL     1       1.495   7.126  20.752  0.00  0.00    +0.000 N 
ATOM     11  C   UNL     1       1.611   5.762  20.810  0.00  0.00    +0.000 A 
ATOM     12  C   UNL     1       2.175   5.339  19.626  0.00  0.00    +0.000 A 
ATOM     13  C   UNL     1       2.406   6.490  18.814  0.00  0.00    +0.000 A 
ATOM     14  C   UNL     1       2.947   6.704  17.528  0.00  0.00    +0.000 A 
ATOM     15  C   UNL     1       3.013   8.004  17.012  0.00  0.00    +0.000 A 
ATOM     16  C   UNL     1       2.547   9.086  17.751  0.00  0.00    +0.000 A 
ATOM     17  C   UNL     1       2.007   8.903  19.026  0.00  0.00    +0.000 A 
ATOM     18  C   UNL     1       1.952   7.598  19.539  0.00  0.00    +0.000 A 
ENDBRANCH   1  12
BRANCH   2  19
ATOM     19  C   UNL     1       4.760   4.042  18.451  0.00  0.00    +0.000 A 
ATOM     20  C   UNL     1       5.620   4.618  19.370  0.00  0.00    +0.000 A 
ATOM     21  N   UNL     1       6.687   5.132  18.675  0.00  0.00    +0.000 N 
ATOM     22  C   UNL     1       7.812   5.845  19.232  0.00  0.00    +0.000 C 
ATOM     23  C   UNL     1       6.535   4.890  17.335  0.00  0.00    +0.000 A 
ATOM     24  N   UNL     1       7.411   5.269  16.381  0.00  0.00    +0.000 NA
ATOM     25  C   UNL     1       7.025   4.918  15.136  0.00  0.00    +0.000 A 
ATOM     26  C   UNL     1       5.863   4.232  14.815  0.00  0.00    +0.000 A 
ATOM     27  C   UNL     1       4.988   3.859  15.838  0.00  0.00    +0.000 A 
ATOM     28  C   UNL     1       5.335   4.205  17.156  0.00  0.00    +0.000 A 
ENDBRANCH   2  19
TORSDOF 2
ENDMDL
MODEL 2
REMARK VINA RESULT:      -8.8      0.532      4.977
REMARK  Name = 
REMARK  4 active torsions:
REMARK  status: ('A' for Active; 'I' for Inactive)
REMARK    1  A    between atoms: C_1  and  N_2
REMARK    2  A    between atoms: C_4  and  C_5
REMARK    3  A    between atoms: C_6  and  C_7
REMARK    4  A    between atoms: N_9  and  C_10
REMARK                            x       y       z     vdW  Elec       q    Type
REMARK                         _______ _______ _______ _____ _____    ______ ____
ROOT
ATOM      1  C   UNL     1       3.503   3.436  18.830  0.00  0.00    +0.000 C 
ATOM      2  C   UNL     1       2.402   3.998  19.348  0.00  0.00    +0.000 C 
ATOM      3  C   UNL     1       1.413   2.915  19.558  0.00  0.00    +0.000 C 
ATOM      4  O   UNL     1       0.292   3.033  20.020  0.00  0.00    +0.000 OA
ATOM      5  N   UNL     1       1.982   1.763  19.140  0.00  0.00    +0.000 N 
ATOM      6  C   UNL     1       3.225   1.988  18.665  0.00  0.00    +0.000 C 
ATOM      7  O   UNL     1       3.962   1.151  18.179  0.00  0.00    +0.000 OA
ATOM      8  H   UNL     1       1.524   0.867  19.145  0.00  0.00    +0.000 HD
ENDROOT
BRANCH   1  12
ATOM      9  C   UNL     1       7.791   5.811  19.277  0.00  0.00    +0.000 C 
ATOM     10  N   UNL     1       6.649   5.151  18.684  0.00  0.00    +0.000 N 
ATOM     11  C   UNL     1       5.597   4.624  19.387  0.00  0.00    +0.000 A 
ATOM     12  C   UNL     1       4.731   4.052  18.479  0.00  0.00    +0.000 A 
ATOM     13  C   UNL     1       5.275   4.243  17.174  0.00  0.00    +0.000 A 
ATOM     14  C   UNL     1       4.867   3.894  15.868  0.00  0.00    +0.000 A 
ATOM     15  C   UNL     1       5.658   4.264  14.773  0.00  0.00    +0.000 A 
ATOM     16  C   UNL     1       6.839   4.976  14.957  0.00  0.00    +0.000 A 
ATOM     17  C   UNL     1       7.266   5.335  16.238  0.00  0.00    +0.000 A 
ATOM     18  C   UNL     1       6.472   4.953  17.331  0.00  0.00    +0.000 A 
ENDBRANCH   1  12
BRANCH   2  19
ATOM     19  C   UNL     1       2.155   5.362  19.657  0.00  0.00    +0.000 A 
ATOM     20  C   UNL     1       1.616   5.807  20.851  0.00  0.00    +0.000 A 
ATOM     21  N   UNL     1       1.500   7.173  20.770  0.00  0.00    +0.000 N 
ATOM     22  C   UNL     1       0.960   8.052  21.782  0.00  0.00    +0.000 C 
ATOM     23  C   UNL     1       1.960   7.613  19.557  0.00  0.00    +0.000 A 
ATOM     24  N   UNL     1       1.979   8.904  19.163  0.00  0.00    +0.000 NA
ATOM     25  C   UNL     1       2.474   9.071  17.918  0.00  0.00    +0.000 A 
ATOM     26  C   UNL     1       2.933   8.059  17.090  0.00  0.00    +0.000 A 
ATOM     27  C   UNL     1       2.893   6.738  17.542  0.00  0.00    +0.000 A 
ATOM     28  C   UNL     1       2.381   6.501  18.830  0.00  0.00    +0.000 A 
ENDBRANCH   2  19
TORSDOF 2
ENDMDL
MODEL 3
REMARK VINA RESULT:      -8.0      1.133      2.259
REMARK  Name = 
REMARK  4 active torsions:
REMARK  status: ('A' for Active; 'I' for Inactive)
REMARK    1  A    between atoms: C_1  and  N_2
REMARK    2  A    between atoms: C_4  and  C_5
REMARK    3  A    between atoms: C_6  and  C_7
REMARK    4  A    between atoms: N_9  and  C_10
REMARK                            x       y       z     vdW  Elec       q    Type
REMARK                         _______ _______ _______ _____ _____    ______ ____
ROOT
ATOM      1  C   UNL     1       2.674   5.036  19.506  0.00  0.00    +0.000 C 
ATOM      2  C   UNL     1       3.808   4.382  19.216  0.00  0.00    +0.000 C 
ATOM      3  C   UNL     1       3.618   2.971  19.630  0.00  0.00    +0.000 C 
ATOM      4  O   UNL     1       4.426   2.066  19.521  0.00  0.00    +0.000 OA
ATOM      5  N   UNL     1       2.378   2.869  20.156  0.00  0.00    +0.000 N 
ATOM      6  C   UNL     1       1.752   4.065  20.144  0.00  0.00    +0.000 C 
ATOM      7  O   UNL     1       0.645   4.291  20.593  0.00  0.00    +0.000 OA
ATOM      8  H   UNL     1       1.990   2.024  20.541  0.00  0.00    +0.000 HD
ENDROOT
BRANCH   1  12
ATOM      9  C   UNL     1       2.395   9.422  17.290  0.00  0.00    +0.000 C 
ATOM     10  N   UNL     1       2.259   8.382  18.286  0.00  0.00    +0.000 N 
ATOM     11  C   UNL     1       2.694   7.091  18.135  0.00  0.00    +0.000 A 
ATOM     12  C   UNL     1       2.355   6.399  19.277  0.00  0.00    +0.000 A 
ATOM     13  C   UNL     1       1.693   7.305  20.160  0.00  0.00    +0.000 A 
ATOM     14  C   UNL     1       1.124   7.199  21.447  0.00  0.00    +0.000 A 
ATOM     15  C   UNL     1       0.551   8.328  22.047  0.00  0.00    +0.000 A 
ATOM     16  C   UNL     1       0.543   9.554  21.390  0.00  0.00    +0.000 A 
ATOM     17  C   UNL     1       1.100   9.688  20.116  0.00  0.00    +0.000 A 
ATOM     18  C   UNL     1       1.663   8.549  19.518  0.00  0.00    +0.000 A 
ENDBRANCH   1  12
BRANCH   2  19
ATOM     19  C   UNL     1       5.003   4.878  18.632  0.00  0.00    +0.000 A 
ATOM     20  C   UNL     1       5.955   5.617  19.311  0.00  0.00    +0.000 A 
ATOM     21  N   UNL     1       6.946   5.940  18.416  0.00  0.00    +0.000 N 
ATOM     22  C   UNL     1       8.125   6.728  18.686  0.00  0.00    +0.000 C 
ATOM     23  C   UNL     1       6.654   5.416  17.184  0.00  0.00    +0.000 A 
ATOM     24  N   UNL     1       7.426   5.557  16.086  0.00  0.00    +0.000 NA
ATOM     25  C   UNL     1       6.911   4.953  14.994  0.00  0.00    +0.000 A 
ATOM     26  C   UNL     1       5.721   4.244  14.951  0.00  0.00    +0.000 A 
ATOM     27  C   UNL     1       4.956   4.125  16.114  0.00  0.00    +0.000 A 
ATOM     28  C   UNL     1       5.440   4.740  17.282  0.00  0.00    +0.000 A 
ENDBRANCH   2  19
TORSDOF 2
ENDMDL
MODEL 4
REMARK VINA RESULT:      -7.9      1.198      5.693
REMARK  Name = 
REMARK  4 active torsions:
REMARK  status: ('A' for Active; 'I' for Inactive)
REMARK    1  A    between atoms: C_1  and  N_2
REMARK    2  A    between atoms: C_4  and  C_5
REMARK    3  A    between atoms: C_6  and  C_7
REMARK    4  A    between atoms: N_9  and  C_10
REMARK                            x       y       z     vdW  Elec       q    Type
REMARK                         _______ _______ _______ _____ _____    ______ ____
ROOT
ATOM      1  C   UNL     1       3.724   4.337  19.280  0.00  0.00    +0.000 C 
ATOM      2  C   UNL     1       2.609   5.030  19.554  0.00  0.00    +0.000 C 
ATOM      3  C   UNL     1       1.653   4.091  20.187  0.00  0.00    +0.000 C 
ATOM      4  O   UNL     1       0.532   4.352  20.584  0.00  0.00    +0.000 OA
ATOM      5  N   UNL     1       2.254   2.882  20.245  0.00  0.00    +0.000 N 
ATOM      6  C   UNL     1       3.488   2.934  19.700  0.00  0.00    +0.000 C 
ATOM      7  O   UNL     1       4.247   1.992  19.569  0.00  0.00    +0.000 OA
ATOM      8  H   UNL     1       1.823   2.049  20.608  0.00  0.00    +0.000 HD
ENDROOT
BRANCH   1  12
ATOM      9  C   UNL     1       8.122   6.500  18.823  0.00  0.00    +0.000 C 
ATOM     10  N   UNL     1       6.900   5.801  18.490  0.00  0.00    +0.000 N 
ATOM     11  C   UNL     1       5.907   5.489  19.381  0.00  0.00    +0.000 A 
ATOM     12  C   UNL     1       4.932   4.797  18.696  0.00  0.00    +0.000 A 
ATOM     13  C   UNL     1       5.345   4.689  17.334  0.00  0.00    +0.000 A 
ATOM     14  C   UNL     1       4.791   4.108  16.173  0.00  0.00    +0.000 A 
ATOM     15  C   UNL     1       5.478   4.203  14.956  0.00  0.00    +0.000 A 
ATOM     16  C   UNL     1       6.697   4.867  14.878  0.00  0.00    +0.000 A 
ATOM     17  C   UNL     1       7.268   5.452  16.011  0.00  0.00    +0.000 A 
ATOM     18  C   UNL     1       6.577   5.345  17.229  0.00  0.00    +0.000 A 
ENDBRANCH   1  12
BRANCH   2  19
ATOM     19  C   UNL     1       2.323   6.399  19.307  0.00  0.00    +0.000 A 
ATOM     20  C   UNL     1       2.615   7.057  18.126  0.00  0.00    +0.000 A 
ATOM     21  N   UNL     1       2.221   8.365  18.271  0.00  0.00    +0.000 N 
ATOM     22  C   UNL     1       2.361   9.418  17.293  0.00  0.00    +0.000 C 
ATOM     23  C   UNL     1       1.675   8.556  19.513  0.00  0.00    +0.000 A 
ATOM     24  N   UNL     1       1.194   9.731  19.970  0.00  0.00    +0.000 NA
ATOM     25  C   UNL     1       0.717   9.656  21.231  0.00  0.00    +0.000 A 
ATOM     26  C   UNL     1       0.695   8.514  22.017  0.00  0.00    +0.000 A 
ATOM     27  C   UNL     1       1.204   7.321  21.501  0.00  0.00    +0.000 A 
ATOM     28  C   UNL     1       1.721   7.340  20.193  0.00  0.00    +0.000 A 
ENDBRANCH   2  19
TORSDOF 2
ENDMDL
MODEL 5
REMARK VINA RESULT:      -7.2      8.402     10.689
REMARK  Name = 
REMARK  4 active torsions:
REMARK  status: ('A' for Active; 'I' for Inactive)
REMARK    1  A    between atoms: C_1  and  N_2
REMARK    2  A    between atoms: C_4  and  C_5
REMARK    3  A    between atoms: C_6  and  C_7
REMARK    4  A    between atoms: N_9  and  C_10
REMARK                            x       y       z     vdW  Elec       q    Type
REMARK                         _______ _______ _______ _____ _____    ______ ____
ROOT
ATOM      1  C   UNL     1      -2.296  13.160  21.535  0.00  0.00    +0.000 C 
ATOM      2  C   UNL     1      -1.333  14.087  21.635  0.00  0.00    +0.000 C 
ATOM      3  C   UNL     1      -1.071  14.293  23.079  0.00  0.00    +0.000 C 
ATOM      4  O   UNL     1      -0.257  15.055  23.569  0.00  0.00    +0.000 OA
ATOM      5  N   UNL     1      -1.907  13.480  23.760  0.00  0.00    +0.000 N 
ATOM      6  C   UNL     1      -2.694  12.783  22.913  0.00  0.00    +0.000 C 
ATOM      7  O   UNL     1      -3.573  12.007  23.237  0.00  0.00    +0.000 OA
ATOM      8  H   UNL     1      -1.963  13.431  24.764  0.00  0.00    +0.000 HD
ENDROOT
BRANCH   1  12
ATOM      9  C   UNL     1      -5.630  12.061  18.084  0.00  0.00    +0.000 C 
ATOM     10  N   UNL     1      -4.390  12.089  18.828  0.00  0.00    +0.000 N 
ATOM     11  C   UNL     1      -4.180  12.807  19.977  0.00  0.00    +0.000 A 
ATOM     12  C   UNL     1      -2.873  12.605  20.364  0.00  0.00    +0.000 A 
ATOM     13  C   UNL     1      -2.266  11.725  19.418  0.00  0.00    +0.000 A 
ATOM     14  C   UNL     1      -0.981  11.160  19.273  0.00  0.00    +0.000 A 
ATOM     15  C   UNL     1      -0.721  10.296  18.201  0.00  0.00    +0.000 A 
ATOM     16  C   UNL     1      -1.718   9.986  17.281  0.00  0.00    +0.000 A 
ATOM     17  C   UNL     1      -2.998  10.530  17.402  0.00  0.00    +0.000 A 
ATOM     18  C   UNL     1      -3.247  11.402  18.474  0.00  0.00    +0.000 A 
ENDBRANCH   1  12
BRANCH   2  19
ATOM     19  C   UNL     1      -0.653  14.785  20.603  0.00  0.00    +0.000 A 
ATOM     20  C   UNL     1      -1.176  15.866  19.915  0.00  0.00    +0.000 A 
ATOM     21  N   UNL     1      -0.246  16.253  18.981  0.00  0.00    +0.000 N 
ATOM     22  C   UNL     1      -0.385  17.325  18.024  0.00  0.00    +0.000 C 
ATOM     23  C   UNL     1       0.862  15.452  19.062  0.00  0.00    +0.000 A 
ATOM     24  N   UNL     1       1.955  15.569  18.279  0.00  0.00    +0.000 NA
ATOM     25  C   UNL     1       2.906  14.652  18.554  0.00  0.00    +0.000 A 
ATOM     26  C   UNL     1       2.823  13.673  19.532  0.00  0.00    +0.000 A 
ATOM     27  C   UNL     1       1.672  13.591  20.318  0.00  0.00    +0.000 A 
ATOM     28  C   UNL     1       0.643  14.518  20.072  0.00  0.00    +0.000 A 
ENDBRANCH   2  19
TORSDOF 2
ENDMDL
MODEL 6
REMARK VINA RESULT:      -7.1      5.850     10.119
REMARK  Name = 
REMARK  4 active torsions:
REMARK  status: ('A' for Active; 'I' for Inactive)
REMARK    1  A    between atoms: C_1  and  N_2
REMARK    2  A    between atoms: C_4  and  C_5
REMARK    3  A    between atoms: C_6  and  C_7
REMARK    4  A    between atoms: N_9  and  C_10
REMARK                            x       y       z     vdW  Elec       q    Type
REMARK                         _______ _______ _______ _____ _____    ______ ____
ROOT
ATOM      1  C   UNL     1       0.886  12.777  19.179  0.00  0.00    +0.000 C 
ATOM      2  C   UNL     1      -0.253  13.481  19.132  0.00  0.00    +0.000 C 
ATOM      3  C   UNL     1       0.113  14.892  18.868  0.00  0.00    +0.000 C 
ATOM      4  O   UNL     1      -0.651  15.833  18.750  0.00  0.00    +0.000 OA
ATOM      5  N   UNL     1       1.461  14.949  18.782  0.00  0.00    +0.000 N 
ATOM      6  C   UNL     1       2.005  13.730  18.981  0.00  0.00    +0.000 C 
ATOM      7  O   UNL     1       3.195  13.480  19.008  0.00  0.00    +0.000 OA
ATOM      8  H   UNL     1       1.987  15.793  18.630  0.00  0.00    +0.000 HD
ENDROOT
BRANCH   1  12
ATOM      9  C   UNL     1       2.090   8.082  18.315  0.00  0.00    +0.000 C 
ATOM     10  N   UNL     1       1.576   9.264  18.972  0.00  0.00    +0.000 N 
ATOM     11  C   UNL     1       1.607  10.529  18.448  0.00  0.00    +0.000 A 
ATOM     12  C   UNL     1       1.059  11.383  19.380  0.00  0.00    +0.000 A 
ATOM     13  C   UNL     1       0.673  10.606  20.514  0.00  0.00    +0.000 A 
ATOM     14  C   UNL     1       0.074  10.897  21.758  0.00  0.00    +0.000 A 
ATOM     15  C   UNL     1      -0.187   9.858  22.661  0.00  0.00    +0.000 A 
ATOM     16  C   UNL     1       0.134   8.543  22.343  0.00  0.00    +0.000 A 
ATOM     17  C   UNL     1       0.727   8.227  21.119  0.00  0.00    +0.000 A 
ATOM     18  C   UNL     1       0.993   9.275  20.223  0.00  0.00    +0.000 A 
ENDBRANCH   1  12
BRANCH   2  19
ATOM     19  C   UNL     1      -1.590  13.032  19.302  0.00  0.00    +0.000 A 
ATOM     20  C   UNL     1      -2.405  13.389  20.361  0.00  0.00    +0.000 A 
ATOM     21  N   UNL     1      -3.605  12.741  20.198  0.00  0.00    +0.000 N 
ATOM     22  C   UNL     1      -4.743  12.803  21.086  0.00  0.00    +0.000 C 
ATOM     23  C   UNL     1      -3.580  11.987  19.055  0.00  0.00    +0.000 A 
ATOM     24  N   UNL     1      -4.604  11.227  18.612  0.00  0.00    +0.000 NA
ATOM     25  C   UNL     1      -4.322  10.574  17.464  0.00  0.00    +0.000 A 
ATOM     26  C   UNL     1      -3.125  10.646  16.769  0.00  0.00    +0.000 A 
ATOM     27  C   UNL     1      -2.095  11.447  17.266  0.00  0.00    +0.000 A 
ATOM     28  C   UNL     1      -2.328  12.147  18.464  0.00  0.00    +0.000 A 
ENDBRANCH   2  19
TORSDOF 2
ENDMDL
MODEL 7
REMARK VINA RESULT:      -7.1      6.964     11.856
REMARK  Name = 
REMARK  4 active torsions:
REMARK  status: ('A' for Active; 'I' for Inactive)
REMARK    1  A    between atoms: C_1  and  N_2
REMARK    2  A    between atoms: C_4  and  C_5
REMARK    3  A    between atoms: C_6  and  C_7
REMARK    4  A    between atoms: N_9  and  C_10
REMARK                            x       y       z     vdW  Elec       q    Type
REMARK                         _______ _______ _______ _____ _____    ______ ____
ROOT
ATOM      1  C   UNL     1      -0.721  13.705  20.213  0.00  0.00    +0.000 C 
ATOM      2  C   UNL     1      -1.894  14.236  20.588  0.00  0.00    +0.000 C 
ATOM      3  C   UNL     1      -1.740  15.709  20.554  0.00  0.00    +0.000 C 
ATOM      4  O   UNL     1      -2.592  16.537  20.824  0.00  0.00    +0.000 OA
ATOM      5  N   UNL     1      -0.472  15.973  20.169  0.00  0.00    +0.000 N 
ATOM      6  C   UNL     1       0.216  14.829  19.968  0.00  0.00    +0.000 C 
ATOM      7  O   UNL     1       1.390  14.751  19.661  0.00  0.00    +0.000 OA
ATOM      8  H   UNL     1      -0.083  16.897  20.083  0.00  0.00    +0.000 HD
ENDROOT
BRANCH   1  12
ATOM      9  C   UNL     1       0.645   9.473  18.103  0.00  0.00    +0.000 C 
ATOM     10  N   UNL     1       0.212  10.426  19.100  0.00  0.00    +0.000 N 
ATOM     11  C   UNL     1      -0.011  11.759  18.868  0.00  0.00    +0.000 A 
ATOM     12  C   UNL     1      -0.375  12.338  20.064  0.00  0.00    +0.000 A 
ATOM     13  C   UNL     1      -0.380  11.318  21.062  0.00  0.00    +0.000 A 
ATOM     14  C   UNL     1      -0.660  11.284  22.445  0.00  0.00    +0.000 A 
ATOM     15  C   UNL     1      -0.581  10.070  23.139  0.00  0.00    +0.000 A 
ATOM     16  C   UNL     1      -0.234   8.896  22.479  0.00  0.00    +0.000 A 
ATOM     17  C   UNL     1       0.048   8.900  21.111  0.00  0.00    +0.000 A 
ATOM     18  C   UNL     1      -0.025  10.123  20.425  0.00  0.00    +0.000 A 
ENDBRANCH   1  12
BRANCH   2  19
ATOM     19  C   UNL     1      -3.094  13.577  20.965  0.00  0.00    +0.000 A 
ATOM     20  C   UNL     1      -4.002  13.037  20.073  0.00  0.00    +0.000 A 
ATOM     21  N   UNL     1      -5.042  12.515  20.803  0.00  0.00    +0.000 N 
ATOM     22  C   UNL     1      -6.226  11.875  20.278  0.00  0.00    +0.000 C 
ATOM     23  C   UNL     1      -4.815  12.700  22.141  0.00  0.00    +0.000 A 
ATOM     24  N   UNL     1      -5.649  12.303  23.125  0.00  0.00    +0.000 NA
ATOM     25  C   UNL     1      -5.199  12.613  24.360  0.00  0.00    +0.000 A 
ATOM     26  C   UNL     1      -4.008  13.264  24.644  0.00  0.00    +0.000 A 
ATOM     27  C   UNL     1      -3.177  13.654  23.592  0.00  0.00    +0.000 A 
ATOM     28  C   UNL     1      -3.598  13.364  22.282  0.00  0.00    +0.000 A 
ENDBRANCH   2  19
TORSDOF 2
ENDMDL
MODEL 8
REMARK VINA RESULT:      -7.1      6.575     10.287
REMARK  Name = 
REMARK  4 active torsions:
REMARK  status: ('A' for Active; 'I' for Inactive)
REMARK    1  A    between atoms: C_1  and  N_2
REMARK    2  A    between atoms: C_4  and  C_5
REMARK    3  A    between atoms: C_6  and  C_7
REMARK    4  A    between atoms: N_9  and  C_10
REMARK                            x       y       z     vdW  Elec       q    Type
REMARK                         _______ _______ _______ _____ _____    ______ ____
ROOT
ATOM      1  C   UNL     1      -0.729  12.612  21.349  0.00  0.00    +0.000 C 
ATOM      2  C   UNL     1      -0.456  13.923  21.399  0.00  0.00    +0.000 C 
ATOM      3  C   UNL     1      -0.725  14.375  22.784  0.00  0.00    +0.000 C 
ATOM      4  O   UNL     1      -0.588  15.504  23.221  0.00  0.00    +0.000 OA
ATOM      5  N   UNL     1      -1.156  13.301  23.482  0.00  0.00    +0.000 N 
ATOM      6  C   UNL     1      -1.213  12.208  22.692  0.00  0.00    +0.000 C 
ATOM      7  O   UNL     1      -1.606  11.108  23.029  0.00  0.00    +0.000 OA
ATOM      8  H   UNL     1      -1.435  13.324  24.448  0.00  0.00    +0.000 HD
ENDROOT
BRANCH   1  12
ATOM      9  C   UNL     1       1.251   9.412  18.175  0.00  0.00    +0.000 C 
ATOM     10  N   UNL     1       0.303  10.304  18.806  0.00  0.00    +0.000 N 
ATOM     11  C   UNL     1       0.543  11.024  19.947  0.00  0.00    +0.000 A 
ATOM     12  C   UNL     1      -0.606  11.722  20.251  0.00  0.00    +0.000 A 
ATOM     13  C   UNL     1      -1.580  11.420  19.253  0.00  0.00    +0.000 A 
ATOM     14  C   UNL     1      -2.916  11.813  19.020  0.00  0.00    +0.000 A 
ATOM     15  C   UNL     1      -3.597  11.321  17.898  0.00  0.00    +0.000 A 
ATOM     16  C   UNL     1      -2.970  10.454  17.010  0.00  0.00    +0.000 A 
ATOM     17  C   UNL     1      -1.649  10.050  17.216  0.00  0.00    +0.000 A 
ATOM     18  C   UNL     1      -0.976  10.540  18.347  0.00  0.00    +0.000 A 
ENDBRANCH   1  12
BRANCH   2  19
ATOM     19  C   UNL     1      -0.001  14.783  20.364  0.00  0.00    +0.000 A 
ATOM     20  C   UNL     1      -0.798  15.701  19.704  0.00  0.00    +0.000 A 
ATOM     21  N   UNL     1      -0.020  16.321  18.757  0.00  0.00    +0.000 N 
ATOM     22  C   UNL     1      -0.449  17.332  17.820  0.00  0.00    +0.000 C 
ATOM     23  C   UNL     1       1.258  15.828  18.803  0.00  0.00    +0.000 A 
ATOM     24  N   UNL     1       2.266  16.229  18.000  0.00  0.00    +0.000 NA
ATOM     25  C   UNL     1       3.426  15.581  18.242  0.00  0.00    +0.000 A 
ATOM     26  C   UNL     1       3.618  14.604  19.206  0.00  0.00    +0.000 A 
ATOM     27  C   UNL     1       2.544  14.224  20.014  0.00  0.00    +0.000 A 
ATOM     28  C   UNL     1       1.308  14.860  19.803  0.00  0.00    +0.000 A 
ENDBRANCH   2  19
TORSDOF 2
ENDMDL
MODEL 9
REMARK VINA RESULT:      -7.1      7.810     12.418
REMARK  Name = 
REMARK  4 active torsions:
REMARK  status: ('A' for Active; 'I' for Inactive)
REMARK    1  A    between atoms: C_1  and  N_2
REMARK    2  A    between atoms: C_4  and  C_5
REMARK    3  A    between atoms: C_6  and  C_7
REMARK    4  A    between atoms: N_9  and  C_10
REMARK                            x       y       z     vdW  Elec       q    Type
REMARK                         _______ _______ _______ _____ _____    ______ ____
ROOT
ATOM      1  C   UNL     1      -2.007  13.769  22.197  0.00  0.00    +0.000 C 
ATOM      2  C   UNL     1      -3.275  14.147  21.984  0.00  0.00    +0.000 C 
ATOM      3  C   UNL     1      -3.359  15.594  22.293  0.00  0.00    +0.000 C 
ATOM      4  O   UNL     1      -4.349  16.299  22.213  0.00  0.00    +0.000 OA
ATOM      5  N   UNL     1      -2.129  15.994  22.687  0.00  0.00    +0.000 N 
ATOM      6  C   UNL     1      -1.264  14.958  22.682  0.00  0.00    +0.000 C 
ATOM      7  O   UNL     1      -0.100  15.004  23.031  0.00  0.00    +0.000 OA
ATOM      8  H   UNL     1      -1.901  16.929  22.981  0.00  0.00    +0.000 HD
ENDROOT
BRANCH   1  12
ATOM      9  C   UNL     1      -0.080   9.363  23.252  0.00  0.00    +0.000 C 
ATOM     10  N   UNL     1      -0.526  10.517  22.502  0.00  0.00    +0.000 N 
ATOM     11  C   UNL     1      -1.106  11.632  23.049  0.00  0.00    +0.000 A 
ATOM     12  C   UNL     1      -1.422  12.489  22.017  0.00  0.00    +0.000 A 
ATOM     13  C   UNL     1      -1.013  11.874  20.795  0.00  0.00    +0.000 A 
ATOM     14  C   UNL     1      -1.065  12.243  19.434  0.00  0.00    +0.000 A 
ATOM     15  C   UNL     1      -0.541  11.381  18.462  0.00  0.00    +0.000 A 
ATOM     16  C   UNL     1       0.033  10.167  18.825  0.00  0.00    +0.000 A 
ATOM     17  C   UNL     1       0.098   9.778  20.164  0.00  0.00    +0.000 A 
ATOM     18  C   UNL     1      -0.437  10.644  21.131  0.00  0.00    +0.000 A 
ENDBRANCH   1  12
BRANCH   2  19
ATOM     19  C   UNL     1      -4.381  13.368  21.551  0.00  0.00    +0.000 A 
ATOM     20  C   UNL     1      -4.534  12.875  20.268  0.00  0.00    +0.000 A 
ATOM     21  N   UNL     1      -5.730  12.201  20.223  0.00  0.00    +0.000 N 
ATOM     22  C   UNL     1      -6.306  11.548  19.071  0.00  0.00    +0.000 C 
ATOM     23  C   UNL     1      -6.340  12.244  21.449  0.00  0.00    +0.000 A 
ATOM     24  N   UNL     1      -7.531  11.678  21.736  0.00  0.00    +0.000 NA
ATOM     25  C   UNL     1      -7.916  11.871  23.016  0.00  0.00    +0.000 A 
ATOM     26  C   UNL     1      -7.197  12.564  23.978  0.00  0.00    +0.000 A 
ATOM     27  C   UNL     1      -5.969  13.131  23.633  0.00  0.00    +0.000 A 
ATOM     28  C   UNL     1      -5.519  12.969  22.311  0.00  0.00    +0.000 A 
ENDBRANCH   2  19
TORSDOF 2
ENDMDL
