MODEL 1
REMARK VINA RESULT:      -8.6      0.000      0.000
REMARK  Name = 
REMARK  8 active torsions:
REMARK  status: ('A' for Active; 'I' for Inactive)
REMARK    1  A    between atoms: C_5  and  C_6
REMARK    2  A    between atoms: C_7  and  C_8
REMARK    3  A    between atoms: C_10  and  N_11
REMARK    4  A    between atoms: N_11  and  C_12
REMARK    5  A    between atoms: C_12  and  C_13
REMARK    6  A    between atoms: C_13  and  C_14
REMARK    7  A    between atoms: C_14  and  C_15
REMARK    8  A    between atoms: C_15  and  N_16
REMARK                            x       y       z     vdW  Elec       q    Type
REMARK                         _______ _______ _______ _____ _____    ______ ____
ROOT
ATOM      1  C   UNL     1       1.757   9.017  18.559  0.00  0.00    +0.000 A 
ATOM      2  C   UNL     1       1.336  10.235  18.057  0.00  0.00    +0.000 A 
ATOM      3  C   UNL     1       0.494  11.062  18.816  0.00  0.00    +0.000 A 
ATOM      4  C   UNL     1       0.191  10.653  20.151  0.00  0.00    +0.000 A 
ATOM      5  C   UNL     1      -0.596  11.384  21.080  0.00  0.00    +0.000 A 
ATOM      6  C   UNL     1      -0.864  10.874  22.354  0.00  0.00    +0.000 A 
ATOM      7 CL   UNL     1      -1.838  11.768  23.455  0.00  0.00    +0.000 Cl
ATOM      8  C   UNL     1      -0.359   9.642  22.739  0.00  0.00    +0.000 A 
ATOM      9  C   UNL     1       0.420   8.919  21.839  0.00  0.00    +0.000 A 
ATOM     10  C   UNL     1       0.697   9.396  20.568  0.00  0.00    +0.000 A 
ATOM     11  N   UNL     1       1.441   8.601  19.796  0.00  0.00    +0.000 NA
ENDROOT
BRANCH   1  13
ATOM     12  C   UNL     1       3.135   7.000  18.193  0.00  0.00    +0.000 C 
ATOM     13  C   UNL     1       2.550   8.113  17.717  0.00  0.00    +0.000 C 
BRANCH  12  18
ATOM     14  F   UNL     1       6.087   3.196  15.325  0.00  0.00    +0.000 F 
ATOM     15  C   UNL     1       5.378   4.113  15.996  0.00  0.00    +0.000 A 
ATOM     16  C   UNL     1       5.660   5.463  15.812  0.00  0.00    +0.000 A 
ATOM     17  C   UNL     1       4.929   6.425  16.515  0.00  0.00    +0.000 A 
ATOM     18  C   UNL     1       3.910   6.037  17.396  0.00  0.00    +0.000 A 
ATOM     19  C   UNL     1       3.661   4.664  17.564  0.00  0.00    +0.000 A 
ATOM     20  F   UNL     1       2.704   4.250  18.409  0.00  0.00    +0.000 F 
ATOM     21  C   UNL     1       4.384   3.702  16.868  0.00  0.00    +0.000 A 
ENDBRANCH  12  18
ENDBRANCH   1  13
BRANCH   3  22
ATOM     22  N   UNL     1       0.057  12.315  18.274  0.00  0.00    +0.000 N 
ATOM     23  H   UNL     1       0.429  13.097  18.802  0.00  0.00    +0.000 HD
BRANCH  22  24
ATOM     24  C   UNL     1      -1.404  12.405  18.129  0.00  0.00    +0.000 C 
BRANCH  24  25
ATOM     25  C   UNL     1      -2.043  11.170  17.496  0.00  0.00    +0.000 C 
BRANCH  25  26
ATOM     26  C   UNL     1      -3.568  11.363  17.322  0.00  0.00    +0.000 C 
BRANCH  26  27
ATOM     27  C   UNL     1      -4.285  11.666  18.654  0.00  0.00    +0.000 C 
BRANCH  27  28
ATOM     28  N   UNL     1      -5.659  12.164  18.512  0.00  0.00    +0.000 NA
ATOM     29  C   UNL     1      -6.175  12.890  19.692  0.00  0.00    +0.000 C 
ATOM     30  C   UNL     1      -6.580  11.995  20.877  0.00  0.00    +0.000 C 
ATOM     31  O   UNL     1      -7.500  10.970  20.481  0.00  0.00    +0.000 OA
ATOM     32  C   UNL     1      -6.942  10.176  19.429  0.00  0.00    +0.000 C 
ATOM     33  C   UNL     1      -6.592  11.048  18.210  0.00  0.00    +0.000 C 
ENDBRANCH  27  28
ENDBRANCH  26  27
ENDBRANCH  25  26
ENDBRANCH  24  25
ENDBRANCH  22  24
ENDBRANCH   3  22
TORSDOF 8
ENDMDL
MODEL 2
REMARK VINA RESULT:      -8.6      0.943      1.256
REMARK  Name = 
REMARK  8 active torsions:
REMARK  status: ('A' for Active; 'I' for Inactive)
REMARK    1  A    between atoms: C_5  and  C_6
REMARK    2  A    between atoms: C_7  and  C_8
REMARK    3  A    between atoms: C_10  and  N_11
REMARK    4  A    between atoms: N_11  and  C_12
REMARK    5  A    between atoms: C_12  and  C_13
REMARK    6  A    between atoms: C_13  and  C_14
REMARK    7  A    between atoms: C_14  and  C_15
REMARK    8  A    between atoms: C_15  and  N_16
REMARK                            x       y       z     vdW  Elec       q    Type
REMARK                         _______ _______ _______ _____ _____    ______ ____
ROOT
ATOM      1  C   UNL     1       1.592   9.014  18.665  0.00  0.00    +0.000 A 
ATOM      2  C   UNL     1       0.892  10.035  18.047  0.00  0.00    +0.000 A 
ATOM      3  C   UNL     1      -0.034  10.800  18.773  0.00  0.00    +0.000 A 
ATOM      4  C   UNL     1      -0.135  10.560  20.178  0.00  0.00    +0.000 A 
ATOM      5  C   UNL     1      -0.973  11.269  21.079  0.00  0.00    +0.000 A 
ATOM      6  C   UNL     1      -1.025  10.929  22.433  0.00  0.00    +0.000 A 
ATOM      7 CL   UNL     1      -2.064  11.788  23.501  0.00  0.00    +0.000 Cl
ATOM      8  C   UNL     1      -0.249   9.891  22.928  0.00  0.00    +0.000 A 
ATOM      9  C   UNL     1       0.582   9.194  22.056  0.00  0.00    +0.000 A 
ATOM     10  C   UNL     1       0.649   9.504  20.707  0.00  0.00    +0.000 A 
ATOM     11  N   UNL     1       1.471   8.750  19.975  0.00  0.00    +0.000 NA
ENDROOT
BRANCH   1  13
ATOM     12  C   UNL     1       2.833   6.916  18.264  0.00  0.00    +0.000 C 
ATOM     13  C   UNL     1       2.480   8.153  17.873  0.00  0.00    +0.000 C 
BRANCH  12  18
ATOM     14  F   UNL     1       6.077   3.259  15.524  0.00  0.00    +0.000 F 
ATOM     15  C   UNL     1       5.299   4.141  16.164  0.00  0.00    +0.000 A 
ATOM     16  C   UNL     1       5.551   5.502  16.026  0.00  0.00    +0.000 A 
ATOM     17  C   UNL     1       4.748   6.428  16.697  0.00  0.00    +0.000 A 
ATOM     18  C   UNL     1       3.686   5.993  17.501  0.00  0.00    +0.000 A 
ATOM     19  C   UNL     1       3.467   4.610  17.626  0.00  0.00    +0.000 A 
ATOM     20  F   UNL     1       2.470   4.151  18.398  0.00  0.00    +0.000 F 
ATOM     21  C   UNL     1       4.262   3.683  16.961  0.00  0.00    +0.000 A 
ENDBRANCH  12  18
ENDBRANCH   1  13
BRANCH   3  22
ATOM     22  N   UNL     1      -0.760  11.844  18.113  0.00  0.00    +0.000 N 
ATOM     23  H   UNL     1      -0.611  12.741  18.563  0.00  0.00    +0.000 HD
BRANCH  22  24
ATOM     24  C   UNL     1      -2.193  11.548  17.962  0.00  0.00    +0.000 C 
BRANCH  24  25
ATOM     25  C   UNL     1      -2.538  10.786  16.683  0.00  0.00    +0.000 C 
BRANCH  25  26
ATOM     26  C   UNL     1      -4.067  10.758  16.449  0.00  0.00    +0.000 C 
BRANCH  26  27
ATOM     27  C   UNL     1      -4.797  11.919  17.155  0.00  0.00    +0.000 C 
BRANCH  27  28
ATOM     28  N   UNL     1      -5.787  11.505  18.157  0.00  0.00    +0.000 NA
ATOM     29  C   UNL     1      -7.164  11.972  17.893  0.00  0.00    +0.000 C 
ATOM     30  C   UNL     1      -7.414  13.459  18.205  0.00  0.00    +0.000 C 
ATOM     31  O   UNL     1      -7.021  13.796  19.541  0.00  0.00    +0.000 OA
ATOM     32  C   UNL     1      -5.644  13.470  19.755  0.00  0.00    +0.000 C 
ATOM     33  C   UNL     1      -5.390  11.972  19.510  0.00  0.00    +0.000 C 
ENDBRANCH  27  28
ENDBRANCH  26  27
ENDBRANCH  25  26
ENDBRANCH  24  25
ENDBRANCH  22  24
ENDBRANCH   3  22
TORSDOF 8
ENDMDL
MODEL 3
REMARK VINA RESULT:      -8.5      7.618     10.197
REMARK  Name = 
REMARK  8 active torsions:
REMARK  status: ('A' for Active; 'I' for Inactive)
REMARK    1  A    between atoms: C_5  and  C_6
REMARK    2  A    between atoms: C_7  and  C_8
REMARK    3  A    between atoms: C_10  and  N_11
REMARK    4  A    between atoms: N_11  and  C_12
REMARK    5  A    between atoms: C_12  and  C_13
REMARK    6  A    between atoms: C_13  and  C_14
REMARK    7  A    between atoms: C_14  and  C_15
REMARK    8  A    between atoms: C_15  and  N_16
REMARK                            x       y       z     vdW  Elec       q    Type
REMARK                         _______ _______ _______ _____ _____    ______ ____
ROOT
ATOM      1  C   UNL     1       7.163   6.940  17.147  0.00  0.00    +0.000 A 
ATOM      2  C   UNL     1       5.931   6.480  17.575  0.00  0.00    +0.000 A 
ATOM      3  C   UNL     1       5.177   5.614  16.768  0.00  0.00    +0.000 A 
ATOM      4  C   UNL     1       5.778   5.143  15.560  0.00  0.00    +0.000 A 
ATOM      5  C   UNL     1       5.192   4.225  14.649  0.00  0.00    +0.000 A 
ATOM      6  C   UNL     1       5.852   3.858  13.472  0.00  0.00    +0.000 A 
ATOM      7 CL   UNL     1       5.113   2.760  12.374  0.00  0.00    +0.000 Cl
ATOM      8  C   UNL     1       7.101   4.381  13.174  0.00  0.00    +0.000 A 
ATOM      9  C   UNL     1       7.688   5.276  14.063  0.00  0.00    +0.000 A 
ATOM     10  C   UNL     1       7.055   5.664  15.233  0.00  0.00    +0.000 A 
ATOM     11  N   UNL     1       7.717   6.540  15.992  0.00  0.00    +0.000 NA
ENDROOT
BRANCH   1  13
ATOM     12  C   UNL     1       7.954   9.230  17.625  0.00  0.00    +0.000 C 
ATOM     13  C   UNL     1       7.894   7.927  17.950  0.00  0.00    +0.000 C 
BRANCH  12  18
ATOM     14  F   UNL     1      10.600  13.308  20.415  0.00  0.00    +0.000 F 
ATOM     15  C   UNL     1       9.962  12.328  19.763  0.00  0.00    +0.000 A 
ATOM     16  C   UNL     1      10.107  11.012  20.193  0.00  0.00    +0.000 A 
ATOM     17  C   UNL     1       9.449   9.984  19.512  0.00  0.00    +0.000 A 
ATOM     18  C   UNL     1       8.638  10.272  18.406  0.00  0.00    +0.000 A 
ATOM     19  C   UNL     1       8.524  11.611  17.993  0.00  0.00    +0.000 A 
ATOM     20  F   UNL     1       7.769  11.928  16.930  0.00  0.00    +0.000 F 
ATOM     21  C   UNL     1       9.175  12.639  18.665  0.00  0.00    +0.000 A 
ENDBRANCH  12  18
ENDBRANCH   1  13
BRANCH   3  22
ATOM     22  N   UNL     1       3.897   5.158  17.222  0.00  0.00    +0.000 N 
ATOM     23  H   UNL     1       3.318   4.845  16.449  0.00  0.00    +0.000 HD
BRANCH  22  24
ATOM     24  C   UNL     1       3.195   6.143  18.059  0.00  0.00    +0.000 C 
BRANCH  24  25
ATOM     25  C   UNL     1       3.439   5.972  19.558  0.00  0.00    +0.000 C 
BRANCH  25  26
ATOM     26  C   UNL     1       2.173   5.434  20.267  0.00  0.00    +0.000 C 
BRANCH  26  27
ATOM     27  C   UNL     1       1.406   4.403  19.414  0.00  0.00    +0.000 C 
BRANCH  27  28
ATOM     28  N   UNL     1       1.476   3.023  19.911  0.00  0.00    +0.000 NA
ATOM     29  C   UNL     1       2.731   2.684  20.614  0.00  0.00    +0.000 C 
ATOM     30  C   UNL     1       3.946   2.456  19.697  0.00  0.00    +0.000 C 
ATOM     31  O   UNL     1       3.669   1.488  18.677  0.00  0.00    +0.000 OA
ATOM     32  C   UNL     1       2.533   1.886  17.904  0.00  0.00    +0.000 C 
ATOM     33  C   UNL     1       1.292   2.055  18.799  0.00  0.00    +0.000 C 
ENDBRANCH  27  28
ENDBRANCH  26  27
ENDBRANCH  25  26
ENDBRANCH  24  25
ENDBRANCH  22  24
ENDBRANCH   3  22
TORSDOF 8
ENDMDL
MODEL 4
REMARK VINA RESULT:      -8.5      0.960      1.010
REMARK  Name = 
REMARK  8 active torsions:
REMARK  status: ('A' for Active; 'I' for Inactive)
REMARK    1  A    between atoms: C_5  and  C_6
REMARK    2  A    between atoms: C_7  and  C_8
REMARK    3  A    between atoms: C_10  and  N_11
REMARK    4  A    between atoms: N_11  and  C_12
REMARK    5  A    between atoms: C_12  and  C_13
REMARK    6  A    between atoms: C_13  and  C_14
REMARK    7  A    between atoms: C_14  and  C_15
REMARK    8  A    between atoms: C_15  and  N_16
REMARK                            x       y       z     vdW  Elec       q    Type
REMARK                         _______ _______ _______ _____ _____    ______ ____
ROOT
ATOM      1  C   UNL     1       1.666   8.452  19.360  0.00  0.00    +0.000 A 
ATOM      2  C   UNL     1       1.015   9.229  18.419  0.00  0.00    +0.000 A 
ATOM      3  C   UNL     1       0.011  10.126  18.812  0.00  0.00    +0.000 A 
ATOM      4  C   UNL     1      -0.225  10.285  20.212  0.00  0.00    +0.000 A 
ATOM      5  C   UNL     1      -1.159  11.181  20.797  0.00  0.00    +0.000 A 
ATOM      6  C   UNL     1      -1.339  11.231  22.182  0.00  0.00    +0.000 A 
ATOM      7 CL   UNL     1      -2.491  12.310  22.866  0.00  0.00    +0.000 Cl
ATOM      8  C   UNL     1      -0.600  10.407  23.017  0.00  0.00    +0.000 A 
ATOM      9  C   UNL     1       0.323   9.529  22.457  0.00  0.00    +0.000 A 
ATOM     10  C   UNL     1       0.518   9.452  21.087  0.00  0.00    +0.000 A 
ATOM     11  N   UNL     1       1.420   8.560  20.675  0.00  0.00    +0.000 NA
ENDROOT
BRANCH   1  13
ATOM     12  C   UNL     1       3.326   7.539  17.775  0.00  0.00    +0.000 C 
ATOM     13  C   UNL     1       2.640   7.442  18.927  0.00  0.00    +0.000 C 
BRANCH  12  18
ATOM     14  F   UNL     1       7.099   3.742  16.112  0.00  0.00    +0.000 F 
ATOM     15  C   UNL     1       6.202   4.659  16.496  0.00  0.00    +0.000 A 
ATOM     16  C   UNL     1       6.603   5.982  16.660  0.00  0.00    +0.000 A 
ATOM     17  C   UNL     1       5.673   6.942  17.068  0.00  0.00    +0.000 A 
ATOM     18  C   UNL     1       4.339   6.582  17.305  0.00  0.00    +0.000 A 
ATOM     19  C   UNL     1       3.973   5.235  17.140  0.00  0.00    +0.000 A 
ATOM     20  F   UNL     1       2.710   4.846  17.370  0.00  0.00    +0.000 F 
ATOM     21  C   UNL     1       4.892   4.275  16.734  0.00  0.00    +0.000 A 
ENDBRANCH  12  18
ENDBRANCH   1  13
BRANCH   3  22
ATOM     22  N   UNL     1      -0.662  10.914  17.822  0.00  0.00    +0.000 N 
ATOM     23  H   UNL     1      -0.967  11.804  18.200  0.00  0.00    +0.000 HD
BRANCH  22  24
ATOM     24  C   UNL     1      -1.767  10.198  17.165  0.00  0.00    +0.000 C 
BRANCH  24  25
ATOM     25  C   UNL     1      -2.682  11.098  16.335  0.00  0.00    +0.000 C 
BRANCH  25  26
ATOM     26  C   UNL     1      -4.157  10.951  16.783  0.00  0.00    +0.000 C 
BRANCH  26  27
ATOM     27  C   UNL     1      -4.397  11.470  18.215  0.00  0.00    +0.000 C 
BRANCH  27  28
ATOM     28  N   UNL     1      -5.689  12.137  18.418  0.00  0.00    +0.000 NA
ATOM     29  C   UNL     1      -5.769  12.967  19.638  0.00  0.00    +0.000 C 
ATOM     30  C   UNL     1      -5.927  12.178  20.950  0.00  0.00    +0.000 C 
ATOM     31  O   UNL     1      -7.032  11.267  20.894  0.00  0.00    +0.000 OA
ATOM     32  C   UNL     1      -6.885  10.368  19.790  0.00  0.00    +0.000 C 
ATOM     33  C   UNL     1      -6.792  11.141  18.462  0.00  0.00    +0.000 C 
ENDBRANCH  27  28
ENDBRANCH  26  27
ENDBRANCH  25  26
ENDBRANCH  24  25
ENDBRANCH  22  24
ENDBRANCH   3  22
TORSDOF 8
ENDMDL
MODEL 5
REMARK VINA RESULT:      -8.4      6.126     10.786
REMARK  Name = 
REMARK  8 active torsions:
REMARK  status: ('A' for Active; 'I' for Inactive)
REMARK    1  A    between atoms: C_5  and  C_6
REMARK    2  A    between atoms: C_7  and  C_8
REMARK    3  A    between atoms: C_10  and  N_11
REMARK    4  A    between atoms: N_11  and  C_12
REMARK    5  A    between atoms: C_12  and  C_13
REMARK    6  A    between atoms: C_13  and  C_14
REMARK    7  A    between atoms: C_14  and  C_15
REMARK    8  A    between atoms: C_15  and  N_16
REMARK                            x       y       z     vdW  Elec       q    Type
REMARK                         _______ _______ _______ _____ _____    ______ ____
ROOT
ATOM      1  C   UNL     1       2.739   7.497  17.765  0.00  0.00    +0.000 A 
ATOM      2  C   UNL     1       4.110   7.349  17.651  0.00  0.00    +0.000 A 
ATOM      3  C   UNL     1       4.704   6.089  17.823  0.00  0.00    +0.000 A 
ATOM      4  C   UNL     1       3.838   4.968  18.002  0.00  0.00    +0.000 A 
ATOM      5  C   UNL     1       4.253   3.616  18.138  0.00  0.00    +0.000 A 
ATOM      6  C   UNL     1       3.323   2.595  18.348  0.00  0.00    +0.000 A 
ATOM      7 CL   UNL     1       3.851   0.968  18.531  0.00  0.00    +0.000 Cl
ATOM      8  C   UNL     1       1.968   2.881  18.421  0.00  0.00    +0.000 A 
ATOM      9  C   UNL     1       1.548   4.201  18.282  0.00  0.00    +0.000 A 
ATOM     10  C   UNL     1       2.448   5.235  18.080  0.00  0.00    +0.000 A 
ATOM     11  N   UNL     1       1.919   6.457  17.979  0.00  0.00    +0.000 NA
ENDROOT
BRANCH   1  13
ATOM     12  C   UNL     1       1.376   9.349  18.668  0.00  0.00    +0.000 C 
ATOM     13  C   UNL     1       2.139   8.835  17.687  0.00  0.00    +0.000 C 
BRANCH  12  18
ATOM     14  F   UNL     1      -0.723  14.545  18.762  0.00  0.00    +0.000 F 
ATOM     15  C   UNL     1      -0.233  13.299  18.728  0.00  0.00    +0.000 A 
ATOM     16  C   UNL     1      -1.091  12.221  18.928  0.00  0.00    +0.000 A 
ATOM     17  C   UNL     1      -0.585  10.919  18.901  0.00  0.00    +0.000 A 
ATOM     18  C   UNL     1       0.778  10.693  18.666  0.00  0.00    +0.000 A 
ATOM     19  C   UNL     1       1.617  11.806  18.480  0.00  0.00    +0.000 A 
ATOM     20  F   UNL     1       2.930  11.633  18.267  0.00  0.00    +0.000 F 
ATOM     21  C   UNL     1       1.120  13.104  18.505  0.00  0.00    +0.000 A 
ENDBRANCH  12  18
ENDBRANCH   1  13
BRANCH   3  22
ATOM     22  N   UNL     1       6.127   5.957  17.714  0.00  0.00    +0.000 N 
ATOM     23  H   UNL     1       6.540   5.662  18.592  0.00  0.00    +0.000 HD
BRANCH  22  24
ATOM     24  C   UNL     1       6.781   7.165  17.188  0.00  0.00    +0.000 C 
BRANCH  24  25
ATOM     25  C   UNL     1       7.946   7.662  18.044  0.00  0.00    +0.000 C 
BRANCH  25  26
ATOM     26  C   UNL     1       8.105   9.197  17.926  0.00  0.00    +0.000 C 
BRANCH  26  27
ATOM     27  C   UNL     1       9.174   9.760  18.884  0.00  0.00    +0.000 C 
BRANCH  27  28
ATOM     28  N   UNL     1       9.065  11.199  19.150  0.00  0.00    +0.000 NA
ATOM     29  C   UNL     1       9.327  12.063  17.979  0.00  0.00    +0.000 C 
ATOM     30  C   UNL     1      10.812  12.207  17.600  0.00  0.00    +0.000 C 
ATOM     31  O   UNL     1      11.609  12.624  18.716  0.00  0.00    +0.000 OA
ATOM     32  C   UNL     1      11.462  11.709  19.806  0.00  0.00    +0.000 C 
ATOM     33  C   UNL     1       9.990  11.604  20.240  0.00  0.00    +0.000 C 
ENDBRANCH  27  28
ENDBRANCH  26  27
ENDBRANCH  25  26
ENDBRANCH  24  25
ENDBRANCH  22  24
ENDBRANCH   3  22
TORSDOF 8
ENDMDL
MODEL 6
REMARK VINA RESULT:      -8.3      6.058     10.693
REMARK  Name = 
REMARK  8 active torsions:
REMARK  status: ('A' for Active; 'I' for Inactive)
REMARK    1  A    between atoms: C_5  and  C_6
REMARK    2  A    between atoms: C_7  and  C_8
REMARK    3  A    between atoms: C_10  and  N_11
REMARK    4  A    between atoms: N_11  and  C_12
REMARK    5  A    between atoms: C_12  and  C_13
REMARK    6  A    between atoms: C_13  and  C_14
REMARK    7  A    between atoms: C_14  and  C_15
REMARK    8  A    between atoms: C_15  and  N_16
REMARK                            x       y       z     vdW  Elec       q    Type
REMARK                         _______ _______ _______ _____ _____    ______ ____
ROOT
ATOM      1  C   UNL     1       2.848   7.559  17.688  0.00  0.00    +0.000 A 
ATOM      2  C   UNL     1       4.187   7.360  17.406  0.00  0.00    +0.000 A 
ATOM      3  C   UNL     1       4.754   6.081  17.521  0.00  0.00    +0.000 A 
ATOM      4  C   UNL     1       3.879   4.993  17.823  0.00  0.00    +0.000 A 
ATOM      5  C   UNL     1       4.261   3.629  17.925  0.00  0.00    +0.000 A 
ATOM      6  C   UNL     1       3.329   2.644  18.264  0.00  0.00    +0.000 A 
ATOM      7 CL   UNL     1       3.820   1.001  18.403  0.00  0.00    +0.000 Cl
ATOM      8  C   UNL     1       2.005   2.980  18.501  0.00  0.00    +0.000 A 
ATOM      9  C   UNL     1       1.617   4.313  18.397  0.00  0.00    +0.000 A 
ATOM     10  C   UNL     1       2.519   5.312  18.070  0.00  0.00    +0.000 A 
ATOM     11  N   UNL     1       2.026   6.551  18.018  0.00  0.00    +0.000 NA
ENDROOT
BRANCH   1  13
ATOM     12  C   UNL     1       1.464   9.380  18.622  0.00  0.00    +0.000 C 
ATOM     13  C   UNL     1       2.290   8.917  17.667  0.00  0.00    +0.000 C 
BRANCH  12  18
ATOM     14  F   UNL     1      -0.824  14.496  18.685  0.00  0.00    +0.000 F 
ATOM     15  C   UNL     1      -0.269  13.277  18.684  0.00  0.00    +0.000 A 
ATOM     16  C   UNL     1       1.113  13.155  18.792  0.00  0.00    +0.000 A 
ATOM     17  C   UNL     1       1.699  11.886  18.785  0.00  0.00    +0.000 A 
ATOM     18  C   UNL     1       0.903  10.738  18.678  0.00  0.00    +0.000 A 
ATOM     19  C   UNL     1      -0.488  10.900  18.559  0.00  0.00    +0.000 A 
ATOM     20  F   UNL     1      -1.285   9.827  18.440  0.00  0.00    +0.000 F 
ATOM     21  C   UNL     1      -1.078  12.158  18.566  0.00  0.00    +0.000 A 
ENDBRANCH  12  18
ENDBRANCH   1  13
BRANCH   3  22
ATOM     22  N   UNL     1       6.146   5.897  17.237  0.00  0.00    +0.000 N 
ATOM     23  H   UNL     1       6.399   4.914  17.241  0.00  0.00    +0.000 HD
BRANCH  22  24
ATOM     24  C   UNL     1       7.026   6.684  18.114  0.00  0.00    +0.000 C 
BRANCH  24  25
ATOM     25  C   UNL     1       7.730   7.843  17.409  0.00  0.00    +0.000 C 
BRANCH  25  26
ATOM     26  C   UNL     1       8.447   8.759  18.429  0.00  0.00    +0.000 C 
BRANCH  26  27
ATOM     27  C   UNL     1       8.838  10.125  17.829  0.00  0.00    +0.000 C 
BRANCH  27  28
ATOM     28  N   UNL     1       8.916  11.223  18.801  0.00  0.00    +0.000 NA
ATOM     29  C   UNL     1       8.937  12.574  18.203  0.00  0.00    +0.000 C 
ATOM     30  C   UNL     1      10.280  12.984  17.574  0.00  0.00    +0.000 C 
ATOM     31  O   UNL     1      11.368  12.830  18.494  0.00  0.00    +0.000 OA
ATOM     32  C   UNL     1      11.435  11.482  18.970  0.00  0.00    +0.000 C 
ATOM     33  C   UNL     1      10.120  11.079  19.660  0.00  0.00    +0.000 C 
ENDBRANCH  27  28
ENDBRANCH  26  27
ENDBRANCH  25  26
ENDBRANCH  24  25
ENDBRANCH  22  24
ENDBRANCH   3  22
TORSDOF 8
ENDMDL
MODEL 7
REMARK VINA RESULT:      -8.3      1.361      1.714
REMARK  Name = 
REMARK  8 active torsions:
REMARK  status: ('A' for Active; 'I' for Inactive)
REMARK    1  A    between atoms: C_5  and  C_6
REMARK    2  A    between atoms: C_7  and  C_8
REMARK    3  A    between atoms: C_10  and  N_11
REMARK    4  A    between atoms: N_11  and  C_12
REMARK    5  A    between atoms: C_12  and  C_13
REMARK    6  A    between atoms: C_13  and  C_14
REMARK    7  A    between atoms: C_14  and  C_15
REMARK    8  A    between atoms: C_15  and  N_16
REMARK                            x       y       z     vdW  Elec       q    Type
REMARK                         _______ _______ _______ _____ _____    ______ ____
ROOT
ATOM      1  C   UNL     1       1.688   8.394  18.720  0.00  0.00    +0.000 A 
ATOM      2  C   UNL     1       1.058   9.406  18.020  0.00  0.00    +0.000 A 
ATOM      3  C   UNL     1       0.208  10.305  18.683  0.00  0.00    +0.000 A 
ATOM      4  C   UNL     1       0.116  10.203  20.105  0.00  0.00    +0.000 A 
ATOM      5  C   UNL     1      -0.646  11.055  20.947  0.00  0.00    +0.000 A 
ATOM      6  C   UNL     1      -0.698  10.845  22.328  0.00  0.00    +0.000 A 
ATOM      7 CL   UNL     1      -1.646  11.877  23.325  0.00  0.00    +0.000 Cl
ATOM      8  C   UNL     1       0.004   9.799  22.907  0.00  0.00    +0.000 A 
ATOM      9  C   UNL     1       0.761   8.961  22.093  0.00  0.00    +0.000 A 
ATOM     10  C   UNL     1       0.826   9.141  20.720  0.00  0.00    +0.000 A 
ATOM     11  N   UNL     1       1.573   8.261  20.051  0.00  0.00    +0.000 NA
ENDROOT
BRANCH   1  13
ATOM     12  C   UNL     1       3.835   7.418  17.983  0.00  0.00    +0.000 C 
ATOM     13  C   UNL     1       2.490   7.397  18.001  0.00  0.00    +0.000 C 
BRANCH  12  18
ATOM     14  F   UNL     1       7.209   3.814  15.330  0.00  0.00    +0.000 F 
ATOM     15  C   UNL     1       6.398   4.663  15.975  0.00  0.00    +0.000 A 
ATOM     16  C   UNL     1       5.070   4.310  16.190  0.00  0.00    +0.000 A 
ATOM     17  C   UNL     1       4.216   5.194  16.856  0.00  0.00    +0.000 A 
ATOM     18  C   UNL     1       4.694   6.430  17.314  0.00  0.00    +0.000 A 
ATOM     19  C   UNL     1       6.038   6.758  17.069  0.00  0.00    +0.000 A 
ATOM     20  F   UNL     1       6.531   7.937  17.478  0.00  0.00    +0.000 F 
ATOM     21  C   UNL     1       6.893   5.883  16.408  0.00  0.00    +0.000 A 
ENDBRANCH  12  18
ENDBRANCH   1  13
BRANCH   3  22
ATOM     22  N   UNL     1      -0.447  11.340  17.939  0.00  0.00    +0.000 N 
ATOM     23  H   UNL     1      -0.521  12.195  18.479  0.00  0.00    +0.000 HD
BRANCH  22  24
ATOM     24  C   UNL     1      -1.752  10.927  17.399  0.00  0.00    +0.000 C 
BRANCH  24  25
ATOM     25  C   UNL     1      -2.944  11.394  18.233  0.00  0.00    +0.000 C 
BRANCH  25  26
ATOM     26  C   UNL     1      -4.256  10.737  17.740  0.00  0.00    +0.000 C 
BRANCH  26  27
ATOM     27  C   UNL     1      -5.326  11.774  17.340  0.00  0.00    +0.000 C 
BRANCH  27  28
ATOM     28  N   UNL     1      -6.654  11.539  17.920  0.00  0.00    +0.000 NA
ATOM     29  C   UNL     1      -7.492  12.750  18.050  0.00  0.00    +0.000 C 
ATOM     30  C   UNL     1      -7.106  13.683  19.212  0.00  0.00    +0.000 C 
ATOM     31  O   UNL     1      -7.048  12.981  20.461  0.00  0.00    +0.000 OA
ATOM     32  C   UNL     1      -6.129  11.888  20.378  0.00  0.00    +0.000 C 
ATOM     33  C   UNL     1      -6.538  10.911  19.261  0.00  0.00    +0.000 C 
ENDBRANCH  27  28
ENDBRANCH  26  27
ENDBRANCH  25  26
ENDBRANCH  24  25
ENDBRANCH  22  24
ENDBRANCH   3  22
TORSDOF 8
ENDMDL
MODEL 8
REMARK VINA RESULT:      -8.1      3.605      5.517
REMARK  Name = 
REMARK  8 active torsions:
REMARK  status: ('A' for Active; 'I' for Inactive)
REMARK    1  A    between atoms: C_5  and  C_6
REMARK    2  A    between atoms: C_7  and  C_8
REMARK    3  A    between atoms: C_10  and  N_11
REMARK    4  A    between atoms: N_11  and  C_12
REMARK    5  A    between atoms: C_12  and  C_13
REMARK    6  A    between atoms: C_13  and  C_14
REMARK    7  A    between atoms: C_14  and  C_15
REMARK    8  A    between atoms: C_15  and  N_16
REMARK                            x       y       z     vdW  Elec       q    Type
REMARK                         _______ _______ _______ _____ _____    ______ ____
ROOT
ATOM      1  C   UNL     1       1.614   9.099  18.839  0.00  0.00    +0.000 A 
ATOM      2  C   UNL     1       0.953  10.133  18.200  0.00  0.00    +0.000 A 
ATOM      3  C   UNL     1      -0.000  10.898  18.888  0.00  0.00    +0.000 A 
ATOM      4  C   UNL     1      -0.171  10.645  20.284  0.00  0.00    +0.000 A 
ATOM      5  C   UNL     1      -1.046  11.351  21.151  0.00  0.00    +0.000 A 
ATOM      6  C   UNL     1      -1.167  10.996  22.497  0.00  0.00    +0.000 A 
ATOM      7 CL   UNL     1      -2.249  11.853  23.523  0.00  0.00    +0.000 Cl
ATOM      8  C   UNL     1      -0.425   9.947  23.017  0.00  0.00    +0.000 A 
ATOM      9  C   UNL     1       0.441   9.251  22.179  0.00  0.00    +0.000 A 
ATOM     10  C   UNL     1       0.576   9.575  20.838  0.00  0.00    +0.000 A 
ATOM     11  N   UNL     1       1.427   8.822  20.138  0.00  0.00    +0.000 NA
ENDROOT
BRANCH   1  13
ATOM     12  C   UNL     1       2.647   6.919  18.310  0.00  0.00    +0.000 C 
ATOM     13  C   UNL     1       2.531   8.239  18.082  0.00  0.00    +0.000 C 
BRANCH  12  18
ATOM     14  F   UNL     1       5.963   3.276  15.636  0.00  0.00    +0.000 F 
ATOM     15  C   UNL     1       5.167   4.154  16.260  0.00  0.00    +0.000 A 
ATOM     16  C   UNL     1       5.387   5.518  16.089  0.00  0.00    +0.000 A 
ATOM     17  C   UNL     1       4.565   6.440  16.743  0.00  0.00    +0.000 A 
ATOM     18  C   UNL     1       3.518   5.998  17.563  0.00  0.00    +0.000 A 
ATOM     19  C   UNL     1       3.333   4.614  17.722  0.00  0.00    +0.000 A 
ATOM     20  F   UNL     1       2.351   4.150  18.510  0.00  0.00    +0.000 F 
ATOM     21  C   UNL     1       4.146   3.691  17.074  0.00  0.00    +0.000 A 
ENDBRANCH  12  18
ENDBRANCH   1  13
BRANCH   3  22
ATOM     22  N   UNL     1      -0.684  11.957  18.206  0.00  0.00    +0.000 N 
ATOM     23  H   UNL     1      -0.972  11.674  17.275  0.00  0.00    +0.000 HD
BRANCH  22  24
ATOM     24  C   UNL     1       0.079  13.214  18.176  0.00  0.00    +0.000 C 
BRANCH  24  25
ATOM     25  C   UNL     1      -0.415  14.264  19.171  0.00  0.00    +0.000 C 
BRANCH  25  26
ATOM     26  C   UNL     1       0.701  15.284  19.501  0.00  0.00    +0.000 C 
BRANCH  26  27
ATOM     27  C   UNL     1       2.074  14.867  18.933  0.00  0.00    +0.000 C 
BRANCH  27  28
ATOM     28  N   UNL     1       2.949  15.985  18.560  0.00  0.00    +0.000 NA
ATOM     29  C   UNL     1       3.878  15.695  17.448  0.00  0.00    +0.000 C 
ATOM     30  C   UNL     1       5.089  14.822  17.825  0.00  0.00    +0.000 C 
ATOM     31  O   UNL     1       5.804  15.359  18.945  0.00  0.00    +0.000 OA
ATOM     32  C   UNL     1       4.933  15.511  20.070  0.00  0.00    +0.000 C 
ATOM     33  C   UNL     1       3.751  16.435  19.728  0.00  0.00    +0.000 C 
ENDBRANCH  27  28
ENDBRANCH  26  27
ENDBRANCH  25  26
ENDBRANCH  24  25
ENDBRANCH  22  24
ENDBRANCH   3  22
TORSDOF 8
ENDMDL
MODEL 9
REMARK VINA RESULT:      -8.0      4.082      6.010
REMARK  Name = 
REMARK  8 active torsions:
REMARK  status: ('A' for Active; 'I' for Inactive)
REMARK    1  A    between atoms: C_5  and  C_6
REMARK    2  A    between atoms: C_7  and  C_8
REMARK    3  A    between atoms: C_10  and  N_11
REMARK    4  A    between atoms: N_11  and  C_12
REMARK    5  A    between atoms: C_12  and  C_13
REMARK    6  A    between atoms: C_13  and  C_14
REMARK    7  A    between atoms: C_14  and  C_15
REMARK    8  A    between atoms: C_15  and  N_16
REMARK                            x       y       z     vdW  Elec       q    Type
REMARK                         _______ _______ _______ _____ _____    ______ ____
ROOT
ATOM      1  C   UNL     1       1.849   9.058  18.549  0.00  0.00    +0.000 A 
ATOM      2  C   UNL     1       1.478  10.306  18.082  0.00  0.00    +0.000 A 
ATOM      3  C   UNL     1       0.626  11.123  18.841  0.00  0.00    +0.000 A 
ATOM      4  C   UNL     1       0.259  10.669  20.144  0.00  0.00    +0.000 A 
ATOM      5  C   UNL     1      -0.547  11.381  21.071  0.00  0.00    +0.000 A 
ATOM      6  C   UNL     1      -0.879  10.827  22.311  0.00  0.00    +0.000 A 
ATOM      7 CL   UNL     1      -1.875  11.700  23.408  0.00  0.00    +0.000 Cl
ATOM      8  C   UNL     1      -0.420   9.567  22.664  0.00  0.00    +0.000 A 
ATOM      9  C   UNL     1       0.376   8.862  21.766  0.00  0.00    +0.000 A 
ATOM     10  C   UNL     1       0.716   9.383  20.528  0.00  0.00    +0.000 A 
ATOM     11  N   UNL     1       1.472   8.601  19.754  0.00  0.00    +0.000 NA
ENDROOT
BRANCH   1  13
ATOM     12  C   UNL     1       3.166   7.008  18.146  0.00  0.00    +0.000 C 
ATOM     13  C   UNL     1       2.654   8.169  17.703  0.00  0.00    +0.000 C 
BRANCH  12  18
ATOM     14  F   UNL     1       6.152   3.256  15.244  0.00  0.00    +0.000 F 
ATOM     15  C   UNL     1       5.435   4.160  15.923  0.00  0.00    +0.000 A 
ATOM     16  C   UNL     1       5.671   5.516  15.717  0.00  0.00    +0.000 A 
ATOM     17  C   UNL     1       4.931   6.465  16.428  0.00  0.00    +0.000 A 
ATOM     18  C   UNL     1       3.947   6.058  17.340  0.00  0.00    +0.000 A 
ATOM     19  C   UNL     1       3.744   4.680  17.531  0.00  0.00    +0.000 A 
ATOM     20  F   UNL     1       2.822   4.249  18.405  0.00  0.00    +0.000 F 
ATOM     21  C   UNL     1       4.476   3.731  16.827  0.00  0.00    +0.000 A 
ENDBRANCH  12  18
ENDBRANCH   1  13
BRANCH   3  22
ATOM     22  N   UNL     1       0.243  12.408  18.334  0.00  0.00    +0.000 N 
ATOM     23  H   UNL     1      -0.034  12.355  17.359  0.00  0.00    +0.000 HD
BRANCH  22  24
ATOM     24  C   UNL     1       1.265  13.444  18.550  0.00  0.00    +0.000 C 
BRANCH  24  25
ATOM     25  C   UNL     1       0.951  14.395  19.704  0.00  0.00    +0.000 C 
BRANCH  25  26
ATOM     26  C   UNL     1       2.215  14.672  20.553  0.00  0.00    +0.000 C 
BRANCH  26  27
ATOM     27  C   UNL     1       3.501  14.723  19.704  0.00  0.00    +0.000 C 
BRANCH  27  28
ATOM     28  N   UNL     1       4.696  15.178  20.426  0.00  0.00    +0.000 NA
ATOM     29  C   UNL     1       4.485  16.366  21.279  0.00  0.00    +0.000 C 
ATOM     30  C   UNL     1       4.390  17.701  20.519  0.00  0.00    +0.000 C 
ATOM     31  O   UNL     1       5.514  17.902  19.653  0.00  0.00    +0.000 OA
ATOM     32  C   UNL     1       5.637  16.815  18.731  0.00  0.00    +0.000 C 
ATOM     33  C   UNL     1       5.800  15.479  19.477  0.00  0.00    +0.000 C 
ENDBRANCH  27  28
ENDBRANCH  26  27
ENDBRANCH  25  26
ENDBRANCH  24  25
ENDBRANCH  22  24
ENDBRANCH   3  22
TORSDOF 8
ENDMDL
