MODEL 1
REMARK VINA RESULT:      -6.7      0.000      0.000
REMARK  Name = 
REMARK  2 active torsions:
REMARK  status: ('A' for Active; 'I' for Inactive)
REMARK    1  A    between atoms: C_1  and  C_2
REMARK    2  A    between atoms: C_5  and  N_6
REMARK                            x       y       z     vdW  Elec       q    Type
REMARK                         _______ _______ _______ _____ _____    ______ ____
ROOT
ATOM      1  C   UNL     1       7.529   7.234  17.402  0.00  0.00    +0.000 C 
ATOM      2  C   UNL     1       6.361   6.419  17.863  0.00  0.00    +0.000 A 
ATOM      3  C   UNL     1       5.096   6.580  17.302  0.00  0.00    +0.000 A 
ATOM      4  C   UNL     1       4.014   5.810  17.753  0.00  0.00    +0.000 A 
ATOM      5  C   UNL     1       4.146   4.860  18.775  0.00  0.00    +0.000 A 
ATOM      6  C   UNL     1       5.429   4.713  19.316  0.00  0.00    +0.000 A 
ATOM      7  C   UNL     1       6.521   5.473  18.874  0.00  0.00    +0.000 A 
ENDROOT
BRANCH   5   8
ATOM      8  N   UNL     1       3.096   4.123  19.210  0.00  0.00    +0.000 N 
ATOM      9  C   UNL     1       1.663   4.357  19.089  0.00  0.00    +0.000 C 
ATOM     10  C   UNL     1       1.223   3.033  18.431  0.00  0.00    +0.000 C 
ATOM     11  C   UNL     1       2.199   2.007  19.045  0.00  0.00    +0.000 C 
ATOM     12  C   UNL     1       3.072   2.879  19.969  0.00  0.00    +0.000 C 
ATOM     13  C   UNL     1       2.228   3.310  21.185  0.00  0.00    +0.000 C 
ATOM     14  C   UNL     1       1.246   4.331  20.574  0.00  0.00    +0.000 C 
ENDBRANCH   5   8
TORSDOF 1
ENDMDL
MODEL 2
REMARK VINA RESULT:      -6.7      0.073      1.276
REMARK  Name = 
REMARK  2 active torsions:
REMARK  status: ('A' for Active; 'I' for Inactive)
REMARK    1  A    between atoms: C_1  and  C_2
REMARK    2  A    between atoms: C_5  and  N_6
REMARK                            x       y       z     vdW  Elec       q    Type
REMARK                         _______ _______ _______ _____ _____    ______ ____
ROOT
ATOM      1  C   UNL     1       7.457   7.203  17.361  0.00  0.00    +0.000 C 
ATOM      2  C   UNL     1       6.310   6.382  17.864  0.00  0.00    +0.000 A 
ATOM      3  C   UNL     1       6.465   5.487  18.921  0.00  0.00    +0.000 A 
ATOM      4  C   UNL     1       5.378   4.724  19.371  0.00  0.00    +0.000 A 
ATOM      5  C   UNL     1       4.106   4.816  18.792  0.00  0.00    +0.000 A 
ATOM      6  C   UNL     1       3.976   5.730  17.737  0.00  0.00    +0.000 A 
ATOM      7  C   UNL     1       5.051   6.502  17.277  0.00  0.00    +0.000 A 
ENDROOT
BRANCH   5   8
ATOM      8  N   UNL     1       3.062   4.073  19.229  0.00  0.00    +0.000 N 
ATOM      9  C   UNL     1       1.627   4.298  19.109  0.00  0.00    +0.000 C 
ATOM     10  C   UNL     1       1.195   2.971  18.453  0.00  0.00    +0.000 C 
ATOM     11  C   UNL     1       2.178   1.951  19.065  0.00  0.00    +0.000 C 
ATOM     12  C   UNL     1       3.047   2.830  19.988  0.00  0.00    +0.000 C 
ATOM     13  C   UNL     1       2.202   3.255  21.205  0.00  0.00    +0.000 C 
ATOM     14  C   UNL     1       1.212   4.269  20.595  0.00  0.00    +0.000 C 
ENDBRANCH   5   8
TORSDOF 1
ENDMDL
MODEL 3
REMARK VINA RESULT:      -6.7      0.141      1.786
REMARK  Name = 
REMARK  2 active torsions:
REMARK  status: ('A' for Active; 'I' for Inactive)
REMARK    1  A    between atoms: C_1  and  C_2
REMARK    2  A    between atoms: C_5  and  N_6
REMARK                            x       y       z     vdW  Elec       q    Type
REMARK                         _______ _______ _______ _____ _____    ______ ____
ROOT
ATOM      1  C   UNL     1       7.441   7.166  17.371  0.00  0.00    +0.000 C 
ATOM      2  C   UNL     1       6.276   6.362  17.857  0.00  0.00    +0.000 A 
ATOM      3  C   UNL     1       4.980   6.622  17.416  0.00  0.00    +0.000 A 
ATOM      4  C   UNL     1       3.902   5.860  17.889  0.00  0.00    +0.000 A 
ATOM      5  C   UNL     1       4.067   4.820  18.814  0.00  0.00    +0.000 A 
ATOM      6  C   UNL     1       5.381   4.575  19.234  0.00  0.00    +0.000 A 
ATOM      7  C   UNL     1       6.469   5.326  18.769  0.00  0.00    +0.000 A 
ENDROOT
BRANCH   5   8
ATOM      8  N   UNL     1       3.021   4.091  19.270  0.00  0.00    +0.000 N 
ATOM      9  C   UNL     1       2.996   2.878  20.077  0.00  0.00    +0.000 C 
ATOM     10  C   UNL     1       2.080   3.336  21.231  0.00  0.00    +0.000 C 
ATOM     11  C   UNL     1       1.102   4.300  20.529  0.00  0.00    +0.000 C 
ATOM     12  C   UNL     1       1.590   4.272  19.066  0.00  0.00    +0.000 C 
ATOM     13  C   UNL     1       1.221   2.910  18.448  0.00  0.00    +0.000 C 
ATOM     14  C   UNL     1       2.192   1.941  19.154  0.00  0.00    +0.000 C 
ENDBRANCH   5   8
TORSDOF 1
ENDMDL
MODEL 4
REMARK VINA RESULT:      -6.6      1.552      5.224
REMARK  Name = 
REMARK  2 active torsions:
REMARK  status: ('A' for Active; 'I' for Inactive)
REMARK    1  A    between atoms: C_1  and  C_2
REMARK    2  A    between atoms: C_5  and  N_6
REMARK                            x       y       z     vdW  Elec       q    Type
REMARK                         _______ _______ _______ _____ _____    ______ ____
ROOT
ATOM      1  C   UNL     1       1.453   2.867  21.591  0.00  0.00    +0.000 C 
ATOM      2  C   UNL     1       2.427   3.389  20.580  0.00  0.00    +0.000 A 
ATOM      3  C   UNL     1       3.175   2.527  19.781  0.00  0.00    +0.000 A 
ATOM      4  C   UNL     1       4.086   3.038  18.845  0.00  0.00    +0.000 A 
ATOM      5  C   UNL     1       4.291   4.413  18.671  0.00  0.00    +0.000 A 
ATOM      6  C   UNL     1       3.520   5.256  19.483  0.00  0.00    +0.000 A 
ATOM      7  C   UNL     1       2.604   4.762  20.420  0.00  0.00    +0.000 A 
ENDROOT
BRANCH   5   8
ATOM      8  N   UNL     1       5.176   4.900  17.769  0.00  0.00    +0.000 N 
ATOM      9  C   UNL     1       5.536   6.274  17.446  0.00  0.00    +0.000 C 
ATOM     10  C   UNL     1       7.065   6.208  17.635  0.00  0.00    +0.000 C 
ATOM     11  C   UNL     1       7.402   4.770  17.191  0.00  0.00    +0.000 C 
ATOM     12  C   UNL     1       6.021   4.199  16.811  0.00  0.00    +0.000 C 
ATOM     13  C   UNL     1       5.559   4.858  15.496  0.00  0.00    +0.000 C 
ATOM     14  C   UNL     1       5.228   6.299  15.935  0.00  0.00    +0.000 C 
ENDBRANCH   5   8
TORSDOF 1
ENDMDL
MODEL 5
REMARK VINA RESULT:      -6.6      1.505      5.143
REMARK  Name = 
REMARK  2 active torsions:
REMARK  status: ('A' for Active; 'I' for Inactive)
REMARK    1  A    between atoms: C_1  and  C_2
REMARK    2  A    between atoms: C_5  and  N_6
REMARK                            x       y       z     vdW  Elec       q    Type
REMARK                         _______ _______ _______ _____ _____    ______ ____
ROOT
ATOM      1  C   UNL     1       1.463   2.836  21.643  0.00  0.00    +0.000 C 
ATOM      2  C   UNL     1       2.434   3.404  20.655  0.00  0.00    +0.000 A 
ATOM      3  C   UNL     1       2.474   4.770  20.380  0.00  0.00    +0.000 A 
ATOM      4  C   UNL     1       3.387   5.279  19.446  0.00  0.00    +0.000 A 
ATOM      5  C   UNL     1       4.286   4.459  18.752  0.00  0.00    +0.000 A 
ATOM      6  C   UNL     1       4.229   3.093  19.054  0.00  0.00    +0.000 A 
ATOM      7  C   UNL     1       3.325   2.567  19.986  0.00  0.00    +0.000 A 
ENDROOT
BRANCH   5   8
ATOM      8  N   UNL     1       5.162   4.958  17.847  0.00  0.00    +0.000 N 
ATOM      9  C   UNL     1       5.611   6.326  17.622  0.00  0.00    +0.000 C 
ATOM     10  C   UNL     1       7.138   6.133  17.722  0.00  0.00    +0.000 C 
ATOM     11  C   UNL     1       7.342   4.718  17.141  0.00  0.00    +0.000 C 
ATOM     12  C   UNL     1       5.904   4.285  16.789  0.00  0.00    +0.000 C 
ATOM     13  C   UNL     1       5.432   5.089  15.562  0.00  0.00    +0.000 C 
ATOM     14  C   UNL     1       5.234   6.506  16.137  0.00  0.00    +0.000 C 
ENDBRANCH   5   8
TORSDOF 1
ENDMDL
MODEL 6
REMARK VINA RESULT:      -6.5      1.531      5.122
REMARK  Name = 
REMARK  2 active torsions:
REMARK  status: ('A' for Active; 'I' for Inactive)
REMARK    1  A    between atoms: C_1  and  C_2
REMARK    2  A    between atoms: C_5  and  N_6
REMARK                            x       y       z     vdW  Elec       q    Type
REMARK                         _______ _______ _______ _____ _____    ______ ____
ROOT
ATOM      1  C   UNL     1       1.492   2.810  21.608  0.00  0.00    +0.000 C 
ATOM      2  C   UNL     1       2.443   3.381  20.603  0.00  0.00    +0.000 A 
ATOM      3  C   UNL     1       2.279   4.670  20.099  0.00  0.00    +0.000 A 
ATOM      4  C   UNL     1       3.178   5.183  19.153  0.00  0.00    +0.000 A 
ATOM      5  C   UNL     1       4.264   4.440  18.670  0.00  0.00    +0.000 A 
ATOM      6  C   UNL     1       4.409   3.151  19.199  0.00  0.00    +0.000 A 
ATOM      7  C   UNL     1       3.521   2.625  20.147  0.00  0.00    +0.000 A 
ENDROOT
BRANCH   5   8
ATOM      8  N   UNL     1       5.125   4.940  17.753  0.00  0.00    +0.000 N 
ATOM      9  C   UNL     1       5.882   4.268  16.705  0.00  0.00    +0.000 C 
ATOM     10  C   UNL     1       5.435   5.087  15.476  0.00  0.00    +0.000 C 
ATOM     11  C   UNL     1       5.238   6.500  16.061  0.00  0.00    +0.000 C 
ATOM     12  C   UNL     1       5.593   6.305  17.549  0.00  0.00    +0.000 C 
ATOM     13  C   UNL     1       7.115   6.099  17.671  0.00  0.00    +0.000 C 
ATOM     14  C   UNL     1       7.318   4.689  17.079  0.00  0.00    +0.000 C 
ENDBRANCH   5   8
TORSDOF 1
ENDMDL
MODEL 7
REMARK VINA RESULT:      -6.5      0.886      1.985
REMARK  Name = 
REMARK  2 active torsions:
REMARK  status: ('A' for Active; 'I' for Inactive)
REMARK    1  A    between atoms: C_1  and  C_2
REMARK    2  A    between atoms: C_5  and  N_6
REMARK                            x       y       z     vdW  Elec       q    Type
REMARK                         _______ _______ _______ _____ _____    ______ ____
ROOT
ATOM      1  C   UNL     1       7.755   7.773  17.466  0.00  0.00    +0.000 C 
ATOM      2  C   UNL     1       6.712   6.745  17.780  0.00  0.00    +0.000 A 
ATOM      3  C   UNL     1       5.524   6.672  17.056  0.00  0.00    +0.000 A 
ATOM      4  C   UNL     1       4.558   5.705  17.372  0.00  0.00    +0.000 A 
ATOM      5  C   UNL     1       4.732   4.783  18.413  0.00  0.00    +0.000 A 
ATOM      6  C   UNL     1       5.939   4.875  19.119  0.00  0.00    +0.000 A 
ATOM      7  C   UNL     1       6.915   5.833  18.814  0.00  0.00    +0.000 A 
ENDROOT
BRANCH   5   8
ATOM      8  N   UNL     1       3.794   3.855  18.716  0.00  0.00    +0.000 N 
ATOM      9  C   UNL     1       3.876   2.669  19.558  0.00  0.00    +0.000 C 
ATOM     10  C   UNL     1       2.698   2.934  20.518  0.00  0.00    +0.000 C 
ATOM     11  C   UNL     1       1.682   3.668  19.619  0.00  0.00    +0.000 C 
ATOM     12  C   UNL     1       2.414   3.733  18.263  0.00  0.00    +0.000 C 
ATOM     13  C   UNL     1       2.445   2.319  17.650  0.00  0.00    +0.000 C 
ATOM     14  C   UNL     1       3.454   1.579  18.552  0.00  0.00    +0.000 C 
ENDBRANCH   5   8
TORSDOF 1
ENDMDL
MODEL 8
REMARK VINA RESULT:      -6.5      1.551      5.198
REMARK  Name = 
REMARK  2 active torsions:
REMARK  status: ('A' for Active; 'I' for Inactive)
REMARK    1  A    between atoms: C_1  and  C_2
REMARK    2  A    between atoms: C_5  and  N_6
REMARK                            x       y       z     vdW  Elec       q    Type
REMARK                         _______ _______ _______ _____ _____    ______ ____
ROOT
ATOM      1  C   UNL     1       1.427   2.793  21.624  0.00  0.00    +0.000 C 
ATOM      2  C   UNL     1       2.391   3.320  20.608  0.00  0.00    +0.000 A 
ATOM      3  C   UNL     1       3.098   2.465  19.764  0.00  0.00    +0.000 A 
ATOM      4  C   UNL     1       4.001   2.981  18.824  0.00  0.00    +0.000 A 
ATOM      5  C   UNL     1       4.239   4.356  18.689  0.00  0.00    +0.000 A 
ATOM      6  C   UNL     1       3.510   5.192  19.544  0.00  0.00    +0.000 A 
ATOM      7  C   UNL     1       2.602   4.693  20.486  0.00  0.00    +0.000 A 
ENDROOT
BRANCH   5   8
ATOM      8  N   UNL     1       5.117   4.847  17.782  0.00  0.00    +0.000 N 
ATOM      9  C   UNL     1       6.388   5.533  17.974  0.00  0.00    +0.000 C 
ATOM     10  C   UNL     1       7.311   4.644  17.117  0.00  0.00    +0.000 C 
ATOM     11  C   UNL     1       6.382   4.190  15.972  0.00  0.00    +0.000 C 
ATOM     12  C   UNL     1       5.047   4.875  16.327  0.00  0.00    +0.000 C 
ATOM     13  C   UNL     1       5.184   6.388  16.069  0.00  0.00    +0.000 C 
ATOM     14  C   UNL     1       6.119   6.845  17.208  0.00  0.00    +0.000 C 
ENDBRANCH   5   8
TORSDOF 1
ENDMDL
MODEL 9
REMARK VINA RESULT:      -6.5      1.532      5.271
REMARK  Name = 
REMARK  2 active torsions:
REMARK  status: ('A' for Active; 'I' for Inactive)
REMARK    1  A    between atoms: C_1  and  C_2
REMARK    2  A    between atoms: C_5  and  N_6
REMARK                            x       y       z     vdW  Elec       q    Type
REMARK                         _______ _______ _______ _____ _____    ______ ____
ROOT
ATOM      1  C   UNL     1       1.433   2.709  21.378  0.00  0.00    +0.000 C 
ATOM      2  C   UNL     1       2.399   3.292  20.393  0.00  0.00    +0.000 A 
ATOM      3  C   UNL     1       3.662   2.736  20.199  0.00  0.00    +0.000 A 
ATOM      4  C   UNL     1       4.553   3.302  19.276  0.00  0.00    +0.000 A 
ATOM      5  C   UNL     1       4.228   4.435  18.518  0.00  0.00    +0.000 A 
ATOM      6  C   UNL     1       2.950   4.968  18.728  0.00  0.00    +0.000 A 
ATOM      7  C   UNL     1       2.047   4.413  19.645  0.00  0.00    +0.000 A 
ENDROOT
BRANCH   5   8
ATOM      8  N   UNL     1       5.095   4.979  17.632  0.00  0.00    +0.000 N 
ATOM      9  C   UNL     1       5.949   4.346  16.636  0.00  0.00    +0.000 C 
ATOM     10  C   UNL     1       5.505   5.107  15.370  0.00  0.00    +0.000 C 
ATOM     11  C   UNL     1       5.178   6.513  15.914  0.00  0.00    +0.000 C 
ATOM     12  C   UNL     1       5.474   6.371  17.421  0.00  0.00    +0.000 C 
ATOM     13  C   UNL     1       6.999   6.279  17.620  0.00  0.00    +0.000 C 
ATOM     14  C   UNL     1       7.331   4.877  17.069  0.00  0.00    +0.000 C 
ENDBRANCH   5   8
TORSDOF 1
ENDMDL
