MODEL 1
REMARK VINA RESULT:      -7.3      0.000      0.000
REMARK  Name = 
REMARK  8 active torsions:
REMARK  status: ('A' for Active; 'I' for Inactive)
REMARK    1  A    between atoms: C_1  and  C_2
REMARK    2  A    between atoms: C_2  and  C_3
REMARK    3  A    between atoms: C_3  and  C_4
REMARK    4  A    between atoms: C_4  and  O_5
REMARK    5  A    between atoms: O_5  and  C_6
REMARK    6  A    between atoms: C_12  and  C_13
REMARK    7  A    between atoms: C_13  and  O_14
REMARK    8  A    between atoms: O_14  and  C_15
REMARK                            x       y       z     vdW  Elec       q    Type
REMARK                         _______ _______ _______ _____ _____    ______ ____
ROOT
ATOM      1  C   UNL     1       5.942   3.957  13.774  0.00  0.00    +0.000 C 
ATOM      2  O   UNL     1       4.738   4.082  13.934  0.00  0.00    +0.000 OA
ATOM      3  N   UNL     1       6.938   4.146  14.682  0.00  0.00    +0.000 N 
ATOM      4  C   UNL     1       6.797   4.322  16.033  0.00  0.00    +0.000 A 
ATOM      5  N   UNL     1       7.826   4.432  16.842  0.00  0.00    +0.000 NA
ATOM      6  N   UNL     1       7.442   4.601  18.158  0.00  0.00    +0.000 NA
ATOM      7  C   UNL     1       6.130   4.593  18.297  0.00  0.00    +0.000 A 
ATOM      8  S   UNL     1       5.284   4.362  16.820  0.00  0.00    +0.000 S 
ATOM      9  H   UNL     1       7.884   4.015  14.357  0.00  0.00    +0.000 HD
ENDROOT
BRANCH   1  10
ATOM     10  O   UNL     1       6.500   3.500  12.620  0.00  0.00    +0.000 OA
BRANCH  10  11
ATOM     11  C   UNL     1       5.562   2.926  11.704  0.00  0.00    +0.000 C 
BRANCH  11  12
ATOM     12  C   UNL     1       4.635   3.956  11.064  0.00  0.00    +0.000 C 
BRANCH  12  14
ATOM     13  C   UNL     1       2.664   4.040   9.455  0.00  0.00    +0.000 C 
ATOM     14  C   UNL     1       3.408   3.232  10.501  0.00  0.00    +0.000 C 
ENDBRANCH  12  14
ENDBRANCH  11  12
ENDBRANCH  10  11
ENDBRANCH   1  10
BRANCH   7  15
ATOM     15  C   UNL     1       5.402   4.841  19.578  0.00  0.00    +0.000 C 
BRANCH  15  16
ATOM     16  O   UNL     1       4.869   3.593  20.027  0.00  0.00    +0.000 OA
BRANCH  16  17
ATOM     17  C   UNL     1       3.503   3.476  19.960  0.00  0.00    +0.000 A 
ATOM     18  C   UNL     1       3.037   2.362  19.256  0.00  0.00    +0.000 A 
ATOM     19  C   UNL     1       1.668   2.131  19.119  0.00  0.00    +0.000 A 
ATOM     20  C   UNL     1       0.751   3.008  19.702  0.00  0.00    +0.000 A 
ATOM     21  C   UNL     1       1.209   4.109  20.420  0.00  0.00    +0.000 A 
ATOM     22  C   UNL     1       2.583   4.341  20.555  0.00  0.00    +0.000 A 
ENDBRANCH  16  17
ENDBRANCH  15  16
ENDBRANCH   7  15
TORSDOF 7
ENDMDL
MODEL 2
REMARK VINA RESULT:      -7.3      4.395      6.727
REMARK  Name = 
REMARK  8 active torsions:
REMARK  status: ('A' for Active; 'I' for Inactive)
REMARK    1  A    between atoms: C_1  and  C_2
REMARK    2  A    between atoms: C_2  and  C_3
REMARK    3  A    between atoms: C_3  and  C_4
REMARK    4  A    between atoms: C_4  and  O_5
REMARK    5  A    between atoms: O_5  and  C_6
REMARK    6  A    between atoms: C_12  and  C_13
REMARK    7  A    between atoms: C_13  and  O_14
REMARK    8  A    between atoms: O_14  and  C_15
REMARK                            x       y       z     vdW  Elec       q    Type
REMARK                         _______ _______ _______ _____ _____    ______ ____
ROOT
ATOM      1  C   UNL     1       8.151   8.164  18.070  0.00  0.00    +0.000 C 
ATOM      2  O   UNL     1       8.525   7.396  18.943  0.00  0.00    +0.000 OA
ATOM      3  N   UNL     1       7.264   7.930  17.065  0.00  0.00    +0.000 N 
ATOM      4  C   UNL     1       6.438   6.845  16.932  0.00  0.00    +0.000 A 
ATOM      5  N   UNL     1       5.564   6.738  15.958  0.00  0.00    +0.000 NA
ATOM      6  N   UNL     1       4.844   5.561  16.027  0.00  0.00    +0.000 NA
ATOM      7  C   UNL     1       5.190   4.829  17.067  0.00  0.00    +0.000 A 
ATOM      8  S   UNL     1       6.413   5.546  18.037  0.00  0.00    +0.000 S 
ATOM      9  H   UNL     1       7.096   8.687  16.419  0.00  0.00    +0.000 HD
ENDROOT
BRANCH   1  10
ATOM     10  O   UNL     1       8.522   9.472  18.014  0.00  0.00    +0.000 OA
BRANCH  10  11
ATOM     11  C   UNL     1       9.260   9.919  19.156  0.00  0.00    +0.000 C 
BRANCH  11  12
ATOM     12  C   UNL     1       9.325  11.439  19.277  0.00  0.00    +0.000 C 
BRANCH  12  14
ATOM     13  C   UNL     1      11.868  11.558  19.300  0.00  0.00    +0.000 C 
ATOM     14  C   UNL     1      10.583  11.818  20.064  0.00  0.00    +0.000 C 
ENDBRANCH  12  14
ENDBRANCH  11  12
ENDBRANCH  10  11
ENDBRANCH   1  10
BRANCH   7  15
ATOM     15  C   UNL     1       4.661   3.464  17.368  0.00  0.00    +0.000 C 
BRANCH  15  16
ATOM     16  O   UNL     1       4.580   3.330  18.789  0.00  0.00    +0.000 OA
BRANCH  16  17
ATOM     17  C   UNL     1       3.358   3.618  19.341  0.00  0.00    +0.000 A 
ATOM     18  C   UNL     1       2.373   2.644  19.147  0.00  0.00    +0.000 A 
ATOM     19  C   UNL     1       1.089   2.820  19.663  0.00  0.00    +0.000 A 
ATOM     20  C   UNL     1       0.782   3.970  20.393  0.00  0.00    +0.000 A 
ATOM     21  C   UNL     1       1.763   4.936  20.606  0.00  0.00    +0.000 A 
ATOM     22  C   UNL     1       3.051   4.759  20.086  0.00  0.00    +0.000 A 
ENDBRANCH  16  17
ENDBRANCH  15  16
ENDBRANCH   7  15
TORSDOF 7
ENDMDL
MODEL 3
REMARK VINA RESULT:      -7.2      4.614      6.936
REMARK  Name = 
REMARK  8 active torsions:
REMARK  status: ('A' for Active; 'I' for Inactive)
REMARK    1  A    between atoms: C_1  and  C_2
REMARK    2  A    between atoms: C_2  and  C_3
REMARK    3  A    between atoms: C_3  and  C_4
REMARK    4  A    between atoms: C_4  and  O_5
REMARK    5  A    between atoms: O_5  and  C_6
REMARK    6  A    between atoms: C_12  and  C_13
REMARK    7  A    between atoms: C_13  and  O_14
REMARK    8  A    between atoms: O_14  and  C_15
REMARK                            x       y       z     vdW  Elec       q    Type
REMARK                         _______ _______ _______ _____ _____    ______ ____
ROOT
ATOM      1  C   UNL     1       8.187   8.363  18.104  0.00  0.00    +0.000 C 
ATOM      2  O   UNL     1       8.632   7.623  18.968  0.00  0.00    +0.000 OA
ATOM      3  N   UNL     1       7.252   8.085  17.156  0.00  0.00    +0.000 N 
ATOM      4  C   UNL     1       6.451   6.974  17.091  0.00  0.00    +0.000 A 
ATOM      5  N   UNL     1       5.526   6.824  16.170  0.00  0.00    +0.000 NA
ATOM      6  N   UNL     1       4.846   5.629  16.302  0.00  0.00    +0.000 NA
ATOM      7  C   UNL     1       5.272   4.927  17.334  0.00  0.00    +0.000 A 
ATOM      8  S   UNL     1       6.527   5.698  18.218  0.00  0.00    +0.000 S 
ATOM      9  H   UNL     1       7.025   8.823  16.507  0.00  0.00    +0.000 HD
ENDROOT
BRANCH   1  10
ATOM     10  O   UNL     1       8.516   9.680  18.003  0.00  0.00    +0.000 OA
BRANCH  10  11
ATOM     11  C   UNL     1       9.136  10.218  19.176  0.00  0.00    +0.000 C 
BRANCH  11  12
ATOM     12  C   UNL     1      10.336  11.110  18.870  0.00  0.00    +0.000 C 
BRANCH  12  14
ATOM     13  C   UNL     1      10.662  13.139  20.373  0.00  0.00    +0.000 C 
ATOM     14  C   UNL     1      10.896  11.652  20.189  0.00  0.00    +0.000 C 
ENDBRANCH  12  14
ENDBRANCH  11  12
ENDBRANCH  10  11
ENDBRANCH   1  10
BRANCH   7  15
ATOM     15  C   UNL     1       4.800   3.554  17.690  0.00  0.00    +0.000 C 
BRANCH  15  16
ATOM     16  O   UNL     1       3.375   3.543  17.590  0.00  0.00    +0.000 OA
BRANCH  16  17
ATOM     17  C   UNL     1       2.700   3.437  18.781  0.00  0.00    +0.000 A 
ATOM     18  C   UNL     1       3.430   2.871  19.830  0.00  0.00    +0.000 A 
ATOM     19  C   UNL     1       2.855   2.712  21.090  0.00  0.00    +0.000 A 
ATOM     20  C   UNL     1       1.543   3.133  21.317  0.00  0.00    +0.000 A 
ATOM     21  C   UNL     1       0.816   3.715  20.281  0.00  0.00    +0.000 A 
ATOM     22  C   UNL     1       1.394   3.872  19.016  0.00  0.00    +0.000 A 
ENDBRANCH  16  17
ENDBRANCH  15  16
ENDBRANCH   7  15
TORSDOF 7
ENDMDL
MODEL 4
REMARK VINA RESULT:      -7.2      4.578      6.861
REMARK  Name = 
REMARK  8 active torsions:
REMARK  status: ('A' for Active; 'I' for Inactive)
REMARK    1  A    between atoms: C_1  and  C_2
REMARK    2  A    between atoms: C_2  and  C_3
REMARK    3  A    between atoms: C_3  and  C_4
REMARK    4  A    between atoms: C_4  and  O_5
REMARK    5  A    between atoms: O_5  and  C_6
REMARK    6  A    between atoms: C_12  and  C_13
REMARK    7  A    between atoms: C_13  and  O_14
REMARK    8  A    between atoms: O_14  and  C_15
REMARK                            x       y       z     vdW  Elec       q    Type
REMARK                         _______ _______ _______ _____ _____    ______ ____
ROOT
ATOM      1  C   UNL     1       8.265   8.804  18.242  0.00  0.00    +0.000 C 
ATOM      2  O   UNL     1       7.346   9.272  17.588  0.00  0.00    +0.000 OA
ATOM      3  N   UNL     1       8.384   7.548  18.751  0.00  0.00    +0.000 N 
ATOM      4  C   UNL     1       7.591   6.467  18.467  0.00  0.00    +0.000 A 
ATOM      5  N   UNL     1       7.825   5.272  18.959  0.00  0.00    +0.000 NA
ATOM      6  N   UNL     1       6.896   4.340  18.536  0.00  0.00    +0.000 NA
ATOM      7  C   UNL     1       6.003   4.867  17.721  0.00  0.00    +0.000 A 
ATOM      8  S   UNL     1       6.255   6.537  17.410  0.00  0.00    +0.000 S 
ATOM      9  H   UNL     1       9.214   7.350  19.288  0.00  0.00    +0.000 HD
ENDROOT
BRANCH   1  10
ATOM     10  O   UNL     1       9.416   9.481  18.506  0.00  0.00    +0.000 OA
BRANCH  10  11
ATOM     11  C   UNL     1       9.301  10.902  18.379  0.00  0.00    +0.000 C 
BRANCH  11  12
ATOM     12  C   UNL     1      10.601  11.578  17.952  0.00  0.00    +0.000 C 
BRANCH  12  14
ATOM     13  C   UNL     1      10.866  11.978  20.452  0.00  0.00    +0.000 C 
ATOM     14  C   UNL     1      11.554  11.615  19.150  0.00  0.00    +0.000 C 
ENDBRANCH  12  14
ENDBRANCH  11  12
ENDBRANCH  10  11
ENDBRANCH   1  10
BRANCH   7  15
ATOM     15  C   UNL     1       4.819   4.143  17.165  0.00  0.00    +0.000 C 
BRANCH  15  16
ATOM     16  O   UNL     1       4.525   3.050  18.039  0.00  0.00    +0.000 OA
BRANCH  16  17
ATOM     17  C   UNL     1       3.283   3.078  18.622  0.00  0.00    +0.000 A 
ATOM     18  C   UNL     1       3.251   3.575  19.929  0.00  0.00    +0.000 A 
ATOM     19  C   UNL     1       2.047   3.655  20.628  0.00  0.00    +0.000 A 
ATOM     20  C   UNL     1       0.858   3.252  20.019  0.00  0.00    +0.000 A 
ATOM     21  C   UNL     1       0.880   2.773  18.711  0.00  0.00    +0.000 A 
ATOM     22  C   UNL     1       2.089   2.691  18.010  0.00  0.00    +0.000 A 
ENDBRANCH  16  17
ENDBRANCH  15  16
ENDBRANCH   7  15
TORSDOF 7
ENDMDL
MODEL 5
REMARK VINA RESULT:      -7.1      4.856      7.791
REMARK  Name = 
REMARK  8 active torsions:
REMARK  status: ('A' for Active; 'I' for Inactive)
REMARK    1  A    between atoms: C_1  and  C_2
REMARK    2  A    between atoms: C_2  and  C_3
REMARK    3  A    between atoms: C_3  and  C_4
REMARK    4  A    between atoms: C_4  and  O_5
REMARK    5  A    between atoms: O_5  and  C_6
REMARK    6  A    between atoms: C_12  and  C_13
REMARK    7  A    between atoms: C_13  and  O_14
REMARK    8  A    between atoms: O_14  and  C_15
REMARK                            x       y       z     vdW  Elec       q    Type
REMARK                         _______ _______ _______ _____ _____    ______ ____
ROOT
ATOM      1  C   UNL     1       4.682   3.652  17.313  0.00  0.00    +0.000 C 
ATOM      2  O   UNL     1       4.341   4.337  16.360  0.00  0.00    +0.000 OA
ATOM      3  N   UNL     1       5.723   3.854  18.166  0.00  0.00    +0.000 N 
ATOM      4  C   UNL     1       6.496   4.981  18.269  0.00  0.00    +0.000 A 
ATOM      5  N   UNL     1       7.441   5.108  19.173  0.00  0.00    +0.000 NA
ATOM      6  N   UNL     1       8.086   6.327  19.087  0.00  0.00    +0.000 NA
ATOM      7  C   UNL     1       7.588   7.085  18.129  0.00  0.00    +0.000 A 
ATOM      8  S   UNL     1       6.285   6.355  17.282  0.00  0.00    +0.000 S 
ATOM      9  H   UNL     1       5.863   3.163  18.887  0.00  0.00    +0.000 HD
ENDROOT
BRANCH   1  10
ATOM     10  O   UNL     1       3.984   2.566  17.744  0.00  0.00    +0.000 OA
BRANCH  10  11
ATOM     11  C   UNL     1       2.594   2.592  17.401  0.00  0.00    +0.000 C 
BRANCH  11  12
ATOM     12  C   UNL     1       1.793   3.615  18.201  0.00  0.00    +0.000 C 
BRANCH  12  14
ATOM     13  C   UNL     1       1.086   3.316  20.628  0.00  0.00    +0.000 C 
ATOM     14  C   UNL     1       0.892   2.871  19.191  0.00  0.00    +0.000 C 
ENDBRANCH  12  14
ENDBRANCH  11  12
ENDBRANCH  10  11
ENDBRANCH   1  10
BRANCH   7  15
ATOM     15  C   UNL     1       8.127   8.420  17.727  0.00  0.00    +0.000 C 
BRANCH  15  16
ATOM     16  O   UNL     1       8.661   9.046  18.895  0.00  0.00    +0.000 OA
BRANCH  16  17
ATOM     17  C   UNL     1       9.081  10.342  18.731  0.00  0.00    +0.000 A 
ATOM     18  C   UNL     1      10.183  10.713  19.507  0.00  0.00    +0.000 A 
ATOM     19  C   UNL     1      10.705  12.004  19.428  0.00  0.00    +0.000 A 
ATOM     20  C   UNL     1      10.134  12.935  18.558  0.00  0.00    +0.000 A 
ATOM     21  C   UNL     1       9.047  12.567  17.769  0.00  0.00    +0.000 A 
ATOM     22  C   UNL     1       8.523  11.271  17.850  0.00  0.00    +0.000 A 
ENDBRANCH  16  17
ENDBRANCH  15  16
ENDBRANCH   7  15
TORSDOF 7
ENDMDL
MODEL 6
REMARK VINA RESULT:      -7.1      4.708      7.220
REMARK  Name = 
REMARK  8 active torsions:
REMARK  status: ('A' for Active; 'I' for Inactive)
REMARK    1  A    between atoms: C_1  and  C_2
REMARK    2  A    between atoms: C_2  and  C_3
REMARK    3  A    between atoms: C_3  and  C_4
REMARK    4  A    between atoms: C_4  and  O_5
REMARK    5  A    between atoms: O_5  and  C_6
REMARK    6  A    between atoms: C_12  and  C_13
REMARK    7  A    between atoms: C_13  and  O_14
REMARK    8  A    between atoms: O_14  and  C_15
REMARK                            x       y       z     vdW  Elec       q    Type
REMARK                         _______ _______ _______ _____ _____    ______ ____
ROOT
ATOM      1  C   UNL     1       8.373   8.945  18.303  0.00  0.00    +0.000 C 
ATOM      2  O   UNL     1       7.488   9.380  17.582  0.00  0.00    +0.000 OA
ATOM      3  N   UNL     1       8.488   7.700  18.838  0.00  0.00    +0.000 N 
ATOM      4  C   UNL     1       7.742   6.595  18.521  0.00  0.00    +0.000 A 
ATOM      5  N   UNL     1       7.972   5.413  19.046  0.00  0.00    +0.000 NA
ATOM      6  N   UNL     1       7.095   4.453  18.579  0.00  0.00    +0.000 NA
ATOM      7  C   UNL     1       6.245   4.945  17.698  0.00  0.00    +0.000 A 
ATOM      8  S   UNL     1       6.478   6.616  17.377  0.00  0.00    +0.000 S 
ATOM      9  H   UNL     1       9.285   7.530  19.433  0.00  0.00    +0.000 HD
ENDROOT
BRANCH   1  10
ATOM     10  O   UNL     1       9.488   9.654  18.631  0.00  0.00    +0.000 OA
BRANCH  10  11
ATOM     11  C   UNL     1       9.277  10.632  19.655  0.00  0.00    +0.000 C 
BRANCH  11  12
ATOM     12  C   UNL     1      10.561  11.328  20.099  0.00  0.00    +0.000 C 
BRANCH  12  14
ATOM     13  C   UNL     1       9.245  12.387  22.004  0.00  0.00    +0.000 C 
ATOM     14  C   UNL     1      10.191  12.616  20.842  0.00  0.00    +0.000 C 
ENDBRANCH  12  14
ENDBRANCH  11  12
ENDBRANCH  10  11
ENDBRANCH   1  10
BRANCH   7  15
ATOM     15  C   UNL     1       5.119   4.183  17.077  0.00  0.00    +0.000 C 
BRANCH  15  16
ATOM     16  O   UNL     1       3.959   5.017  17.107  0.00  0.00    +0.000 OA
BRANCH  16  17
ATOM     17  C   UNL     1       3.033   4.707  18.071  0.00  0.00    +0.000 A 
ATOM     18  C   UNL     1       2.162   3.663  17.745  0.00  0.00    +0.000 A 
ATOM     19  C   UNL     1       1.177   3.254  18.644  0.00  0.00    +0.000 A 
ATOM     20  C   UNL     1       1.065   3.878  19.888  0.00  0.00    +0.000 A 
ATOM     21  C   UNL     1       1.941   4.906  20.226  0.00  0.00    +0.000 A 
ATOM     22  C   UNL     1       2.928   5.318  19.323  0.00  0.00    +0.000 A 
ENDBRANCH  16  17
ENDBRANCH  15  16
ENDBRANCH   7  15
TORSDOF 7
ENDMDL
MODEL 7
REMARK VINA RESULT:      -7.0      4.960      8.030
REMARK  Name = 
REMARK  8 active torsions:
REMARK  status: ('A' for Active; 'I' for Inactive)
REMARK    1  A    between atoms: C_1  and  C_2
REMARK    2  A    between atoms: C_2  and  C_3
REMARK    3  A    between atoms: C_3  and  C_4
REMARK    4  A    between atoms: C_4  and  O_5
REMARK    5  A    between atoms: O_5  and  C_6
REMARK    6  A    between atoms: C_12  and  C_13
REMARK    7  A    between atoms: C_13  and  O_14
REMARK    8  A    between atoms: O_14  and  C_15
REMARK                            x       y       z     vdW  Elec       q    Type
REMARK                         _______ _______ _______ _____ _____    ______ ____
ROOT
ATOM      1  C   UNL     1       4.641   3.725  18.596  0.00  0.00    +0.000 C 
ATOM      2  O   UNL     1       5.352   3.505  19.565  0.00  0.00    +0.000 OA
ATOM      3  N   UNL     1       4.644   4.811  17.777  0.00  0.00    +0.000 N 
ATOM      4  C   UNL     1       5.585   5.806  17.734  0.00  0.00    +0.000 A 
ATOM      5  N   UNL     1       5.538   6.785  16.859  0.00  0.00    +0.000 NA
ATOM      6  N   UNL     1       6.590   7.669  17.006  0.00  0.00    +0.000 NA
ATOM      7  C   UNL     1       7.406   7.311  17.978  0.00  0.00    +0.000 A 
ATOM      8  S   UNL     1       6.942   5.857  18.766  0.00  0.00    +0.000 S 
ATOM      9  H   UNL     1       3.961   4.826  17.035  0.00  0.00    +0.000 HD
ENDROOT
BRANCH   1  10
ATOM     10  O   UNL     1       3.740   2.828  18.109  0.00  0.00    +0.000 OA
BRANCH  10  11
ATOM     11  C   UNL     1       2.627   3.424  17.436  0.00  0.00    +0.000 C 
BRANCH  11  12
ATOM     12  C   UNL     1       1.311   3.278  18.195  0.00  0.00    +0.000 C 
BRANCH  12  14
ATOM     13  C   UNL     1       1.263   3.297  20.740  0.00  0.00    +0.000 C 
ATOM     14  C   UNL     1       1.572   2.499  19.488  0.00  0.00    +0.000 C 
ENDBRANCH  12  14
ENDBRANCH  11  12
ENDBRANCH  10  11
ENDBRANCH   1  10
BRANCH   7  15
ATOM     15  C   UNL     1       8.584   8.105  18.442  0.00  0.00    +0.000 C 
BRANCH  15  16
ATOM     16  O   UNL     1       8.303   9.485  18.203  0.00  0.00    +0.000 OA
BRANCH  16  17
ATOM     17  C   UNL     1       9.187  10.374  18.761  0.00  0.00    +0.000 A 
ATOM     18  C   UNL     1      10.000  11.057  17.850  0.00  0.00    +0.000 A 
ATOM     19  C   UNL     1      10.938  11.988  18.295  0.00  0.00    +0.000 A 
ATOM     20  C   UNL     1      11.061  12.258  19.660  0.00  0.00    +0.000 A 
ATOM     21  C   UNL     1      10.242  11.595  20.571  0.00  0.00    +0.000 A 
ATOM     22  C   UNL     1       9.302  10.658  20.124  0.00  0.00    +0.000 A 
ENDBRANCH  16  17
ENDBRANCH  15  16
ENDBRANCH   7  15
TORSDOF 7
ENDMDL
MODEL 8
REMARK VINA RESULT:      -7.0      2.303      7.349
REMARK  Name = 
REMARK  8 active torsions:
REMARK  status: ('A' for Active; 'I' for Inactive)
REMARK    1  A    between atoms: C_1  and  C_2
REMARK    2  A    between atoms: C_2  and  C_3
REMARK    3  A    between atoms: C_3  and  C_4
REMARK    4  A    between atoms: C_4  and  O_5
REMARK    5  A    between atoms: O_5  and  C_6
REMARK    6  A    between atoms: C_12  and  C_13
REMARK    7  A    between atoms: C_13  and  O_14
REMARK    8  A    between atoms: O_14  and  C_15
REMARK                            x       y       z     vdW  Elec       q    Type
REMARK                         _______ _______ _______ _____ _____    ______ ____
ROOT
ATOM      1  C   UNL     1       2.899   2.259  18.496  0.00  0.00    +0.000 C 
ATOM      2  O   UNL     1       2.441   2.437  17.378  0.00  0.00    +0.000 OA
ATOM      3  N   UNL     1       4.071   2.720  19.010  0.00  0.00    +0.000 N 
ATOM      4  C   UNL     1       4.902   3.657  18.454  0.00  0.00    +0.000 A 
ATOM      5  N   UNL     1       5.984   4.090  19.060  0.00  0.00    +0.000 NA
ATOM      6  N   UNL     1       6.662   5.032  18.310  0.00  0.00    +0.000 NA
ATOM      7  C   UNL     1       6.053   5.290  17.170  0.00  0.00    +0.000 A 
ATOM      8  S   UNL     1       4.598   4.403  16.951  0.00  0.00    +0.000 S 
ATOM      9  H   UNL     1       4.294   2.448  19.956  0.00  0.00    +0.000 HD
ENDROOT
BRANCH   1  10
ATOM     10  O   UNL     1       2.230   1.604  19.484  0.00  0.00    +0.000 OA
BRANCH  10  11
ATOM     11  C   UNL     1       1.134   2.341  20.035  0.00  0.00    +0.000 C 
BRANCH  11  12
ATOM     12  C   UNL     1       1.361   2.773  21.481  0.00  0.00    +0.000 C 
BRANCH  12  14
ATOM     13  C   UNL     1       1.549   5.143  20.569  0.00  0.00    +0.000 C 
ATOM     14  C   UNL     1       2.143   4.090  21.485  0.00  0.00    +0.000 C 
ENDBRANCH  12  14
ENDBRANCH  11  12
ENDBRANCH  10  11
ENDBRANCH   1  10
BRANCH   7  15
ATOM     15  C   UNL     1       6.580   6.194  16.103  0.00  0.00    +0.000 C 
BRANCH  15  16
ATOM     16  O   UNL     1       7.612   5.493  15.406  0.00  0.00    +0.000 OA
BRANCH  16  17
ATOM     17  C   UNL     1       7.237   4.916  14.218  0.00  0.00    +0.000 A 
ATOM     18  C   UNL     1       7.892   5.408  13.086  0.00  0.00    +0.000 A 
ATOM     19  C   UNL     1       7.599   4.901  11.820  0.00  0.00    +0.000 A 
ATOM     20  C   UNL     1       6.656   3.882  11.678  0.00  0.00    +0.000 A 
ATOM     21  C   UNL     1       6.012   3.375  12.804  0.00  0.00    +0.000 A 
ATOM     22  C   UNL     1       6.305   3.886  14.074  0.00  0.00    +0.000 A 
ENDBRANCH  16  17
ENDBRANCH  15  16
ENDBRANCH   7  15
TORSDOF 7
ENDMDL
MODEL 9
REMARK VINA RESULT:      -6.9      1.051      1.130
REMARK  Name = 
REMARK  8 active torsions:
REMARK  status: ('A' for Active; 'I' for Inactive)
REMARK    1  A    between atoms: C_1  and  C_2
REMARK    2  A    between atoms: C_2  and  C_3
REMARK    3  A    between atoms: C_3  and  C_4
REMARK    4  A    between atoms: C_4  and  O_5
REMARK    5  A    between atoms: O_5  and  C_6
REMARK    6  A    between atoms: C_12  and  C_13
REMARK    7  A    between atoms: C_13  and  O_14
REMARK    8  A    between atoms: O_14  and  C_15
REMARK                            x       y       z     vdW  Elec       q    Type
REMARK                         _______ _______ _______ _____ _____    ______ ____
ROOT
ATOM      1  C   UNL     1       6.393   4.156  14.077  0.00  0.00    +0.000 C 
ATOM      2  O   UNL     1       5.213   4.464  14.018  0.00  0.00    +0.000 OA
ATOM      3  N   UNL     1       7.237   4.248  15.140  0.00  0.00    +0.000 N 
ATOM      4  C   UNL     1       6.896   4.516  16.440  0.00  0.00    +0.000 A 
ATOM      5  N   UNL     1       7.777   4.518  17.414  0.00  0.00    +0.000 NA
ATOM      6  N   UNL     1       7.205   4.813  18.637  0.00  0.00    +0.000 NA
ATOM      7  C   UNL     1       5.904   5.004  18.542  0.00  0.00    +0.000 A 
ATOM      8  S   UNL     1       5.296   4.818  16.946  0.00  0.00    +0.000 S 
ATOM      9  H   UNL     1       8.193   3.963  14.991  0.00  0.00    +0.000 HD
ENDROOT
BRANCH   1  10
ATOM     10  O   UNL     1       7.063   3.560  13.053  0.00  0.00    +0.000 OA
BRANCH  10  11
ATOM     11  C   UNL     1       6.430   3.708  11.777  0.00  0.00    +0.000 C 
BRANCH  11  12
ATOM     12  C   UNL     1       5.304   2.705  11.540  0.00  0.00    +0.000 C 
BRANCH  12  14
ATOM     13  C   UNL     1       3.169   2.940  10.173  0.00  0.00    +0.000 C 
ATOM     14  C   UNL     1       3.997   3.473  11.327  0.00  0.00    +0.000 C 
ENDBRANCH  12  14
ENDBRANCH  11  12
ENDBRANCH  10  11
ENDBRANCH   1  10
BRANCH   7  15
ATOM     15  C   UNL     1       5.015   5.425  19.667  0.00  0.00    +0.000 C 
BRANCH  15  16
ATOM     16  O   UNL     1       3.723   5.701  19.124  0.00  0.00    +0.000 OA
BRANCH  16  17
ATOM     17  C   UNL     1       2.741   4.798  19.448  0.00  0.00    +0.000 A 
ATOM     18  C   UNL     1       2.127   4.172  18.359  0.00  0.00    +0.000 A 
ATOM     19  C   UNL     1       1.115   3.232  18.558  0.00  0.00    +0.000 A 
ATOM     20  C   UNL     1       0.718   2.900  19.855  0.00  0.00    +0.000 A 
ATOM     21  C   UNL     1       1.338   3.507  20.944  0.00  0.00    +0.000 A 
ATOM     22  C   UNL     1       2.352   4.451  20.743  0.00  0.00    +0.000 A 
ENDBRANCH  16  17
ENDBRANCH  15  16
ENDBRANCH   7  15
TORSDOF 7
ENDMDL
