MODEL 1
REMARK VINA RESULT:      -7.8      0.000      0.000
REMARK  Name = 
REMARK  11 active torsions:
REMARK  status: ('A' for Active; 'I' for Inactive)
REMARK    1  A    between atoms: C_4  and  C_5
REMARK    2  A    between atoms: C_15  and  O_16
REMARK    3  A    between atoms: O_16  and  C_17
REMARK    4  A    between atoms: C_17  and  C_18
REMARK    5  A    between atoms: C_18  and  C_19
REMARK    6  A    between atoms: C_19  and  C_20
REMARK    7  A    between atoms: C_20  and  C_21
REMARK    8  A    between atoms: C_21  and  C_22
REMARK    9  A    between atoms: C_22  and  C_23
REMARK   10  A    between atoms: C_23  and  C_24
REMARK   11  A    between atoms: C_24  and  N_25
REMARK                            x       y       z     vdW  Elec       q    Type
REMARK                         _______ _______ _______ _____ _____    ______ ____
ROOT
ATOM      1  O   UNL     1       2.144  10.815  17.282  0.00  0.00    +0.000 OA
ATOM      2  C   UNL     1       1.666  10.316  18.294  0.00  0.00    +0.000 A 
ATOM      3  C   UNL     1       0.708  11.057  19.123  0.00  0.00    +0.000 A 
ATOM      4  C   UNL     1       0.232  10.500  20.245  0.00  0.00    +0.000 A 
ATOM      5  O   UNL     1       0.588   9.233  20.692  0.00  0.00    +0.000 OA
ATOM      6  C   UNL     1       1.441   8.485  19.921  0.00  0.00    +0.000 A 
ATOM      7  C   UNL     1       1.743   7.193  20.357  0.00  0.00    +0.000 A 
ATOM      8  C   UNL     1       2.595   6.378  19.601  0.00  0.00    +0.000 A 
ATOM      9  C   UNL     1       3.143   6.870  18.412  0.00  0.00    +0.000 A 
ATOM     10  C   UNL     1       2.851   8.161  17.980  0.00  0.00    +0.000 A 
ATOM     11  C   UNL     1       1.999   8.961  18.739  0.00  0.00    +0.000 A 
ENDROOT
BRANCH   4  12
ATOM     12  C   UNL     1      -0.764  11.198  21.090  0.00  0.00    +0.000 A 
ATOM     13  C   UNL     1      -0.820  10.947  22.471  0.00  0.00    +0.000 A 
ATOM     14  C   UNL     1      -1.768  11.581  23.281  0.00  0.00    +0.000 A 
ATOM     15  C   UNL     1      -2.673  12.476  22.716  0.00  0.00    +0.000 A 
ATOM     16 BR   UNL     1      -3.963  13.324  23.804  0.00  0.00    +0.000 Br
ATOM     17  C   UNL     1      -2.629  12.752  21.354  0.00  0.00    +0.000 A 
ATOM     18  C   UNL     1      -1.675  12.122  20.549  0.00  0.00    +0.000 A 
ENDBRANCH   4  12
BRANCH   8  19
ATOM     19  O   UNL     1       2.817   5.129  20.120  0.00  0.00    +0.000 OA
BRANCH  19  20
ATOM     20  C   UNL     1       1.725   4.572  20.857  0.00  0.00    +0.000 C 
BRANCH  20  21
ATOM     21  C   UNL     1       0.826   3.778  19.918  0.00  0.00    +0.000 C 
BRANCH  21  22
ATOM     22  C   UNL     1       1.586   3.442  18.636  0.00  0.00    +0.000 C 
BRANCH  22  23
ATOM     23  C   UNL     1       2.033   1.986  18.598  0.00  0.00    +0.000 C 
BRANCH  23  24
ATOM     24  C   UNL     1       3.458   1.873  18.045  0.00  0.00    +0.000 C 
BRANCH  24  25
ATOM     25  C   UNL     1       3.845   3.146  17.304  0.00  0.00    +0.000 C 
BRANCH  25  26
ATOM     26  C   UNL     1       5.068   3.855  17.905  0.00  0.00    +0.000 C 
BRANCH  26  27
ATOM     27  C   UNL     1       5.431   5.021  16.975  0.00  0.00    +0.000 C 
BRANCH  27  28
ATOM     28  N   UNL     1       6.855   5.358  16.811  0.00  0.00    +0.000 NA
ATOM     29  C   UNL     1       7.615   4.684  17.888  0.00  0.00    +0.000 C 
ATOM     30  C   UNL     1       7.624   5.684  19.030  0.00  0.00    +0.000 C 
ATOM     31  C   UNL     1       7.891   6.976  18.290  0.00  0.00    +0.000 C 
ATOM     32  C   UNL     1       7.167   6.794  16.956  0.00  0.00    +0.000 C 
ENDBRANCH  27  28
ENDBRANCH  26  27
ENDBRANCH  25  26
ENDBRANCH  24  25
ENDBRANCH  23  24
ENDBRANCH  22  23
ENDBRANCH  21  22
ENDBRANCH  20  21
ENDBRANCH  19  20
ENDBRANCH   8  19
TORSDOF 11
ENDMDL
MODEL 2
REMARK VINA RESULT:      -7.7      0.625      1.055
REMARK  Name = 
REMARK  11 active torsions:
REMARK  status: ('A' for Active; 'I' for Inactive)
REMARK    1  A    between atoms: C_4  and  C_5
REMARK    2  A    between atoms: C_15  and  O_16
REMARK    3  A    between atoms: O_16  and  C_17
REMARK    4  A    between atoms: C_17  and  C_18
REMARK    5  A    between atoms: C_18  and  C_19
REMARK    6  A    between atoms: C_19  and  C_20
REMARK    7  A    between atoms: C_20  and  C_21
REMARK    8  A    between atoms: C_21  and  C_22
REMARK    9  A    between atoms: C_22  and  C_23
REMARK   10  A    between atoms: C_23  and  C_24
REMARK   11  A    between atoms: C_24  and  N_25
REMARK                            x       y       z     vdW  Elec       q    Type
REMARK                         _______ _______ _______ _____ _____    ______ ____
ROOT
ATOM      1  O   UNL     1       2.131   9.949  17.287  0.00  0.00    +0.000 OA
ATOM      2  C   UNL     1       1.713   9.572  18.374  0.00  0.00    +0.000 A 
ATOM      3  C   UNL     1       0.812  10.412  19.173  0.00  0.00    +0.000 A 
ATOM      4  C   UNL     1       0.402   9.989  20.376  0.00  0.00    +0.000 A 
ATOM      5  O   UNL     1       0.776   8.773  20.939  0.00  0.00    +0.000 OA
ATOM      6  C   UNL     1       1.575   7.934  20.205  0.00  0.00    +0.000 A 
ATOM      7  C   UNL     1       1.895   6.694  20.763  0.00  0.00    +0.000 A 
ATOM      8  C   UNL     1       2.694   5.789  20.051  0.00  0.00    +0.000 A 
ATOM      9  C   UNL     1       3.170   6.140  18.785  0.00  0.00    +0.000 A 
ATOM     10  C   UNL     1       2.862   7.379  18.230  0.00  0.00    +0.000 A 
ATOM     11  C   UNL     1       2.063   8.269  18.946  0.00  0.00    +0.000 A 
ENDROOT
BRANCH   4  12
ATOM     12  C   UNL     1      -0.535  10.789  21.197  0.00  0.00    +0.000 A 
ATOM     13  C   UNL     1      -1.215  11.881  20.633  0.00  0.00    +0.000 A 
ATOM     14  C   UNL     1      -2.087  12.661  21.399  0.00  0.00    +0.000 A 
ATOM     15  C   UNL     1      -2.290  12.355  22.743  0.00  0.00    +0.000 A 
ATOM     16 BR   UNL     1      -3.458  13.414  23.784  0.00  0.00    +0.000 Br
ATOM     17  C   UNL     1      -1.639  11.271  23.321  0.00  0.00    +0.000 A 
ATOM     18  C   UNL     1      -0.774  10.489  22.549  0.00  0.00    +0.000 A 
ENDBRANCH   4  12
BRANCH   8  19
ATOM     19  O   UNL     1       2.938   4.602  20.691  0.00  0.00    +0.000 OA
BRANCH  19  20
ATOM     20  C   UNL     1       1.776   3.895  21.132  0.00  0.00    +0.000 C 
BRANCH  20  21
ATOM     21  C   UNL     1       0.742   3.863  20.012  0.00  0.00    +0.000 C 
BRANCH  21  22
ATOM     22  C   UNL     1       0.868   2.556  19.231  0.00  0.00    +0.000 C 
BRANCH  22  23
ATOM     23  C   UNL     1       1.795   2.691  18.029  0.00  0.00    +0.000 C 
BRANCH  23  24
ATOM     24  C   UNL     1       3.118   1.961  18.283  0.00  0.00    +0.000 C 
BRANCH  24  25
ATOM     25  C   UNL     1       4.203   2.484  17.352  0.00  0.00    +0.000 C 
BRANCH  25  26
ATOM     26  C   UNL     1       5.093   3.560  17.994  0.00  0.00    +0.000 C 
BRANCH  26  27
ATOM     27  C   UNL     1       5.459   4.573  16.900  0.00  0.00    +0.000 C 
BRANCH  27  28
ATOM     28  N   UNL     1       6.870   4.969  16.767  0.00  0.00    +0.000 NA
ATOM     29  C   UNL     1       7.559   4.656  18.040  0.00  0.00    +0.000 C 
ATOM     30  C   UNL     1       7.400   5.911  18.878  0.00  0.00    +0.000 C 
ATOM     31  C   UNL     1       7.665   6.988  17.850  0.00  0.00    +0.000 C 
ATOM     32  C   UNL     1       7.085   6.415  16.556  0.00  0.00    +0.000 C 
ENDBRANCH  27  28
ENDBRANCH  26  27
ENDBRANCH  25  26
ENDBRANCH  24  25
ENDBRANCH  23  24
ENDBRANCH  22  23
ENDBRANCH  21  22
ENDBRANCH  20  21
ENDBRANCH  19  20
ENDBRANCH   8  19
TORSDOF 11
ENDMDL
MODEL 3
REMARK VINA RESULT:      -7.6      1.229      1.561
REMARK  Name = 
REMARK  11 active torsions:
REMARK  status: ('A' for Active; 'I' for Inactive)
REMARK    1  A    between atoms: C_4  and  C_5
REMARK    2  A    between atoms: C_15  and  O_16
REMARK    3  A    between atoms: O_16  and  C_17
REMARK    4  A    between atoms: C_17  and  C_18
REMARK    5  A    between atoms: C_18  and  C_19
REMARK    6  A    between atoms: C_19  and  C_20
REMARK    7  A    between atoms: C_20  and  C_21
REMARK    8  A    between atoms: C_21  and  C_22
REMARK    9  A    between atoms: C_22  and  C_23
REMARK   10  A    between atoms: C_23  and  C_24
REMARK   11  A    between atoms: C_24  and  N_25
REMARK                            x       y       z     vdW  Elec       q    Type
REMARK                         _______ _______ _______ _____ _____    ______ ____
ROOT
ATOM      1  O   UNL     1       2.598   9.094  17.021  0.00  0.00    +0.000 OA
ATOM      2  C   UNL     1       1.989   9.070  18.083  0.00  0.00    +0.000 A 
ATOM      3  C   UNL     1       1.107  10.177  18.475  0.00  0.00    +0.000 A 
ATOM      4  C   UNL     1       0.484  10.141  19.661  0.00  0.00    +0.000 A 
ATOM      5  O   UNL     1       0.614   9.099  20.573  0.00  0.00    +0.000 OA
ATOM      6  C   UNL     1       1.387   8.020  20.224  0.00  0.00    +0.000 A 
ATOM      7  C   UNL     1       1.461   6.959  21.129  0.00  0.00    +0.000 A 
ATOM      8  C   UNL     1       2.222   5.823  20.819  0.00  0.00    +0.000 A 
ATOM      9  C   UNL     1       2.909   5.767  19.603  0.00  0.00    +0.000 A 
ATOM     10  C   UNL     1       2.846   6.828  18.704  0.00  0.00    +0.000 A 
ATOM     11  C   UNL     1       2.082   7.950  19.021  0.00  0.00    +0.000 A 
ENDROOT
BRANCH   4  12
ATOM     12  C   UNL     1      -0.442  11.218  20.079  0.00  0.00    +0.000 A 
ATOM     13  C   UNL     1      -1.715  11.321  19.497  0.00  0.00    +0.000 A 
ATOM     14  C   UNL     1      -2.595  12.345  19.863  0.00  0.00    +0.000 A 
ATOM     15  C   UNL     1      -2.208  13.279  20.821  0.00  0.00    +0.000 A 
ATOM     16 BR   UNL     1      -3.388  14.671  21.310  0.00  0.00    +0.000 Br
ATOM     17  C   UNL     1      -0.957  13.190  21.422  0.00  0.00    +0.000 A 
ATOM     18  C   UNL     1      -0.084  12.161  21.057  0.00  0.00    +0.000 A 
ENDBRANCH   4  12
BRANCH   8  19
ATOM     19  O   UNL     1       2.218   4.842  21.775  0.00  0.00    +0.000 OA
BRANCH  19  20
ATOM     20  C   UNL     1       2.462   3.518  21.293  0.00  0.00    +0.000 C 
BRANCH  20  21
ATOM     21  C   UNL     1       1.137   2.783  21.123  0.00  0.00    +0.000 C 
BRANCH  21  22
ATOM     22  C   UNL     1       0.617   2.979  19.700  0.00  0.00    +0.000 C 
BRANCH  22  23
ATOM     23  C   UNL     1       1.368   2.121  18.690  0.00  0.00    +0.000 C 
BRANCH  23  24
ATOM     24  C   UNL     1       1.989   2.995  17.594  0.00  0.00    +0.000 C 
BRANCH  24  25
ATOM     25  C   UNL     1       3.486   2.741  17.493  0.00  0.00    +0.000 C 
BRANCH  25  26
ATOM     26  C   UNL     1       4.255   3.881  16.808  0.00  0.00    +0.000 C 
BRANCH  26  27
ATOM     27  C   UNL     1       5.516   4.156  17.639  0.00  0.00    +0.000 C 
BRANCH  27  28
ATOM     28  N   UNL     1       6.667   4.779  16.966  0.00  0.00    +0.000 NA
ATOM     29  C   UNL     1       7.825   4.722  17.887  0.00  0.00    +0.000 C 
ATOM     30  C   UNL     1       7.737   6.007  18.689  0.00  0.00    +0.000 C 
ATOM     31  C   UNL     1       7.382   7.005  17.610  0.00  0.00    +0.000 C 
ATOM     32  C   UNL     1       6.493   6.212  16.652  0.00  0.00    +0.000 C 
ENDBRANCH  27  28
ENDBRANCH  26  27
ENDBRANCH  25  26
ENDBRANCH  24  25
ENDBRANCH  23  24
ENDBRANCH  22  23
ENDBRANCH  21  22
ENDBRANCH  20  21
ENDBRANCH  19  20
ENDBRANCH   8  19
TORSDOF 11
ENDMDL
MODEL 4
REMARK VINA RESULT:      -7.5      1.570      2.226
REMARK  Name = 
REMARK  11 active torsions:
REMARK  status: ('A' for Active; 'I' for Inactive)
REMARK    1  A    between atoms: C_4  and  C_5
REMARK    2  A    between atoms: C_15  and  O_16
REMARK    3  A    between atoms: O_16  and  C_17
REMARK    4  A    between atoms: C_17  and  C_18
REMARK    5  A    between atoms: C_18  and  C_19
REMARK    6  A    between atoms: C_19  and  C_20
REMARK    7  A    between atoms: C_20  and  C_21
REMARK    8  A    between atoms: C_21  and  C_22
REMARK    9  A    between atoms: C_22  and  C_23
REMARK   10  A    between atoms: C_23  and  C_24
REMARK   11  A    between atoms: C_24  and  N_25
REMARK                            x       y       z     vdW  Elec       q    Type
REMARK                         _______ _______ _______ _____ _____    ______ ____
ROOT
ATOM      1  O   UNL     1       2.170  10.325  17.314  0.00  0.00    +0.000 OA
ATOM      2  C   UNL     1       1.763  10.089  18.444  0.00  0.00    +0.000 A 
ATOM      3  C   UNL     1       1.165  11.145  19.270  0.00  0.00    +0.000 A 
ATOM      4  C   UNL     1       0.765  10.865  20.518  0.00  0.00    +0.000 A 
ATOM      5  O   UNL     1       0.874   9.608  21.103  0.00  0.00    +0.000 OA
ATOM      6  C   UNL     1       1.378   8.580  20.349  0.00  0.00    +0.000 A 
ATOM      7  C   UNL     1       1.428   7.313  20.935  0.00  0.00    +0.000 A 
ATOM      8  C   UNL     1       1.918   6.221  20.205  0.00  0.00    +0.000 A 
ATOM      9  C   UNL     1       2.360   6.413  18.893  0.00  0.00    +0.000 A 
ATOM     10  C   UNL     1       2.321   7.676  18.310  0.00  0.00    +0.000 A 
ATOM     11  C   UNL     1       1.828   8.754  19.044  0.00  0.00    +0.000 A 
ENDROOT
BRANCH   4  12
ATOM     12  C   UNL     1       0.124  11.892  21.371  0.00  0.00    +0.000 A 
ATOM     13  C   UNL     1       0.517  13.237  21.275  0.00  0.00    +0.000 A 
ATOM     14  C   UNL     1      -0.062  14.217  22.088  0.00  0.00    +0.000 A 
ATOM     15  C   UNL     1      -1.044  13.860  23.008  0.00  0.00    +0.000 A 
ATOM     16 BR   UNL     1      -1.819  15.179  24.117  0.00  0.00    +0.000 Br
ATOM     17  C   UNL     1      -1.460  12.538  23.113  0.00  0.00    +0.000 A 
ATOM     18  C   UNL     1      -0.884  11.563  22.293  0.00  0.00    +0.000 A 
ENDBRANCH   4  12
BRANCH   8  19
ATOM     19  O   UNL     1       1.915   5.026  20.876  0.00  0.00    +0.000 OA
BRANCH  19  20
ATOM     20  C   UNL     1       1.095   4.005  20.300  0.00  0.00    +0.000 C 
BRANCH  20  21
ATOM     21  C   UNL     1       1.979   2.940  19.662  0.00  0.00    +0.000 C 
BRANCH  21  22
ATOM     22  C   UNL     1       3.082   2.531  20.636  0.00  0.00    +0.000 C 
BRANCH  22  23
ATOM     23  C   UNL     1       4.459   2.547  19.985  0.00  0.00    +0.000 C 
BRANCH  23  24
ATOM     24  C   UNL     1       4.563   3.691  18.969  0.00  0.00    +0.000 C 
BRANCH  24  25
ATOM     25  C   UNL     1       5.971   4.272  18.963  0.00  0.00    +0.000 C 
BRANCH  25  26
ATOM     26  C   UNL     1       6.061   5.647  18.285  0.00  0.00    +0.000 C 
BRANCH  26  27
ATOM     27  C   UNL     1       7.155   5.564  17.211  0.00  0.00    +0.000 C 
BRANCH  27  28
ATOM     28  N   UNL     1       6.791   5.895  15.824  0.00  0.00    +0.000 NA
ATOM     29  C   UNL     1       5.313   5.934  15.732  0.00  0.00    +0.000 C 
ATOM     30  C   UNL     1       4.917   4.511  15.381  0.00  0.00    +0.000 C 
ATOM     31  C   UNL     1       5.962   4.160  14.346  0.00  0.00    +0.000 C 
ATOM     32  C   UNL     1       7.215   4.896  14.822  0.00  0.00    +0.000 C 
ENDBRANCH  27  28
ENDBRANCH  26  27
ENDBRANCH  25  26
ENDBRANCH  24  25
ENDBRANCH  23  24
ENDBRANCH  22  23
ENDBRANCH  21  22
ENDBRANCH  20  21
ENDBRANCH  19  20
ENDBRANCH   8  19
TORSDOF 11
ENDMDL
MODEL 5
REMARK VINA RESULT:      -7.4      0.897      1.206
REMARK  Name = 
REMARK  11 active torsions:
REMARK  status: ('A' for Active; 'I' for Inactive)
REMARK    1  A    between atoms: C_4  and  C_5
REMARK    2  A    between atoms: C_15  and  O_16
REMARK    3  A    between atoms: O_16  and  C_17
REMARK    4  A    between atoms: C_17  and  C_18
REMARK    5  A    between atoms: C_18  and  C_19
REMARK    6  A    between atoms: C_19  and  C_20
REMARK    7  A    between atoms: C_20  and  C_21
REMARK    8  A    between atoms: C_21  and  C_22
REMARK    9  A    between atoms: C_22  and  C_23
REMARK   10  A    between atoms: C_23  and  C_24
REMARK   11  A    between atoms: C_24  and  N_25
REMARK                            x       y       z     vdW  Elec       q    Type
REMARK                         _______ _______ _______ _____ _____    ______ ____
ROOT
ATOM      1  O   UNL     1       2.087   9.973  17.408  0.00  0.00    +0.000 OA
ATOM      2  C   UNL     1       1.588   9.748  18.504  0.00  0.00    +0.000 A 
ATOM      3  C   UNL     1       0.752  10.750  19.176  0.00  0.00    +0.000 A 
ATOM      4  C   UNL     1       0.252  10.489  20.392  0.00  0.00    +0.000 A 
ATOM      5  O   UNL     1       0.471   9.301  21.082  0.00  0.00    +0.000 OA
ATOM      6  C   UNL     1       1.203   8.317  20.468  0.00  0.00    +0.000 A 
ATOM      7  C   UNL     1       1.366   7.110  21.152  0.00  0.00    +0.000 A 
ATOM      8  C   UNL     1       2.090   6.063  20.566  0.00  0.00    +0.000 A 
ATOM      9  C   UNL     1       2.651   6.239  19.298  0.00  0.00    +0.000 A 
ATOM     10  C   UNL     1       2.499   7.444  18.618  0.00  0.00    +0.000 A 
ATOM     11  C   UNL     1       1.773   8.477  19.209  0.00  0.00    +0.000 A 
ENDROOT
BRANCH   4  12
ATOM     12  C   UNL     1      -0.625  11.457  21.089  0.00  0.00    +0.000 A 
ATOM     13  C   UNL     1      -0.915  11.293  22.453  0.00  0.00    +0.000 A 
ATOM     14  C   UNL     1      -1.759  12.186  23.123  0.00  0.00    +0.000 A 
ATOM     15  C   UNL     1      -2.322  13.256  22.432  0.00  0.00    +0.000 A 
ATOM     16 BR   UNL     1      -3.473  14.455  23.330  0.00  0.00    +0.000 Br
ATOM     17  C   UNL     1      -2.040  13.447  21.084  0.00  0.00    +0.000 A 
ATOM     18  C   UNL     1      -1.190  12.557  20.421  0.00  0.00    +0.000 A 
ENDBRANCH   4  12
BRANCH   8  19
ATOM     19  O   UNL     1       2.180   4.925  21.324  0.00  0.00    +0.000 OA
BRANCH  19  20
ATOM     20  C   UNL     1       2.153   3.698  20.588  0.00  0.00    +0.000 C 
BRANCH  20  21
ATOM     21  C   UNL     1       1.018   3.736  19.572  0.00  0.00    +0.000 C 
BRANCH  21  22
ATOM     22  C   UNL     1       0.906   2.383  18.871  0.00  0.00    +0.000 C 
BRANCH  22  23
ATOM     23  C   UNL     1       2.130   2.076  18.017  0.00  0.00    +0.000 C 
BRANCH  23  24
ATOM     24  C   UNL     1       2.535   3.303  17.192  0.00  0.00    +0.000 C 
BRANCH  24  25
ATOM     25  C   UNL     1       3.998   3.209  16.781  0.00  0.00    +0.000 C 
BRANCH  25  26
ATOM     26  C   UNL     1       4.695   4.575  16.685  0.00  0.00    +0.000 C 
BRANCH  26  27
ATOM     27  C   UNL     1       5.907   4.545  17.626  0.00  0.00    +0.000 C 
BRANCH  27  28
ATOM     28  N   UNL     1       6.083   5.665  18.565  0.00  0.00    +0.000 NA
ATOM     29  C   UNL     1       5.989   6.928  17.798  0.00  0.00    +0.000 C 
ATOM     30  C   UNL     1       7.414   7.214  17.360  0.00  0.00    +0.000 C 
ATOM     31  C   UNL     1       8.183   6.877  18.617  0.00  0.00    +0.000 C 
ATOM     32  C   UNL     1       7.403   5.710  19.225  0.00  0.00    +0.000 C 
ENDBRANCH  27  28
ENDBRANCH  26  27
ENDBRANCH  25  26
ENDBRANCH  24  25
ENDBRANCH  23  24
ENDBRANCH  22  23
ENDBRANCH  21  22
ENDBRANCH  20  21
ENDBRANCH  19  20
ENDBRANCH   8  19
TORSDOF 11
ENDMDL
MODEL 6
REMARK VINA RESULT:      -7.3      3.827      6.343
REMARK  Name = 
REMARK  11 active torsions:
REMARK  status: ('A' for Active; 'I' for Inactive)
REMARK    1  A    between atoms: C_4  and  C_5
REMARK    2  A    between atoms: C_15  and  O_16
REMARK    3  A    between atoms: O_16  and  C_17
REMARK    4  A    between atoms: C_17  and  C_18
REMARK    5  A    between atoms: C_18  and  C_19
REMARK    6  A    between atoms: C_19  and  C_20
REMARK    7  A    between atoms: C_20  and  C_21
REMARK    8  A    between atoms: C_21  and  C_22
REMARK    9  A    between atoms: C_22  and  C_23
REMARK   10  A    between atoms: C_23  and  C_24
REMARK   11  A    between atoms: C_24  and  N_25
REMARK                            x       y       z     vdW  Elec       q    Type
REMARK                         _______ _______ _______ _____ _____    ______ ____
ROOT
ATOM      1  O   UNL     1       2.166   3.767  20.853  0.00  0.00    +0.000 OA
ATOM      2  C   UNL     1       2.288   4.852  20.298  0.00  0.00    +0.000 A 
ATOM      3  C   UNL     1       1.618   6.050  20.820  0.00  0.00    +0.000 A 
ATOM      4  C   UNL     1       1.738   7.215  20.169  0.00  0.00    +0.000 A 
ATOM      5  O   UNL     1       2.478   7.378  19.002  0.00  0.00    +0.000 OA
ATOM      6  C   UNL     1       3.163   6.296  18.509  0.00  0.00    +0.000 A 
ATOM      7  C   UNL     1       3.944   6.492  17.368  0.00  0.00    +0.000 A 
ATOM      8  C   UNL     1       4.679   5.427  16.829  0.00  0.00    +0.000 A 
ATOM      9  C   UNL     1       4.618   4.171  17.438  0.00  0.00    +0.000 A 
ATOM     10  C   UNL     1       3.832   3.970  18.570  0.00  0.00    +0.000 A 
ATOM     11  C   UNL     1       3.109   5.038  19.099  0.00  0.00    +0.000 A 
ENDROOT
BRANCH   4  12
ATOM     12  C   UNL     1       1.109   8.453  20.681  0.00  0.00    +0.000 A 
ATOM     13  C   UNL     1       0.854   9.528  19.814  0.00  0.00    +0.000 A 
ATOM     14  C   UNL     1       0.280  10.714  20.284  0.00  0.00    +0.000 A 
ATOM     15  C   UNL     1      -0.046  10.837  21.633  0.00  0.00    +0.000 A 
ATOM     16 BR   UNL     1      -0.809  12.441  22.274  0.00  0.00    +0.000 Br
ATOM     17  C   UNL     1       0.185   9.782  22.509  0.00  0.00    +0.000 A 
ATOM     18  C   UNL     1       0.751   8.596  22.033  0.00  0.00    +0.000 A 
ENDBRANCH   4  12
BRANCH   8  19
ATOM     19  O   UNL     1       5.415   5.735  15.714  0.00  0.00    +0.000 OA
BRANCH  19  20
ATOM     20  C   UNL     1       6.819   5.895  15.935  0.00  0.00    +0.000 C 
BRANCH  20  21
ATOM     21  C   UNL     1       7.061   7.107  16.827  0.00  0.00    +0.000 C 
BRANCH  21  22
ATOM     22  C   UNL     1       7.671   6.658  18.154  0.00  0.00    +0.000 C 
BRANCH  22  23
ATOM     23  C   UNL     1       8.474   7.767  18.822  0.00  0.00    +0.000 C 
BRANCH  23  24
ATOM     24  C   UNL     1       8.338   9.078  18.040  0.00  0.00    +0.000 C 
BRANCH  24  25
ATOM     25  C   UNL     1       9.322  10.115  18.563  0.00  0.00    +0.000 C 
BRANCH  25  26
ATOM     26  C   UNL     1       8.821  11.561  18.418  0.00  0.00    +0.000 C 
BRANCH  26  27
ATOM     27  C   UNL     1       9.900  12.353  17.668  0.00  0.00    +0.000 C 
BRANCH  27  28
ATOM     28  N   UNL     1      10.167  13.736  18.095  0.00  0.00    +0.000 NA
ATOM     29  C   UNL     1      11.624  13.874  18.324  0.00  0.00    +0.000 C 
ATOM     30  C   UNL     1      11.817  13.502  19.782  0.00  0.00    +0.000 C 
ATOM     31  C   UNL     1      10.644  14.209  20.425  0.00  0.00    +0.000 C 
ATOM     32  C   UNL     1       9.537  14.116  19.375  0.00  0.00    +0.000 C 
ENDBRANCH  27  28
ENDBRANCH  26  27
ENDBRANCH  25  26
ENDBRANCH  24  25
ENDBRANCH  23  24
ENDBRANCH  22  23
ENDBRANCH  21  22
ENDBRANCH  20  21
ENDBRANCH  19  20
ENDBRANCH   8  19
TORSDOF 11
ENDMDL
MODEL 7
REMARK VINA RESULT:      -7.1      4.632      7.137
REMARK  Name = 
REMARK  11 active torsions:
REMARK  status: ('A' for Active; 'I' for Inactive)
REMARK    1  A    between atoms: C_4  and  C_5
REMARK    2  A    between atoms: C_15  and  O_16
REMARK    3  A    between atoms: O_16  and  C_17
REMARK    4  A    between atoms: C_17  and  C_18
REMARK    5  A    between atoms: C_18  and  C_19
REMARK    6  A    between atoms: C_19  and  C_20
REMARK    7  A    between atoms: C_20  and  C_21
REMARK    8  A    between atoms: C_21  and  C_22
REMARK    9  A    between atoms: C_22  and  C_23
REMARK   10  A    between atoms: C_23  and  C_24
REMARK   11  A    between atoms: C_24  and  N_25
REMARK                            x       y       z     vdW  Elec       q    Type
REMARK                         _______ _______ _______ _____ _____    ______ ____
ROOT
ATOM      1  O   UNL     1       1.223   3.390  20.262  0.00  0.00    +0.000 OA
ATOM      2  C   UNL     1       1.744   4.471  20.018  0.00  0.00    +0.000 A 
ATOM      3  C   UNL     1       1.146   5.725  20.493  0.00  0.00    +0.000 A 
ATOM      4  C   UNL     1       1.719   6.895  20.177  0.00  0.00    +0.000 A 
ATOM      5  O   UNL     1       2.875   7.010  19.413  0.00  0.00    +0.000 OA
ATOM      6  C   UNL     1       3.495   5.861  18.992  0.00  0.00    +0.000 A 
ATOM      7  C   UNL     1       4.685   5.996  18.273  0.00  0.00    +0.000 A 
ATOM      8  C   UNL     1       5.372   4.856  17.833  0.00  0.00    +0.000 A 
ATOM      9  C   UNL     1       4.854   3.589  18.115  0.00  0.00    +0.000 A 
ATOM     10  C   UNL     1       3.663   3.452  18.822  0.00  0.00    +0.000 A 
ATOM     11  C   UNL     1       2.991   4.592  19.258  0.00  0.00    +0.000 A 
ENDROOT
BRANCH   4  12
ATOM     12  C   UNL     1       1.169   8.179  20.666  0.00  0.00    +0.000 A 
ATOM     13  C   UNL     1       0.784   8.319  22.010  0.00  0.00    +0.000 A 
ATOM     14  C   UNL     1       0.243   9.518  22.484  0.00  0.00    +0.000 A 
ATOM     15  C   UNL     1       0.080  10.594  21.616  0.00  0.00    +0.000 A 
ATOM     16 BR   UNL     1      -0.663  12.211  22.249  0.00  0.00    +0.000 Br
ATOM     17  C   UNL     1       0.465  10.486  20.284  0.00  0.00    +0.000 A 
ATOM     18  C   UNL     1       1.013   9.287  19.816  0.00  0.00    +0.000 A 
ENDBRANCH   4  12
BRANCH   8  19
ATOM     19  O   UNL     1       6.530   5.105  17.144  0.00  0.00    +0.000 OA
BRANCH  19  20
ATOM     20  C   UNL     1       6.764   6.479  16.822  0.00  0.00    +0.000 C 
BRANCH  20  21
ATOM     21  C   UNL     1       7.845   7.041  17.738  0.00  0.00    +0.000 C 
BRANCH  21  22
ATOM     22  C   UNL     1       7.817   8.568  17.694  0.00  0.00    +0.000 C 
BRANCH  22  23
ATOM     23  C   UNL     1       8.823   9.190  18.653  0.00  0.00    +0.000 C 
BRANCH  23  24
ATOM     24  C   UNL     1       8.820  10.717  18.524  0.00  0.00    +0.000 C 
BRANCH  24  25
ATOM     25  C   UNL     1      10.232  11.268  18.673  0.00  0.00    +0.000 C 
BRANCH  25  26
ATOM     26  C   UNL     1      10.481  12.542  17.852  0.00  0.00    +0.000 C 
BRANCH  26  27
ATOM     27  C   UNL     1      10.081  13.741  18.724  0.00  0.00    +0.000 C 
BRANCH  27  28
ATOM     28  N   UNL     1      10.970  14.913  18.739  0.00  0.00    +0.000 NA
ATOM     29  C   UNL     1      10.128  16.129  18.817  0.00  0.00    +0.000 C 
ATOM     30  C   UNL     1       9.852  16.494  17.370  0.00  0.00    +0.000 C 
ATOM     31  C   UNL     1      11.212  16.272  16.745  0.00  0.00    +0.000 C 
ATOM     32  C   UNL     1      11.784  15.084  17.519  0.00  0.00    +0.000 C 
ENDBRANCH  27  28
ENDBRANCH  26  27
ENDBRANCH  25  26
ENDBRANCH  24  25
ENDBRANCH  23  24
ENDBRANCH  22  23
ENDBRANCH  21  22
ENDBRANCH  20  21
ENDBRANCH  19  20
ENDBRANCH   8  19
TORSDOF 11
ENDMDL
MODEL 8
REMARK VINA RESULT:      -7.1      1.217      1.572
REMARK  Name = 
REMARK  11 active torsions:
REMARK  status: ('A' for Active; 'I' for Inactive)
REMARK    1  A    between atoms: C_4  and  C_5
REMARK    2  A    between atoms: C_15  and  O_16
REMARK    3  A    between atoms: O_16  and  C_17
REMARK    4  A    between atoms: C_17  and  C_18
REMARK    5  A    between atoms: C_18  and  C_19
REMARK    6  A    between atoms: C_19  and  C_20
REMARK    7  A    between atoms: C_20  and  C_21
REMARK    8  A    between atoms: C_21  and  C_22
REMARK    9  A    between atoms: C_22  and  C_23
REMARK   10  A    between atoms: C_23  and  C_24
REMARK   11  A    between atoms: C_24  and  N_25
REMARK                            x       y       z     vdW  Elec       q    Type
REMARK                         _______ _______ _______ _____ _____    ______ ____
ROOT
ATOM      1  O   UNL     1       1.815  11.175  17.944  0.00  0.00    +0.000 OA
ATOM      2  C   UNL     1       1.360  10.809  19.021  0.00  0.00    +0.000 A 
ATOM      3  C   UNL     1       0.611  11.733  19.881  0.00  0.00    +0.000 A 
ATOM      4  C   UNL     1       0.160  11.315  21.071  0.00  0.00    +0.000 A 
ATOM      5  O   UNL     1       0.352  10.028  21.564  0.00  0.00    +0.000 OA
ATOM      6  C   UNL     1       1.001   9.117  20.770  0.00  0.00    +0.000 A 
ATOM      7  C   UNL     1       1.136   7.815  21.259  0.00  0.00    +0.000 A 
ATOM      8  C   UNL     1       1.775   6.837  20.484  0.00  0.00    +0.000 A 
ATOM      9  C   UNL     1       2.280   7.178  19.226  0.00  0.00    +0.000 A 
ATOM     10  C   UNL     1       2.157   8.477  18.741  0.00  0.00    +0.000 A 
ATOM     11  C   UNL     1       1.515   9.440  19.519  0.00  0.00    +0.000 A 
ENDROOT
BRANCH   4  12
ATOM     12  C   UNL     1      -0.631  12.204  21.952  0.00  0.00    +0.000 A 
ATOM     13  C   UNL     1      -0.312  13.568  22.051  0.00  0.00    +0.000 A 
ATOM     14  C   UNL     1      -1.034  14.419  22.894  0.00  0.00    +0.000 A 
ATOM     15  C   UNL     1      -2.087  13.911  23.651  0.00  0.00    +0.000 A 
ATOM     16 BR   UNL     1      -3.056  15.053  24.802  0.00  0.00    +0.000 Br
ATOM     17  C   UNL     1      -2.431  12.566  23.562  0.00  0.00    +0.000 A 
ATOM     18  C   UNL     1      -1.711  11.722  22.711  0.00  0.00    +0.000 A 
ENDBRANCH   4  12
BRANCH   8  19
ATOM     19  O   UNL     1       1.844   5.595  21.058  0.00  0.00    +0.000 OA
BRANCH  19  20
ATOM     20  C   UNL     1       2.293   4.547  20.195  0.00  0.00    +0.000 C 
BRANCH  20  21
ATOM     21  C   UNL     1       1.091   3.864  19.554  0.00  0.00    +0.000 C 
BRANCH  21  22
ATOM     22  C   UNL     1       1.536   3.093  18.312  0.00  0.00    +0.000 C 
BRANCH  22  23
ATOM     23  C   UNL     1       2.612   2.062  18.631  0.00  0.00    +0.000 C 
BRANCH  23  24
ATOM     24  C   UNL     1       3.748   2.133  17.604  0.00  0.00    +0.000 C 
BRANCH  24  25
ATOM     25  C   UNL     1       3.939   3.563  17.118  0.00  0.00    +0.000 C 
BRANCH  25  26
ATOM     26  C   UNL     1       4.968   3.690  15.984  0.00  0.00    +0.000 C 
BRANCH  26  27
ATOM     27  C   UNL     1       5.774   4.973  16.230  0.00  0.00    +0.000 C 
BRANCH  27  28
ATOM     28  N   UNL     1       5.724   5.575  17.572  0.00  0.00    +0.000 NA
ATOM     29  C   UNL     1       5.901   7.038  17.428  0.00  0.00    +0.000 C 
ATOM     30  C   UNL     1       7.401   7.250  17.508  0.00  0.00    +0.000 C 
ATOM     31  C   UNL     1       7.771   6.317  18.639  0.00  0.00    +0.000 C 
ATOM     32  C   UNL     1       6.806   5.143  18.480  0.00  0.00    +0.000 C 
ENDBRANCH  27  28
ENDBRANCH  26  27
ENDBRANCH  25  26
ENDBRANCH  24  25
ENDBRANCH  23  24
ENDBRANCH  22  23
ENDBRANCH  21  22
ENDBRANCH  20  21
ENDBRANCH  19  20
ENDBRANCH   8  19
TORSDOF 11
ENDMDL
MODEL 9
REMARK VINA RESULT:      -7.1      1.572      2.102
REMARK  Name = 
REMARK  11 active torsions:
REMARK  status: ('A' for Active; 'I' for Inactive)
REMARK    1  A    between atoms: C_4  and  C_5
REMARK    2  A    between atoms: C_15  and  O_16
REMARK    3  A    between atoms: O_16  and  C_17
REMARK    4  A    between atoms: C_17  and  C_18
REMARK    5  A    between atoms: C_18  and  C_19
REMARK    6  A    between atoms: C_19  and  C_20
REMARK    7  A    between atoms: C_20  and  C_21
REMARK    8  A    between atoms: C_21  and  C_22
REMARK    9  A    between atoms: C_22  and  C_23
REMARK   10  A    between atoms: C_23  and  C_24
REMARK   11  A    between atoms: C_24  and  N_25
REMARK                            x       y       z     vdW  Elec       q    Type
REMARK                         _______ _______ _______ _____ _____    ______ ____
ROOT
ATOM      1  O   UNL     1       2.007  10.516  17.312  0.00  0.00    +0.000 OA
ATOM      2  C   UNL     1       1.641  10.252  18.450  0.00  0.00    +0.000 A 
ATOM      3  C   UNL     1       1.031  11.276  19.307  0.00  0.00    +0.000 A 
ATOM      4  C   UNL     1       0.676  10.966  20.561  0.00  0.00    +0.000 A 
ATOM      5  O   UNL     1       0.846   9.706  21.126  0.00  0.00    +0.000 OA
ATOM      6  C   UNL     1       1.364   8.706  20.343  0.00  0.00    +0.000 A 
ATOM      7  C   UNL     1       1.475   7.434  20.910  0.00  0.00    +0.000 A 
ATOM      8  C   UNL     1       1.983   6.369  20.152  0.00  0.00    +0.000 A 
ATOM      9  C   UNL     1       2.380   6.594  18.831  0.00  0.00    +0.000 A 
ATOM     10  C   UNL     1       2.280   7.863  18.267  0.00  0.00    +0.000 A 
ATOM     11  C   UNL     1       1.770   8.912  19.029  0.00  0.00    +0.000 A 
ENDROOT
BRANCH   4  12
ATOM     12  C   UNL     1       0.024  11.958  21.446  0.00  0.00    +0.000 A 
ATOM     13  C   UNL     1       0.388  13.313  21.378  0.00  0.00    +0.000 A 
ATOM     14  C   UNL     1      -0.201  14.261  22.221  0.00  0.00    +0.000 A 
ATOM     15  C   UNL     1      -1.165  13.861  23.144  0.00  0.00    +0.000 A 
ATOM     16 BR   UNL     1      -1.954  15.137  24.293  0.00  0.00    +0.000 Br
ATOM     17  C   UNL     1      -1.553  12.528  23.221  0.00  0.00    +0.000 A 
ATOM     18  C   UNL     1      -0.966  11.586  22.371  0.00  0.00    +0.000 A 
ENDBRANCH   4  12
BRANCH   8  19
ATOM     19  O   UNL     1       2.041   5.167  20.806  0.00  0.00    +0.000 OA
BRANCH  19  20
ATOM     20  C   UNL     1       1.143   4.165  20.321  0.00  0.00    +0.000 C 
BRANCH  20  21
ATOM     21  C   UNL     1       1.073   3.015  21.320  0.00  0.00    +0.000 C 
BRANCH  21  22
ATOM     22  C   UNL     1       2.466   2.422  21.522  0.00  0.00    +0.000 C 
BRANCH  22  23
ATOM     23  C   UNL     1       3.168   2.138  20.201  0.00  0.00    +0.000 C 
BRANCH  23  24
ATOM     24  C   UNL     1       4.581   2.735  20.200  0.00  0.00    +0.000 C 
BRANCH  24  25
ATOM     25  C   UNL     1       4.764   3.671  19.014  0.00  0.00    +0.000 C 
BRANCH  25  26
ATOM     26  C   UNL     1       3.728   3.456  17.900  0.00  0.00    +0.000 C 
BRANCH  26  27
ATOM     27  C   UNL     1       4.360   3.922  16.582  0.00  0.00    +0.000 C 
BRANCH  27  28
ATOM     28  N   UNL     1       5.517   4.829  16.651  0.00  0.00    +0.000 NA
ATOM     29  C   UNL     1       5.287   5.942  15.701  0.00  0.00    +0.000 C 
ATOM     30  C   UNL     1       5.886   5.456  14.394  0.00  0.00    +0.000 C 
ATOM     31  C   UNL     1       7.169   4.817  14.876  0.00  0.00    +0.000 C 
ATOM     32  C   UNL     1       6.798   4.224  16.236  0.00  0.00    +0.000 C 
ENDBRANCH  27  28
ENDBRANCH  26  27
ENDBRANCH  25  26
ENDBRANCH  24  25
ENDBRANCH  23  24
ENDBRANCH  22  23
ENDBRANCH  21  22
ENDBRANCH  20  21
ENDBRANCH  19  20
ENDBRANCH   8  19
TORSDOF 11
ENDMDL
