MODEL 1
REMARK VINA RESULT:      -8.5      0.000      0.000
REMARK  Name = 
REMARK  11 active torsions:
REMARK  status: ('A' for Active; 'I' for Inactive)
REMARK    1  A    between atoms: C_1  and  O_2
REMARK    2  A    between atoms: O_2  and  C_3
REMARK    3  A    between atoms: C_6  and  C_7
REMARK    4  A    between atoms: N_9  and  C_10
REMARK    5  A    between atoms: C_10  and  C_11
REMARK    6  A    between atoms: C_10  and  C_15
REMARK    7  A    between atoms: C_11  and  C_12
REMARK    8  A    between atoms: C_12  and  O_14
REMARK    9  A    between atoms: C_18  and  C_19
REMARK   10  A    between atoms: C_23  and  C_24
REMARK   11  A    between atoms: C_27  and  C_28
REMARK                            x       y       z     vdW  Elec       q    Type
REMARK                         _______ _______ _______ _____ _____    ______ ____
ROOT
ATOM      1  C   UNL     1       1.512   8.258  20.522  0.00  0.00    +0.000 C 
ATOM      2  O   UNL     1       1.498   8.685  21.673  0.00  0.00    +0.000 OA
ATOM      3  N   UNL     1       1.083   9.022  19.449  0.00  0.00    +0.000 N 
ATOM      4  H   UNL     1       1.102   8.595  18.526  0.00  0.00    +0.000 HD
ENDROOT
BRANCH   1   8
ATOM      5  C   UNL     1       2.735   4.296  19.562  0.00  0.00    +0.000 A 
ATOM      6  C   UNL     1       1.881   4.511  20.645  0.00  0.00    +0.000 A 
ATOM      7  C   UNL     1       1.516   5.812  20.988  0.00  0.00    +0.000 A 
ATOM      8  C   UNL     1       1.985   6.864  20.213  0.00  0.00    +0.000 A 
ATOM      9  N   UNL     1       2.837   6.701  19.169  0.00  0.00    +0.000 NA
ATOM     10  C   UNL     1       3.217   5.420  18.861  0.00  0.00    +0.000 A 
BRANCH  10  11
ATOM     11  C   UNL     1       4.268   5.329  17.817  0.00  0.00    +0.000 A 
ATOM     12  C   UNL     1       4.095   4.437  16.738  0.00  0.00    +0.000 A 
ATOM     13  C   UNL     1       5.040   4.326  15.714  0.00  0.00    +0.000 A 
ATOM     14  C   UNL     1       6.197   5.105  15.738  0.00  0.00    +0.000 A 
ATOM     15  C   UNL     1       7.249   4.967  14.681  0.00  0.00    +0.000 C 
ATOM     16  C   UNL     1       6.368   6.006  16.789  0.00  0.00    +0.000 A 
ATOM     17  F   UNL     1       7.459   6.787  16.823  0.00  0.00    +0.000 F 
ATOM     18  C   UNL     1       5.430   6.115  17.818  0.00  0.00    +0.000 A 
ENDBRANCH  10  11
BRANCH   5  20
ATOM     19  C   UNL     1       4.049   2.342  19.915  0.00  0.00    +0.000 C 
ATOM     20  O   UNL     1       3.096   3.048  19.130  0.00  0.00    +0.000 OA
ENDBRANCH   5  20
ENDBRANCH   1   8
BRANCH   3  21
ATOM     21  C   UNL     1       0.515  10.360  19.634  0.00  0.00    +0.000 C 
BRANCH  21  22
ATOM     22  C   UNL     1      -0.760  10.501  18.814  0.00  0.00    +0.000 A 
ATOM     23  C   UNL     1      -1.024   9.736  17.669  0.00  0.00    +0.000 A 
ATOM     24  C   UNL     1      -2.191   9.945  16.917  0.00  0.00    +0.000 A 
ATOM     25  C   UNL     1      -3.127  10.903  17.304  0.00  0.00    +0.000 A 
ATOM     26  C   UNL     1      -4.351  11.170  16.477  0.00  0.00    +0.000 C 
ATOM     27  C   UNL     1      -2.890  11.649  18.463  0.00  0.00    +0.000 A 
ATOM     28  C   UNL     1      -1.724  11.445  19.209  0.00  0.00    +0.000 A 
ENDBRANCH  21  22
BRANCH  21  29
ATOM     29  C   UNL     1       1.586  11.441  19.419  0.00  0.00    +0.000 C 
BRANCH  29  30
ATOM     30  C   UNL     1       2.206  11.363  18.048  0.00  0.00    +0.000 C 
ATOM     31  O   UNL     1       2.557  10.318  17.517  0.00  0.00    +0.000 OA
BRANCH  30  32
ATOM     32  O   UNL     1       2.378  12.564  17.458  0.00  0.00    +0.000 OA
ATOM     33  H   UNL     1       1.930  13.305  17.913  0.00  0.00    +0.000 HD
ENDBRANCH  30  32
ENDBRANCH  29  30
ENDBRANCH  21  29
ENDBRANCH   3  21
TORSDOF 8
ENDMDL
MODEL 2
REMARK VINA RESULT:      -8.3      0.855      1.232
REMARK  Name = 
REMARK  11 active torsions:
REMARK  status: ('A' for Active; 'I' for Inactive)
REMARK    1  A    between atoms: C_1  and  O_2
REMARK    2  A    between atoms: O_2  and  C_3
REMARK    3  A    between atoms: C_6  and  C_7
REMARK    4  A    between atoms: N_9  and  C_10
REMARK    5  A    between atoms: C_10  and  C_11
REMARK    6  A    between atoms: C_10  and  C_15
REMARK    7  A    between atoms: C_11  and  C_12
REMARK    8  A    between atoms: C_12  and  O_14
REMARK    9  A    between atoms: C_18  and  C_19
REMARK   10  A    between atoms: C_23  and  C_24
REMARK   11  A    between atoms: C_27  and  C_28
REMARK                            x       y       z     vdW  Elec       q    Type
REMARK                         _______ _______ _______ _____ _____    ______ ____
ROOT
ATOM      1  C   UNL     1       1.489   8.411  20.606  0.00  0.00    +0.000 C 
ATOM      2  O   UNL     1       1.513   8.846  21.754  0.00  0.00    +0.000 OA
ATOM      3  N   UNL     1       1.068   9.183  19.536  0.00  0.00    +0.000 N 
ATOM      4  H   UNL     1       1.054   8.749  18.616  0.00  0.00    +0.000 HD
ENDROOT
BRANCH   1   8
ATOM      5  C   UNL     1       2.556   4.405  19.640  0.00  0.00    +0.000 A 
ATOM      6  C   UNL     1       1.613   4.645  20.640  0.00  0.00    +0.000 A 
ATOM      7  C   UNL     1       1.297   5.958  20.989  0.00  0.00    +0.000 A 
ATOM      8  C   UNL     1       1.904   6.998  20.300  0.00  0.00    +0.000 A 
ATOM      9  N   UNL     1       2.845   6.809  19.339  0.00  0.00    +0.000 NA
ATOM     10  C   UNL     1       3.174   5.514  19.027  0.00  0.00    +0.000 A 
BRANCH  10  11
ATOM     11  C   UNL     1       4.316   5.385  18.089  0.00  0.00    +0.000 A 
ATOM     12  C   UNL     1       4.175   5.840  16.761  0.00  0.00    +0.000 A 
ATOM     13  C   UNL     1       5.224   5.765  15.840  0.00  0.00    +0.000 A 
ATOM     14  C   UNL     1       6.453   5.224  16.217  0.00  0.00    +0.000 A 
ATOM     15  C   UNL     1       7.575   5.083  15.235  0.00  0.00    +0.000 C 
ATOM     16  C   UNL     1       6.610   4.789  17.533  0.00  0.00    +0.000 A 
ATOM     17  F   UNL     1       7.790   4.288  17.930  0.00  0.00    +0.000 F 
ATOM     18  C   UNL     1       5.563   4.856  18.454  0.00  0.00    +0.000 A 
ENDBRANCH  10  11
BRANCH   5  20
ATOM     19  C   UNL     1       1.827   2.355  18.674  0.00  0.00    +0.000 C 
ATOM     20  O   UNL     1       2.881   3.148  19.204  0.00  0.00    +0.000 OA
ENDBRANCH   5  20
ENDBRANCH   1   8
BRANCH   3  21
ATOM     21  C   UNL     1       0.554  10.542  19.721  0.00  0.00    +0.000 C 
BRANCH  21  22
ATOM     22  C   UNL     1      -0.727  10.726  18.921  0.00  0.00    +0.000 A 
ATOM     23  C   UNL     1      -1.713  11.666  19.256  0.00  0.00    +0.000 A 
ATOM     24  C   UNL     1      -2.902  11.757  18.516  0.00  0.00    +0.000 A 
ATOM     25  C   UNL     1      -3.122  10.931  17.414  0.00  0.00    +0.000 A 
ATOM     26  C   UNL     1      -4.413  10.984  16.649  0.00  0.00    +0.000 C 
ATOM     27  C   UNL     1      -2.132  10.013  17.051  0.00  0.00    +0.000 A 
ATOM     28  C   UNL     1      -0.949   9.918  17.792  0.00  0.00    +0.000 A 
ENDBRANCH  21  22
BRANCH  21  29
ATOM     29  C   UNL     1       1.661  11.580  19.483  0.00  0.00    +0.000 C 
BRANCH  29  30
ATOM     30  C   UNL     1       2.218  11.508  18.085  0.00  0.00    +0.000 C 
ATOM     31  O   UNL     1       2.558  10.466  17.539  0.00  0.00    +0.000 OA
BRANCH  30  32
ATOM     32  O   UNL     1       2.347  12.710  17.486  0.00  0.00    +0.000 OA
ATOM     33  H   UNL     1       3.251  12.909  17.172  0.00  0.00    +0.000 HD
ENDBRANCH  30  32
ENDBRANCH  29  30
ENDBRANCH  21  29
ENDBRANCH   3  21
TORSDOF 8
ENDMDL
MODEL 3
REMARK VINA RESULT:      -8.3      0.912      1.106
REMARK  Name = 
REMARK  11 active torsions:
REMARK  status: ('A' for Active; 'I' for Inactive)
REMARK    1  A    between atoms: C_1  and  O_2
REMARK    2  A    between atoms: O_2  and  C_3
REMARK    3  A    between atoms: C_6  and  C_7
REMARK    4  A    between atoms: N_9  and  C_10
REMARK    5  A    between atoms: C_10  and  C_11
REMARK    6  A    between atoms: C_10  and  C_15
REMARK    7  A    between atoms: C_11  and  C_12
REMARK    8  A    between atoms: C_12  and  O_14
REMARK    9  A    between atoms: C_18  and  C_19
REMARK   10  A    between atoms: C_23  and  C_24
REMARK   11  A    between atoms: C_27  and  C_28
REMARK                            x       y       z     vdW  Elec       q    Type
REMARK                         _______ _______ _______ _____ _____    ______ ____
ROOT
ATOM      1  C   UNL     1       1.513   8.463  20.363  0.00  0.00    +0.000 C 
ATOM      2  O   UNL     1       1.382   8.904  21.501  0.00  0.00    +0.000 OA
ATOM      3  N   UNL     1       1.232   9.227  19.242  0.00  0.00    +0.000 N 
ATOM      4  H   UNL     1       1.342   8.788  18.331  0.00  0.00    +0.000 HD
ENDROOT
BRANCH   1   8
ATOM      5  C   UNL     1       2.706   4.450  19.596  0.00  0.00    +0.000 A 
ATOM      6  C   UNL     1       1.850   4.723  20.664  0.00  0.00    +0.000 A 
ATOM      7  C   UNL     1       1.495   6.043  20.944  0.00  0.00    +0.000 A 
ATOM      8  C   UNL     1       1.975   7.053  20.123  0.00  0.00    +0.000 A 
ATOM      9  N   UNL     1       2.829   6.833  19.090  0.00  0.00    +0.000 NA
ATOM     10  C   UNL     1       3.199   5.536  18.844  0.00  0.00    +0.000 A 
BRANCH  10  11
ATOM     11  C   UNL     1       4.252   5.387  17.809  0.00  0.00    +0.000 A 
ATOM     12  C   UNL     1       4.050   4.488  16.741  0.00  0.00    +0.000 A 
ATOM     13  C   UNL     1       4.996   4.323  15.726  0.00  0.00    +0.000 A 
ATOM     14  C   UNL     1       6.184   5.054  15.747  0.00  0.00    +0.000 A 
ATOM     15  C   UNL     1       7.237   4.858  14.700  0.00  0.00    +0.000 C 
ATOM     16  C   UNL     1       6.386   5.962  16.787  0.00  0.00    +0.000 A 
ATOM     17  F   UNL     1       7.508   6.697  16.819  0.00  0.00    +0.000 F 
ATOM     18  C   UNL     1       5.446   6.124  17.808  0.00  0.00    +0.000 A 
ENDBRANCH  10  11
BRANCH   5  20
ATOM     19  C   UNL     1       3.997   2.502  20.048  0.00  0.00    +0.000 C 
ATOM     20  O   UNL     1       3.057   3.180  19.225  0.00  0.00    +0.000 OA
ENDBRANCH   5  20
ENDBRANCH   1   8
BRANCH   3  21
ATOM     21  C   UNL     1       0.687  10.583  19.349  0.00  0.00    +0.000 C 
BRANCH  21  22
ATOM     22  C   UNL     1      -0.682  10.647  18.688  0.00  0.00    +0.000 A 
ATOM     23  C   UNL     1      -1.037   9.862  17.582  0.00  0.00    +0.000 A 
ATOM     24  C   UNL     1      -2.295  10.001  16.976  0.00  0.00    +0.000 A 
ATOM     25  C   UNL     1      -3.232  10.906  17.474  0.00  0.00    +0.000 A 
ATOM     26  C   UNL     1      -4.560  11.099  16.800  0.00  0.00    +0.000 C 
ATOM     27  C   UNL     1      -2.901  11.670  18.597  0.00  0.00    +0.000 A 
ATOM     28  C   UNL     1      -1.645  11.536  19.198  0.00  0.00    +0.000 A 
ENDBRANCH  21  22
BRANCH  21  29
ATOM     29  C   UNL     1       1.719  11.622  18.882  0.00  0.00    +0.000 C 
BRANCH  29  30
ATOM     30  C   UNL     1       1.810  12.796  19.821  0.00  0.00    +0.000 C 
ATOM     31  O   UNL     1       1.978  13.951  19.455  0.00  0.00    +0.000 OA
BRANCH  30  32
ATOM     32  O   UNL     1       1.723  12.459  21.126  0.00  0.00    +0.000 OA
ATOM     33  H   UNL     1       0.856  12.093  21.390  0.00  0.00    +0.000 HD
ENDBRANCH  30  32
ENDBRANCH  29  30
ENDBRANCH  21  29
ENDBRANCH   3  21
TORSDOF 8
ENDMDL
MODEL 4
REMARK VINA RESULT:      -8.2      1.294      1.605
REMARK  Name = 
REMARK  11 active torsions:
REMARK  status: ('A' for Active; 'I' for Inactive)
REMARK    1  A    between atoms: C_1  and  O_2
REMARK    2  A    between atoms: O_2  and  C_3
REMARK    3  A    between atoms: C_6  and  C_7
REMARK    4  A    between atoms: N_9  and  C_10
REMARK    5  A    between atoms: C_10  and  C_11
REMARK    6  A    between atoms: C_10  and  C_15
REMARK    7  A    between atoms: C_11  and  C_12
REMARK    8  A    between atoms: C_12  and  O_14
REMARK    9  A    between atoms: C_18  and  C_19
REMARK   10  A    between atoms: C_23  and  C_24
REMARK   11  A    between atoms: C_27  and  C_28
REMARK                            x       y       z     vdW  Elec       q    Type
REMARK                         _______ _______ _______ _____ _____    ______ ____
ROOT
ATOM      1  C   UNL     1       1.484   8.551  20.304  0.00  0.00    +0.000 C 
ATOM      2  O   UNL     1       1.475   9.024  21.437  0.00  0.00    +0.000 OA
ATOM      3  N   UNL     1       1.071   9.279  19.200  0.00  0.00    +0.000 N 
ATOM      4  H   UNL     1       1.084   8.815  18.295  0.00  0.00    +0.000 HD
ENDROOT
BRANCH   1   8
ATOM      5  C   UNL     1       2.632   4.528  19.519  0.00  0.00    +0.000 A 
ATOM      6  C   UNL     1       1.879   4.821  20.658  0.00  0.00    +0.000 A 
ATOM      7  C   UNL     1       1.541   6.144  20.939  0.00  0.00    +0.000 A 
ATOM      8  C   UNL     1       1.933   7.138  20.053  0.00  0.00    +0.000 A 
ATOM      9  N   UNL     1       2.687   6.899  18.949  0.00  0.00    +0.000 NA
ATOM     10  C   UNL     1       3.043   5.599  18.700  0.00  0.00    +0.000 A 
BRANCH  10  11
ATOM     11  C   UNL     1       3.994   5.432  17.573  0.00  0.00    +0.000 A 
ATOM     12  C   UNL     1       4.513   6.576  16.931  0.00  0.00    +0.000 A 
ATOM     13  C   UNL     1       5.429   6.481  15.880  0.00  0.00    +0.000 A 
ATOM     14  C   UNL     1       5.856   5.231  15.431  0.00  0.00    +0.000 A 
ATOM     15  C   UNL     1       6.796   5.100  14.272  0.00  0.00    +0.000 C 
ATOM     16  C   UNL     1       5.366   4.093  16.072  0.00  0.00    +0.000 A 
ATOM     17  F   UNL     1       5.780   2.879  15.679  0.00  0.00    +0.000 F 
ATOM     18  C   UNL     1       4.445   4.184  17.118  0.00  0.00    +0.000 A 
ENDBRANCH  10  11
BRANCH   5  20
ATOM     19  C   UNL     1       3.724   2.484  20.065  0.00  0.00    +0.000 C 
ATOM     20  O   UNL     1       2.957   3.252  19.145  0.00  0.00    +0.000 OA
ENDBRANCH   5  20
ENDBRANCH   1   8
BRANCH   3  21
ATOM     21  C   UNL     1       0.526  10.633  19.330  0.00  0.00    +0.000 C 
BRANCH  21  22
ATOM     22  C   UNL     1      -0.837  10.711  18.657  0.00  0.00    +0.000 A 
ATOM     23  C   UNL     1      -1.185   9.944  17.537  0.00  0.00    +0.000 A 
ATOM     24  C   UNL     1      -2.436  10.095  16.921  0.00  0.00    +0.000 A 
ATOM     25  C   UNL     1      -3.375  10.996  17.423  0.00  0.00    +0.000 A 
ATOM     26  C   UNL     1      -4.695  11.203  16.740  0.00  0.00    +0.000 C 
ATOM     27  C   UNL     1      -3.052  11.743  18.560  0.00  0.00    +0.000 A 
ATOM     28  C   UNL     1      -1.801  11.596  19.171  0.00  0.00    +0.000 A 
ENDBRANCH  21  22
BRANCH  21  29
ATOM     29  C   UNL     1       1.562  11.680  18.894  0.00  0.00    +0.000 C 
BRANCH  29  30
ATOM     30  C   UNL     1       1.910  12.635  20.006  0.00  0.00    +0.000 C 
ATOM     31  O   UNL     1       2.479  13.705  19.834  0.00  0.00    +0.000 OA
BRANCH  30  32
ATOM     32  O   UNL     1       1.567  12.191  21.233  0.00  0.00    +0.000 OA
ATOM     33  H   UNL     1       2.009  12.660  21.969  0.00  0.00    +0.000 HD
ENDBRANCH  30  32
ENDBRANCH  29  30
ENDBRANCH  21  29
ENDBRANCH   3  21
TORSDOF 8
ENDMDL
MODEL 5
REMARK VINA RESULT:      -8.1      1.023      1.618
REMARK  Name = 
REMARK  11 active torsions:
REMARK  status: ('A' for Active; 'I' for Inactive)
REMARK    1  A    between atoms: C_1  and  O_2
REMARK    2  A    between atoms: O_2  and  C_3
REMARK    3  A    between atoms: C_6  and  C_7
REMARK    4  A    between atoms: N_9  and  C_10
REMARK    5  A    between atoms: C_10  and  C_11
REMARK    6  A    between atoms: C_10  and  C_15
REMARK    7  A    between atoms: C_11  and  C_12
REMARK    8  A    between atoms: C_12  and  O_14
REMARK    9  A    between atoms: C_18  and  C_19
REMARK   10  A    between atoms: C_23  and  C_24
REMARK   11  A    between atoms: C_27  and  C_28
REMARK                            x       y       z     vdW  Elec       q    Type
REMARK                         _______ _______ _______ _____ _____    ______ ____
ROOT
ATOM      1  C   UNL     1       1.452   8.215  20.589  0.00  0.00    +0.000 C 
ATOM      2  O   UNL     1       1.455   8.573  21.763  0.00  0.00    +0.000 OA
ATOM      3  N   UNL     1       1.051   9.057  19.565  0.00  0.00    +0.000 N 
ATOM      4  H   UNL     1       1.053   8.685  18.618  0.00  0.00    +0.000 HD
ENDROOT
BRANCH   1   8
ATOM      5  C   UNL     1       2.521   4.270  19.400  0.00  0.00    +0.000 A 
ATOM      6  C   UNL     1       1.746   4.459  20.545  0.00  0.00    +0.000 A 
ATOM      7  C   UNL     1       1.433   5.753  20.960  0.00  0.00    +0.000 A 
ATOM      8  C   UNL     1       1.873   6.826  20.197  0.00  0.00    +0.000 A 
ATOM      9  N   UNL     1       2.650   6.687  19.092  0.00  0.00    +0.000 NA
ATOM     10  C   UNL     1       2.980   5.412  18.711  0.00  0.00    +0.000 A 
BRANCH  10  11
ATOM     11  C   UNL     1       3.957   5.342  17.596  0.00  0.00    +0.000 A 
ATOM     12  C   UNL     1       4.428   6.537  17.014  0.00  0.00    +0.000 A 
ATOM     13  C   UNL     1       5.365   6.533  15.976  0.00  0.00    +0.000 A 
ATOM     14  C   UNL     1       5.861   5.327  15.482  0.00  0.00    +0.000 A 
ATOM     15  C   UNL     1       6.825   5.293  14.336  0.00  0.00    +0.000 C 
ATOM     16  C   UNL     1       5.417   4.139  16.064  0.00  0.00    +0.000 A 
ATOM     17  F   UNL     1       5.897   2.965  15.625  0.00  0.00    +0.000 F 
ATOM     18  C   UNL     1       4.476   4.138  17.095  0.00  0.00    +0.000 A 
ENDBRANCH  10  11
BRANCH   5  20
ATOM     19  C   UNL     1       1.749   2.117  18.741  0.00  0.00    +0.000 C 
ATOM     20  O   UNL     1       2.825   3.034  18.897  0.00  0.00    +0.000 OA
ENDBRANCH   5  20
ENDBRANCH   1   8
BRANCH   3  21
ATOM     21  C   UNL     1       0.533  10.401  19.830  0.00  0.00    +0.000 C 
BRANCH  21  22
ATOM     22  C   UNL     1      -0.696  10.665  18.971  0.00  0.00    +0.000 A 
ATOM     23  C   UNL     1      -1.645  11.652  19.271  0.00  0.00    +0.000 A 
ATOM     24  C   UNL     1      -2.789  11.816  18.476  0.00  0.00    +0.000 A 
ATOM     25  C   UNL     1      -2.998  11.016  17.352  0.00  0.00    +0.000 A 
ATOM     26  C   UNL     1      -4.245  11.149  16.526  0.00  0.00    +0.000 C 
ATOM     27  C   UNL     1      -2.041  10.051  17.024  0.00  0.00    +0.000 A 
ATOM     28  C   UNL     1      -0.903   9.883  17.821  0.00  0.00    +0.000 A 
ENDBRANCH  21  22
BRANCH  21  29
ATOM     29  C   UNL     1       1.658  11.445  19.747  0.00  0.00    +0.000 C 
BRANCH  29  30
ATOM     30  C   UNL     1       1.939  11.867  18.329  0.00  0.00    +0.000 C 
ATOM     31  O   UNL     1       1.796  13.010  17.916  0.00  0.00    +0.000 OA
BRANCH  30  32
ATOM     32  O   UNL     1       2.337  10.857  17.527  0.00  0.00    +0.000 OA
ATOM     33  H   UNL     1       1.604  10.338  17.140  0.00  0.00    +0.000 HD
ENDBRANCH  30  32
ENDBRANCH  29  30
ENDBRANCH  21  29
ENDBRANCH   3  21
TORSDOF 8
ENDMDL
MODEL 6
REMARK VINA RESULT:      -8.0      0.918      1.275
REMARK  Name = 
REMARK  11 active torsions:
REMARK  status: ('A' for Active; 'I' for Inactive)
REMARK    1  A    between atoms: C_1  and  O_2
REMARK    2  A    between atoms: O_2  and  C_3
REMARK    3  A    between atoms: C_6  and  C_7
REMARK    4  A    between atoms: N_9  and  C_10
REMARK    5  A    between atoms: C_10  and  C_11
REMARK    6  A    between atoms: C_10  and  C_15
REMARK    7  A    between atoms: C_11  and  C_12
REMARK    8  A    between atoms: C_12  and  O_14
REMARK    9  A    between atoms: C_18  and  C_19
REMARK   10  A    between atoms: C_23  and  C_24
REMARK   11  A    between atoms: C_27  and  C_28
REMARK                            x       y       z     vdW  Elec       q    Type
REMARK                         _______ _______ _______ _____ _____    ______ ____
ROOT
ATOM      1  C   UNL     1       1.434   8.465  20.596  0.00  0.00    +0.000 C 
ATOM      2  O   UNL     1       1.513   8.888  21.746  0.00  0.00    +0.000 OA
ATOM      3  N   UNL     1       0.972   9.252  19.554  0.00  0.00    +0.000 N 
ATOM      4  H   UNL     1       0.913   8.828  18.631  0.00  0.00    +0.000 HD
ENDROOT
BRANCH   1   8
ATOM      5  C   UNL     1       2.418   4.458  19.551  0.00  0.00    +0.000 A 
ATOM      6  C   UNL     1       1.599   4.701  20.655  0.00  0.00    +0.000 A 
ATOM      7  C   UNL     1       1.313   6.015  21.025  0.00  0.00    +0.000 A 
ATOM      8  C   UNL     1       1.823   7.053  20.257  0.00  0.00    +0.000 A 
ATOM      9  N   UNL     1       2.644   6.860  19.192  0.00  0.00    +0.000 NA
ATOM     10  C   UNL     1       2.947   5.565  18.857  0.00  0.00    +0.000 A 
BRANCH  10  11
ATOM     11  C   UNL     1       3.969   5.434  17.790  0.00  0.00    +0.000 A 
ATOM     12  C   UNL     1       4.767   4.272  17.735  0.00  0.00    +0.000 A 
ATOM     13  C   UNL     1       5.730   4.084  16.740  0.00  0.00    +0.000 A 
ATOM     14  C   UNL     1       5.930   5.059  15.762  0.00  0.00    +0.000 A 
ATOM     15  C   UNL     1       6.990   4.906  14.716  0.00  0.00    +0.000 C 
ATOM     16  C   UNL     1       5.132   6.203  15.794  0.00  0.00    +0.000 A 
ATOM     17  F   UNL     1       5.285   7.145  14.851  0.00  0.00    +0.000 F 
ATOM     18  C   UNL     1       4.174   6.398  16.791  0.00  0.00    +0.000 A 
ENDBRANCH  10  11
BRANCH   5  20
ATOM     19  C   UNL     1       1.608   2.424  18.616  0.00  0.00    +0.000 C 
ATOM     20  O   UNL     1       2.701   3.199  19.093  0.00  0.00    +0.000 OA
ENDBRANCH   5  20
ENDBRANCH   1   8
BRANCH   3  21
ATOM     21  C   UNL     1       0.478  10.613  19.776  0.00  0.00    +0.000 C 
BRANCH  21  22
ATOM     22  C   UNL     1      -0.837  10.815  19.036  0.00  0.00    +0.000 A 
ATOM     23  C   UNL     1      -1.800  11.756  19.427  0.00  0.00    +0.000 A 
ATOM     24  C   UNL     1      -3.020  11.864  18.743  0.00  0.00    +0.000 A 
ATOM     25  C   UNL     1      -3.295  11.053  17.642  0.00  0.00    +0.000 A 
ATOM     26  C   UNL     1      -4.619  11.124  16.937  0.00  0.00    +0.000 C 
ATOM     27  C   UNL     1      -2.329  10.134  17.223  0.00  0.00    +0.000 A 
ATOM     28  C   UNL     1      -1.114  10.022  17.908  0.00  0.00    +0.000 A 
ENDBRANCH  21  22
BRANCH  21  29
ATOM     29  C   UNL     1       1.582  11.645  19.497  0.00  0.00    +0.000 C 
BRANCH  29  30
ATOM     30  C   UNL     1       2.160  11.501  18.114  0.00  0.00    +0.000 C 
ATOM     31  O   UNL     1       2.428  10.426  17.595  0.00  0.00    +0.000 OA
BRANCH  30  32
ATOM     32  O   UNL     1       2.394  12.678  17.495  0.00  0.00    +0.000 OA
ATOM     33  H   UNL     1       2.140  12.693  16.551  0.00  0.00    +0.000 HD
ENDBRANCH  30  32
ENDBRANCH  29  30
ENDBRANCH  21  29
ENDBRANCH   3  21
TORSDOF 8
ENDMDL
MODEL 7
REMARK VINA RESULT:      -8.0      0.991      1.381
REMARK  Name = 
REMARK  11 active torsions:
REMARK  status: ('A' for Active; 'I' for Inactive)
REMARK    1  A    between atoms: C_1  and  O_2
REMARK    2  A    between atoms: O_2  and  C_3
REMARK    3  A    between atoms: C_6  and  C_7
REMARK    4  A    between atoms: N_9  and  C_10
REMARK    5  A    between atoms: C_10  and  C_11
REMARK    6  A    between atoms: C_10  and  C_15
REMARK    7  A    between atoms: C_11  and  C_12
REMARK    8  A    between atoms: C_12  and  O_14
REMARK    9  A    between atoms: C_18  and  C_19
REMARK   10  A    between atoms: C_23  and  C_24
REMARK   11  A    between atoms: C_27  and  C_28
REMARK                            x       y       z     vdW  Elec       q    Type
REMARK                         _______ _______ _______ _____ _____    ______ ____
ROOT
ATOM      1  C   UNL     1       1.513   8.494  20.458  0.00  0.00    +0.000 C 
ATOM      2  O   UNL     1       1.484   8.938  21.602  0.00  0.00    +0.000 OA
ATOM      3  N   UNL     1       1.147   9.260  19.363  0.00  0.00    +0.000 N 
ATOM      4  H   UNL     1       1.174   8.819  18.447  0.00  0.00    +0.000 HD
ENDROOT
BRANCH   1   8
ATOM      5  C   UNL     1       2.600   4.472  19.588  0.00  0.00    +0.000 A 
ATOM      6  C   UNL     1       1.739   4.739  20.654  0.00  0.00    +0.000 A 
ATOM      7  C   UNL     1       1.418   6.059  20.967  0.00  0.00    +0.000 A 
ATOM      8  C   UNL     1       1.937   7.078  20.182  0.00  0.00    +0.000 A 
ATOM      9  N   UNL     1       2.799   6.864  19.154  0.00  0.00    +0.000 NA
ATOM     10  C   UNL     1       3.134   5.564  18.875  0.00  0.00    +0.000 A 
BRANCH  10  11
ATOM     11  C   UNL     1       4.195   5.415  17.849  0.00  0.00    +0.000 A 
ATOM     12  C   UNL     1       4.005   4.510  16.783  0.00  0.00    +0.000 A 
ATOM     13  C   UNL     1       4.960   4.344  15.776  0.00  0.00    +0.000 A 
ATOM     14  C   UNL     1       6.145   5.079  15.804  0.00  0.00    +0.000 A 
ATOM     15  C   UNL     1       7.207   4.883  14.766  0.00  0.00    +0.000 C 
ATOM     16  C   UNL     1       6.335   5.992  16.841  0.00  0.00    +0.000 A 
ATOM     17  F   UNL     1       7.454   6.732  16.878  0.00  0.00    +0.000 F 
ATOM     18  C   UNL     1       5.387   6.155  17.853  0.00  0.00    +0.000 A 
ENDBRANCH  10  11
BRANCH   5  20
ATOM     19  C   UNL     1       3.814   2.468  20.009  0.00  0.00    +0.000 C 
ATOM     20  O   UNL     1       2.919   3.203  19.184  0.00  0.00    +0.000 OA
ENDBRANCH   5  20
ENDBRANCH   1   8
BRANCH   3  21
ATOM     21  C   UNL     1       0.628  10.622  19.514  0.00  0.00    +0.000 C 
BRANCH  21  22
ATOM     22  C   UNL     1      -0.709  10.751  18.799  0.00  0.00    +0.000 A 
ATOM     23  C   UNL     1      -1.717  11.635  19.210  0.00  0.00    +0.000 A 
ATOM     24  C   UNL     1      -2.953  11.675  18.549  0.00  0.00    +0.000 A 
ATOM     25  C   UNL     1      -3.203  10.852  17.451  0.00  0.00    +0.000 A 
ATOM     26  C   UNL     1      -4.541  10.849  16.770  0.00  0.00    +0.000 C 
ATOM     27  C   UNL     1      -2.194   9.990  17.011  0.00  0.00    +0.000 A 
ATOM     28  C   UNL     1      -0.962   9.946  17.674  0.00  0.00    +0.000 A 
ENDBRANCH  21  22
BRANCH  21  29
ATOM     29  C   UNL     1       1.702  11.657  19.142  0.00  0.00    +0.000 C 
BRANCH  29  30
ATOM     30  C   UNL     1       1.678  12.855  20.055  0.00  0.00    +0.000 C 
ATOM     31  O   UNL     1       2.184  12.874  21.168  0.00  0.00    +0.000 OA
BRANCH  30  32
ATOM     32  O   UNL     1       1.010  13.913  19.549  0.00  0.00    +0.000 OA
ATOM     33  H   UNL     1       0.217  13.677  19.028  0.00  0.00    +0.000 HD
ENDBRANCH  30  32
ENDBRANCH  29  30
ENDBRANCH  21  29
ENDBRANCH   3  21
TORSDOF 8
ENDMDL
MODEL 8
REMARK VINA RESULT:      -8.0      1.362      1.838
REMARK  Name = 
REMARK  11 active torsions:
REMARK  status: ('A' for Active; 'I' for Inactive)
REMARK    1  A    between atoms: C_1  and  O_2
REMARK    2  A    between atoms: O_2  and  C_3
REMARK    3  A    between atoms: C_6  and  C_7
REMARK    4  A    between atoms: N_9  and  C_10
REMARK    5  A    between atoms: C_10  and  C_11
REMARK    6  A    between atoms: C_10  and  C_15
REMARK    7  A    between atoms: C_11  and  C_12
REMARK    8  A    between atoms: C_12  and  O_14
REMARK    9  A    between atoms: C_18  and  C_19
REMARK   10  A    between atoms: C_23  and  C_24
REMARK   11  A    between atoms: C_27  and  C_28
REMARK                            x       y       z     vdW  Elec       q    Type
REMARK                         _______ _______ _______ _____ _____    ______ ____
ROOT
ATOM      1  C   UNL     1       1.479   8.530  20.371  0.00  0.00    +0.000 C 
ATOM      2  O   UNL     1       1.482   8.956  21.522  0.00  0.00    +0.000 OA
ATOM      3  N   UNL     1       1.112   9.321  19.294  0.00  0.00    +0.000 N 
ATOM      4  H   UNL     1       1.111   8.894  18.371  0.00  0.00    +0.000 HD
ENDROOT
BRANCH   1   8
ATOM      5  C   UNL     1       2.444   4.493  19.427  0.00  0.00    +0.000 A 
ATOM      6  C   UNL     1       1.671   4.772  20.556  0.00  0.00    +0.000 A 
ATOM      7  C   UNL     1       1.393   6.097  20.890  0.00  0.00    +0.000 A 
ATOM      8  C   UNL     1       1.863   7.108  20.065  0.00  0.00    +0.000 A 
ATOM      9  N   UNL     1       2.639   6.882  18.974  0.00  0.00    +0.000 NA
ATOM     10  C   UNL     1       2.936   5.577  18.673  0.00  0.00    +0.000 A 
BRANCH  10  11
ATOM     11  C   UNL     1       3.913   5.414  17.568  0.00  0.00    +0.000 A 
ATOM     12  C   UNL     1       4.421   6.558  16.919  0.00  0.00    +0.000 A 
ATOM     13  C   UNL     1       5.360   6.466  15.888  0.00  0.00    +0.000 A 
ATOM     14  C   UNL     1       5.821   5.219  15.467  0.00  0.00    +0.000 A 
ATOM     15  C   UNL     1       6.788   5.089  14.330  0.00  0.00    +0.000 C 
ATOM     16  C   UNL     1       5.341   4.081  16.116  0.00  0.00    +0.000 A 
ATOM     17  F   UNL     1       5.787   2.869  15.749  0.00  0.00    +0.000 F 
ATOM     18  C   UNL     1       4.398   4.168  17.141  0.00  0.00    +0.000 A 
ENDBRANCH  10  11
BRANCH   5  20
ATOM     19  C   UNL     1       1.741   2.223  19.284  0.00  0.00    +0.000 C 
ATOM     20  O   UNL     1       2.715   3.220  19.002  0.00  0.00    +0.000 OA
ENDBRANCH   5  20
ENDBRANCH   1   8
BRANCH   3  21
ATOM     21  C   UNL     1       0.631  10.693  19.475  0.00  0.00    +0.000 C 
BRANCH  21  22
ATOM     22  C   UNL     1      -0.755  10.843  18.863  0.00  0.00    +0.000 A 
ATOM     23  C   UNL     1      -1.706  11.760  19.332  0.00  0.00    +0.000 A 
ATOM     24  C   UNL     1      -2.989  11.819  18.767  0.00  0.00    +0.000 A 
ATOM     25  C   UNL     1      -3.341  10.983  17.707  0.00  0.00    +0.000 A 
ATOM     26  C   UNL     1      -4.728  11.002  17.131  0.00  0.00    +0.000 C 
ATOM     27  C   UNL     1      -2.390  10.088  17.209  0.00  0.00    +0.000 A 
ATOM     28  C   UNL     1      -1.112  10.024  17.777  0.00  0.00    +0.000 A 
ENDBRANCH  21  22
BRANCH  21  29
ATOM     29  C   UNL     1       1.691  11.707  19.018  0.00  0.00    +0.000 C 
BRANCH  29  30
ATOM     30  C   UNL     1       1.987  12.738  20.075  0.00  0.00    +0.000 C 
ATOM     31  O   UNL     1       1.491  12.729  21.194  0.00  0.00    +0.000 OA
BRANCH  30  32
ATOM     32  O   UNL     1       2.831  13.710  19.669  0.00  0.00    +0.000 OA
ATOM     33  H   UNL     1       2.969  14.422  20.324  0.00  0.00    +0.000 HD
ENDBRANCH  30  32
ENDBRANCH  29  30
ENDBRANCH  21  29
ENDBRANCH   3  21
TORSDOF 8
ENDMDL
MODEL 9
REMARK VINA RESULT:      -8.0      2.516      3.495
REMARK  Name = 
REMARK  11 active torsions:
REMARK  status: ('A' for Active; 'I' for Inactive)
REMARK    1  A    between atoms: C_1  and  O_2
REMARK    2  A    between atoms: O_2  and  C_3
REMARK    3  A    between atoms: C_6  and  C_7
REMARK    4  A    between atoms: N_9  and  C_10
REMARK    5  A    between atoms: C_10  and  C_11
REMARK    6  A    between atoms: C_10  and  C_15
REMARK    7  A    between atoms: C_11  and  C_12
REMARK    8  A    between atoms: C_12  and  O_14
REMARK    9  A    between atoms: C_18  and  C_19
REMARK   10  A    between atoms: C_23  and  C_24
REMARK   11  A    between atoms: C_27  and  C_28
REMARK                            x       y       z     vdW  Elec       q    Type
REMARK                         _______ _______ _______ _____ _____    ______ ____
ROOT
ATOM      1  C   UNL     1       1.004   9.981  19.269  0.00  0.00    +0.000 C 
ATOM      2  O   UNL     1       1.719  10.819  18.727  0.00  0.00    +0.000 OA
ATOM      3  N   UNL     1      -0.291  10.268  19.669  0.00  0.00    +0.000 N 
ATOM      4  H   UNL     1      -0.818   9.531  20.132  0.00  0.00    +0.000 HD
ENDROOT
BRANCH   1   8
ATOM      5  C   UNL     1       2.298   5.991  19.994  0.00  0.00    +0.000 A 
ATOM      6  C   UNL     1       1.565   6.667  20.971  0.00  0.00    +0.000 A 
ATOM      7  C   UNL     1       1.180   7.990  20.753  0.00  0.00    +0.000 A 
ATOM      8  C   UNL     1       1.504   8.590  19.545  0.00  0.00    +0.000 A 
ATOM      9  N   UNL     1       2.237   7.978  18.579  0.00  0.00    +0.000 NA
ATOM     10  C   UNL     1       2.640   6.689  18.818  0.00  0.00    +0.000 A 
BRANCH  10  11
ATOM     11  C   UNL     1       3.566   6.140  17.796  0.00  0.00    +0.000 A 
ATOM     12  C   UNL     1       4.336   7.026  17.014  0.00  0.00    +0.000 A 
ATOM     13  C   UNL     1       5.241   6.566  16.053  0.00  0.00    +0.000 A 
ATOM     14  C   UNL     1       5.403   5.197  15.838  0.00  0.00    +0.000 A 
ATOM     15  C   UNL     1       6.326   4.679  14.779  0.00  0.00    +0.000 C 
ATOM     16  C   UNL     1       4.661   4.311  16.621  0.00  0.00    +0.000 A 
ATOM     17  F   UNL     1       4.816   2.989  16.454  0.00  0.00    +0.000 F 
ATOM     18  C   UNL     1       3.751   4.767  17.576  0.00  0.00    +0.000 A 
ENDBRANCH  10  11
BRANCH   5  20
ATOM     19  C   UNL     1       2.313   4.011  21.316  0.00  0.00    +0.000 C 
ATOM     20  O   UNL     1       2.666   4.678  20.110  0.00  0.00    +0.000 OA
ENDBRANCH   5  20
ENDBRANCH   1   8
BRANCH   3  21
ATOM     21  C   UNL     1      -0.858  11.612  19.538  0.00  0.00    +0.000 C 
BRANCH  21  22
ATOM     22  C   UNL     1      -1.673  11.956  20.777  0.00  0.00    +0.000 A 
ATOM     23  C   UNL     1      -1.274  11.612  22.076  0.00  0.00    +0.000 A 
ATOM     24  C   UNL     1      -2.089  11.905  23.180  0.00  0.00    +0.000 A 
ATOM     25  C   UNL     1      -3.306  12.566  23.014  0.00  0.00    +0.000 A 
ATOM     26  C   UNL     1      -4.210  12.835  24.182  0.00  0.00    +0.000 C 
ATOM     27  C   UNL     1      -3.699  12.943  21.726  0.00  0.00    +0.000 A 
ATOM     28  C   UNL     1      -2.888  12.647  20.624  0.00  0.00    +0.000 A 
ENDBRANCH  21  22
BRANCH  21  29
ATOM     29  C   UNL     1      -1.574  11.772  18.187  0.00  0.00    +0.000 C 
BRANCH  29  30
ATOM     30  C   UNL     1      -2.128  10.466  17.678  0.00  0.00    +0.000 C 
ATOM     31  O   UNL     1      -3.148   9.944  18.109  0.00  0.00    +0.000 OA
BRANCH  30  32
ATOM     32  O   UNL     1      -1.376   9.892  16.716  0.00  0.00    +0.000 OA
ATOM     33  H   UNL     1      -1.296  10.420  15.898  0.00  0.00    +0.000 HD
ENDBRANCH  30  32
ENDBRANCH  29  30
ENDBRANCH  21  29
ENDBRANCH   3  21
TORSDOF 8
ENDMDL
