MODEL 1
REMARK VINA RESULT:      -7.8      0.000      0.000
REMARK  Name = 
REMARK  4 active torsions:
REMARK  status: ('A' for Active; 'I' for Inactive)
REMARK    1  A    between atoms: C_1  and  C_2
REMARK    2  A    between atoms: C_3  and  C_4
REMARK    3  A    between atoms: N_14  and  C_15
REMARK    4  A    between atoms: C_15  and  C_16
REMARK                            x       y       z     vdW  Elec       q    Type
REMARK                         _______ _______ _______ _____ _____    ______ ____
ROOT
ATOM      1  C   UNL     1       4.895   3.140  17.694  0.00  0.00    +0.000 C 
ATOM      2  C   UNL     1       4.630   4.626  17.544  0.00  0.00    +0.000 A 
ATOM      3  C   UNL     1       3.536   5.205  18.111  0.00  0.00    +0.000 A 
ATOM      4  C   UNL     1       3.296   6.670  17.876  0.00  0.00    +0.000 A 
ATOM      5  O   UNL     1       2.302   7.259  18.296  0.00  0.00    +0.000 OA
ATOM      6  C   UNL     1       4.303   7.419  17.107  0.00  0.00    +0.000 A 
ATOM      7  C   UNL     1       5.347   6.747  16.626  0.00  0.00    +0.000 A 
ATOM      8  N   UNL     1       5.567   5.383  16.786  0.00  0.00    +0.000 N 
ENDROOT
BRANCH   3   9
ATOM      9  C   UNL     1       2.564   4.488  18.956  0.00  0.00    +0.000 A 
ATOM     10  C   UNL     1       1.552   3.720  18.362  0.00  0.00    +0.000 A 
ATOM     11  C   UNL     1       0.668   2.986  19.155  0.00  0.00    +0.000 A 
ATOM     12  C   UNL     1       0.786   3.016  20.544  0.00  0.00    +0.000 A 
ATOM     13  C   UNL     1       1.784   3.786  21.143  0.00  0.00    +0.000 A 
ATOM     14  C   UNL     1       2.671   4.521  20.352  0.00  0.00    +0.000 A 
ENDBRANCH   3   9
BRANCH   8  15
ATOM     15  C   UNL     1       6.805   4.798  16.209  0.00  0.00    +0.000 C 
BRANCH  15  16
ATOM     16  C   UNL     1       6.755   4.577  14.706  0.00  0.00    +0.000 A 
ATOM     17  C   UNL     1       5.861   3.690  14.086  0.00  0.00    +0.000 A 
ATOM     18  C   UNL     1       5.910   3.469  12.708  0.00  0.00    +0.000 A 
ATOM     19  C   UNL     1       6.838   4.148  11.922  0.00  0.00    +0.000 A 
ATOM     20  C   UNL     1       7.699   5.070  12.511  0.00  0.00    +0.000 A 
ATOM     21  C   UNL     1       7.655   5.287  13.890  0.00  0.00    +0.000 A 
ENDBRANCH  15  16
ENDBRANCH   8  15
TORSDOF 3
ENDMDL
MODEL 2
REMARK VINA RESULT:      -7.7      0.075      1.058
REMARK  Name = 
REMARK  4 active torsions:
REMARK  status: ('A' for Active; 'I' for Inactive)
REMARK    1  A    between atoms: C_1  and  C_2
REMARK    2  A    between atoms: C_3  and  C_4
REMARK    3  A    between atoms: N_14  and  C_15
REMARK    4  A    between atoms: C_15  and  C_16
REMARK                            x       y       z     vdW  Elec       q    Type
REMARK                         _______ _______ _______ _____ _____    ______ ____
ROOT
ATOM      1  C   UNL     1       5.015   3.187  17.671  0.00  0.00    +0.000 C 
ATOM      2  C   UNL     1       4.687   4.662  17.530  0.00  0.00    +0.000 A 
ATOM      3  C   UNL     1       3.572   5.191  18.104  0.00  0.00    +0.000 A 
ATOM      4  C   UNL     1       3.270   6.646  17.879  0.00  0.00    +0.000 A 
ATOM      5  O   UNL     1       2.254   7.191  18.305  0.00  0.00    +0.000 OA
ATOM      6  C   UNL     1       4.242   7.441  17.111  0.00  0.00    +0.000 A 
ATOM      7  C   UNL     1       5.312   6.816  16.622  0.00  0.00    +0.000 A 
ATOM      8  N   UNL     1       5.589   5.461  16.774  0.00  0.00    +0.000 N 
ENDROOT
BRANCH   3   9
ATOM      9  C   UNL     1       2.634   4.429  18.949  0.00  0.00    +0.000 A 
ATOM     10  C   UNL     1       2.738   4.496  20.345  0.00  0.00    +0.000 A 
ATOM     11  C   UNL     1       1.814   3.829  21.153  0.00  0.00    +0.000 A 
ATOM     12  C   UNL     1       0.784   3.091  20.572  0.00  0.00    +0.000 A 
ATOM     13  C   UNL     1       0.680   3.013  19.182  0.00  0.00    +0.000 A 
ATOM     14  C   UNL     1       1.602   3.678  18.372  0.00  0.00    +0.000 A 
ENDBRANCH   3   9
BRANCH   8  15
ATOM     15  C   UNL     1       6.849   4.932  16.189  0.00  0.00    +0.000 C 
BRANCH  15  16
ATOM     16  C   UNL     1       6.782   4.655  14.696  0.00  0.00    +0.000 A 
ATOM     17  C   UNL     1       5.876   3.751  14.120  0.00  0.00    +0.000 A 
ATOM     18  C   UNL     1       5.908   3.478  12.750  0.00  0.00    +0.000 A 
ATOM     19  C   UNL     1       6.832   4.120  11.929  0.00  0.00    +0.000 A 
ATOM     20  C   UNL     1       7.705   5.058  12.474  0.00  0.00    +0.000 A 
ATOM     21  C   UNL     1       7.677   5.327  13.845  0.00  0.00    +0.000 A 
ENDBRANCH  15  16
ENDBRANCH   8  15
TORSDOF 3
ENDMDL
MODEL 3
REMARK VINA RESULT:      -7.6      0.113      1.057
REMARK  Name = 
REMARK  4 active torsions:
REMARK  status: ('A' for Active; 'I' for Inactive)
REMARK    1  A    between atoms: C_1  and  C_2
REMARK    2  A    between atoms: C_3  and  C_4
REMARK    3  A    between atoms: N_14  and  C_15
REMARK    4  A    between atoms: C_15  and  C_16
REMARK                            x       y       z     vdW  Elec       q    Type
REMARK                         _______ _______ _______ _____ _____    ______ ____
ROOT
ATOM      1  C   UNL     1       4.893   3.130  17.707  0.00  0.00    +0.000 C 
ATOM      2  C   UNL     1       4.647   4.617  17.528  0.00  0.00    +0.000 A 
ATOM      3  C   UNL     1       3.541   5.214  18.050  0.00  0.00    +0.000 A 
ATOM      4  C   UNL     1       3.322   6.677  17.788  0.00  0.00    +0.000 A 
ATOM      5  O   UNL     1       2.321   7.281  18.167  0.00  0.00    +0.000 OA
ATOM      6  C   UNL     1       4.361   7.406  17.043  0.00  0.00    +0.000 A 
ATOM      7  C   UNL     1       5.414   6.718  16.605  0.00  0.00    +0.000 A 
ATOM      8  N   UNL     1       5.616   5.354  16.791  0.00  0.00    +0.000 N 
ENDROOT
BRANCH   3   9
ATOM      9  C   UNL     1       2.535   4.517  18.874  0.00  0.00    +0.000 A 
ATOM     10  C   UNL     1       1.546   3.736  18.258  0.00  0.00    +0.000 A 
ATOM     11  C   UNL     1       0.630   3.021  19.032  0.00  0.00    +0.000 A 
ATOM     12  C   UNL     1       0.694   3.084  20.424  0.00  0.00    +0.000 A 
ATOM     13  C   UNL     1       1.669   3.866  21.043  0.00  0.00    +0.000 A 
ATOM     14  C   UNL     1       2.587   4.583  20.272  0.00  0.00    +0.000 A 
ENDBRANCH   3   9
BRANCH   8  15
ATOM     15  C   UNL     1       6.867   4.751  16.263  0.00  0.00    +0.000 C 
BRANCH  15  16
ATOM     16  C   UNL     1       6.893   4.578  14.753  0.00  0.00    +0.000 A 
ATOM     17  C   UNL     1       7.745   5.305  13.908  0.00  0.00    +0.000 A 
ATOM     18  C   UNL     1       7.674   5.160  12.521  0.00  0.00    +0.000 A 
ATOM     19  C   UNL     1       6.765   4.270  11.954  0.00  0.00    +0.000 A 
ATOM     20  C   UNL     1       5.946   3.503  12.778  0.00  0.00    +0.000 A 
ATOM     21  C   UNL     1       6.013   3.651  14.166  0.00  0.00    +0.000 A 
ENDBRANCH  15  16
ENDBRANCH   8  15
TORSDOF 3
ENDMDL
MODEL 4
REMARK VINA RESULT:      -7.5      0.169      1.498
REMARK  Name = 
REMARK  4 active torsions:
REMARK  status: ('A' for Active; 'I' for Inactive)
REMARK    1  A    between atoms: C_1  and  C_2
REMARK    2  A    between atoms: C_3  and  C_4
REMARK    3  A    between atoms: N_14  and  C_15
REMARK    4  A    between atoms: C_15  and  C_16
REMARK                            x       y       z     vdW  Elec       q    Type
REMARK                         _______ _______ _______ _____ _____    ______ ____
ROOT
ATOM      1  C   UNL     1       5.144   3.226  17.829  0.00  0.00    +0.000 C 
ATOM      2  C   UNL     1       4.757   4.677  17.612  0.00  0.00    +0.000 A 
ATOM      3  C   UNL     1       3.610   5.185  18.140  0.00  0.00    +0.000 A 
ATOM      4  C   UNL     1       3.252   6.613  17.841  0.00  0.00    +0.000 A 
ATOM      5  O   UNL     1       2.206   7.134  18.223  0.00  0.00    +0.000 OA
ATOM      6  C   UNL     1       4.204   7.412  17.053  0.00  0.00    +0.000 A 
ATOM      7  C   UNL     1       5.309   6.811  16.613  0.00  0.00    +0.000 A 
ATOM      8  N   UNL     1       5.639   5.478  16.834  0.00  0.00    +0.000 N 
ENDROOT
BRANCH   3   9
ATOM      9  C   UNL     1       2.689   4.424  19.005  0.00  0.00    +0.000 A 
ATOM     10  C   UNL     1       2.814   4.501  20.399  0.00  0.00    +0.000 A 
ATOM     11  C   UNL     1       1.906   3.836  21.225  0.00  0.00    +0.000 A 
ATOM     12  C   UNL     1       0.871   3.089  20.665  0.00  0.00    +0.000 A 
ATOM     13  C   UNL     1       0.745   3.000  19.278  0.00  0.00    +0.000 A 
ATOM     14  C   UNL     1       1.652   3.664  18.449  0.00  0.00    +0.000 A 
ENDBRANCH   3   9
BRANCH   8  15
ATOM     15  C   UNL     1       6.931   4.976  16.296  0.00  0.00    +0.000 C 
BRANCH  15  16
ATOM     16  C   UNL     1       6.924   4.695  14.802  0.00  0.00    +0.000 A 
ATOM     17  C   UNL     1       7.790   5.325  13.896  0.00  0.00    +0.000 A 
ATOM     18  C   UNL     1       7.689   5.085  12.523  0.00  0.00    +0.000 A 
ATOM     19  C   UNL     1       6.736   4.194  12.036  0.00  0.00    +0.000 A 
ATOM     20  C   UNL     1       5.901   3.521  12.924  0.00  0.00    +0.000 A 
ATOM     21  C   UNL     1       5.998   3.765  14.296  0.00  0.00    +0.000 A 
ENDBRANCH  15  16
ENDBRANCH   8  15
TORSDOF 3
ENDMDL
MODEL 5
REMARK VINA RESULT:      -7.3      1.679      3.048
REMARK  Name = 
REMARK  4 active torsions:
REMARK  status: ('A' for Active; 'I' for Inactive)
REMARK    1  A    between atoms: C_1  and  C_2
REMARK    2  A    between atoms: C_3  and  C_4
REMARK    3  A    between atoms: N_14  and  C_15
REMARK    4  A    between atoms: C_15  and  C_16
REMARK                            x       y       z     vdW  Elec       q    Type
REMARK                         _______ _______ _______ _____ _____    ______ ____
ROOT
ATOM      1  C   UNL     1       5.510   6.904  17.550  0.00  0.00    +0.000 C 
ATOM      2  C   UNL     1       4.604   5.691  17.436  0.00  0.00    +0.000 A 
ATOM      3  C   UNL     1       3.311   5.739  17.859  0.00  0.00    +0.000 A 
ATOM      4  C   UNL     1       2.482   4.490  17.775  0.00  0.00    +0.000 A 
ATOM      5  O   UNL     1       1.327   4.425  18.192  0.00  0.00    +0.000 OA
ATOM      6  C   UNL     1       3.091   3.297  17.166  0.00  0.00    +0.000 A 
ATOM      7  C   UNL     1       4.359   3.381  16.763  0.00  0.00    +0.000 A 
ATOM      8  N   UNL     1       5.163   4.509  16.875  0.00  0.00    +0.000 N 
ENDROOT
BRANCH   3   9
ATOM      9  C   UNL     1       2.658   6.950  18.391  0.00  0.00    +0.000 A 
ATOM     10  C   UNL     1       2.277   7.979  17.518  0.00  0.00    +0.000 A 
ATOM     11  C   UNL     1       1.600   9.100  18.004  0.00  0.00    +0.000 A 
ATOM     12  C   UNL     1       1.302   9.200  19.363  0.00  0.00    +0.000 A 
ATOM     13  C   UNL     1       1.687   8.184  20.239  0.00  0.00    +0.000 A 
ATOM     14  C   UNL     1       2.365   7.062  19.755  0.00  0.00    +0.000 A 
ENDBRANCH   3   9
BRANCH   8  15
ATOM     15  C   UNL     1       6.550   4.439  16.343  0.00  0.00    +0.000 C 
BRANCH  15  16
ATOM     16  C   UNL     1       6.640   4.397  14.827  0.00  0.00    +0.000 A 
ATOM     17  C   UNL     1       5.845   3.559  14.030  0.00  0.00    +0.000 A 
ATOM     18  C   UNL     1       6.023   3.505  12.646  0.00  0.00    +0.000 A 
ATOM     19  C   UNL     1       6.983   4.305  12.031  0.00  0.00    +0.000 A 
ATOM     20  C   UNL     1       7.748   5.179  12.799  0.00  0.00    +0.000 A 
ATOM     21  C   UNL     1       7.574   5.229  14.184  0.00  0.00    +0.000 A 
ENDBRANCH  15  16
ENDBRANCH   8  15
TORSDOF 3
ENDMDL
MODEL 6
REMARK VINA RESULT:      -7.2      1.670      3.183
REMARK  Name = 
REMARK  4 active torsions:
REMARK  status: ('A' for Active; 'I' for Inactive)
REMARK    1  A    between atoms: C_1  and  C_2
REMARK    2  A    between atoms: C_3  and  C_4
REMARK    3  A    between atoms: N_14  and  C_15
REMARK    4  A    between atoms: C_15  and  C_16
REMARK                            x       y       z     vdW  Elec       q    Type
REMARK                         _______ _______ _______ _____ _____    ______ ____
ROOT
ATOM      1  C   UNL     1       5.414   6.977  17.465  0.00  0.00    +0.000 C 
ATOM      2  C   UNL     1       4.566   5.719  17.416  0.00  0.00    +0.000 A 
ATOM      3  C   UNL     1       3.279   5.722  17.857  0.00  0.00    +0.000 A 
ATOM      4  C   UNL     1       2.510   4.431  17.838  0.00  0.00    +0.000 A 
ATOM      5  O   UNL     1       1.366   4.328  18.276  0.00  0.00    +0.000 OA
ATOM      6  C   UNL     1       3.169   3.245  17.268  0.00  0.00    +0.000 A 
ATOM      7  C   UNL     1       4.424   3.373  16.841  0.00  0.00    +0.000 A 
ATOM      8  N   UNL     1       5.174   4.543  16.894  0.00  0.00    +0.000 N 
ENDROOT
BRANCH   3   9
ATOM      9  C   UNL     1       2.575   6.920  18.350  0.00  0.00    +0.000 A 
ATOM     10  C   UNL     1       2.301   7.058  19.718  0.00  0.00    +0.000 A 
ATOM     11  C   UNL     1       1.694   8.218  20.202  0.00  0.00    +0.000 A 
ATOM     12  C   UNL     1       1.353   9.245  19.324  0.00  0.00    +0.000 A 
ATOM     13  C   UNL     1       1.614   9.112  17.959  0.00  0.00    +0.000 A 
ATOM     14  C   UNL     1       2.222   7.952  17.472  0.00  0.00    +0.000 A 
ENDBRANCH   3   9
BRANCH   8  15
ATOM     15  C   UNL     1       6.554   4.518  16.343  0.00  0.00    +0.000 C 
BRANCH  15  16
ATOM     16  C   UNL     1       6.625   4.440  14.826  0.00  0.00    +0.000 A 
ATOM     17  C   UNL     1       5.786   3.619  14.057  0.00  0.00    +0.000 A 
ATOM     18  C   UNL     1       5.945   3.529  12.672  0.00  0.00    +0.000 A 
ATOM     19  C   UNL     1       6.930   4.275  12.030  0.00  0.00    +0.000 A 
ATOM     20  C   UNL     1       7.739   5.133  12.770  0.00  0.00    +0.000 A 
ATOM     21  C   UNL     1       7.584   5.219  14.156  0.00  0.00    +0.000 A 
ENDBRANCH  15  16
ENDBRANCH   8  15
TORSDOF 3
ENDMDL
MODEL 7
REMARK VINA RESULT:      -7.0      1.704      3.248
REMARK  Name = 
REMARK  4 active torsions:
REMARK  status: ('A' for Active; 'I' for Inactive)
REMARK    1  A    between atoms: C_1  and  C_2
REMARK    2  A    between atoms: C_3  and  C_4
REMARK    3  A    between atoms: N_14  and  C_15
REMARK    4  A    between atoms: C_15  and  C_16
REMARK                            x       y       z     vdW  Elec       q    Type
REMARK                         _______ _______ _______ _____ _____    ______ ____
ROOT
ATOM      1  C   UNL     1       5.593   7.018  17.541  0.00  0.00    +0.000 C 
ATOM      2  C   UNL     1       4.709   5.789  17.428  0.00  0.00    +0.000 A 
ATOM      3  C   UNL     1       3.408   5.821  17.829  0.00  0.00    +0.000 A 
ATOM      4  C   UNL     1       2.601   4.557  17.748  0.00  0.00    +0.000 A 
ATOM      5  O   UNL     1       1.441   4.478  18.146  0.00  0.00    +0.000 OA
ATOM      6  C   UNL     1       3.240   3.366  17.164  0.00  0.00    +0.000 A 
ATOM      7  C   UNL     1       4.512   3.466  16.782  0.00  0.00    +0.000 A 
ATOM      8  N   UNL     1       5.297   4.610  16.892  0.00  0.00    +0.000 N 
ENDROOT
BRANCH   3   9
ATOM      9  C   UNL     1       2.726   7.027  18.334  0.00  0.00    +0.000 A 
ATOM     10  C   UNL     1       2.377   8.056  17.448  0.00  0.00    +0.000 A 
ATOM     11  C   UNL     1       1.674   9.172  17.906  0.00  0.00    +0.000 A 
ATOM     12  C   UNL     1       1.319   9.268  19.251  0.00  0.00    +0.000 A 
ATOM     13  C   UNL     1       1.671   8.253  20.141  0.00  0.00    +0.000 A 
ATOM     14  C   UNL     1       2.374   7.135  19.685  0.00  0.00    +0.000 A 
ENDBRANCH   3   9
BRANCH   8  15
ATOM     15  C   UNL     1       6.693   4.556  16.385  0.00  0.00    +0.000 C 
BRANCH  15  16
ATOM     16  C   UNL     1       6.809   4.477  14.871  0.00  0.00    +0.000 A 
ATOM     17  C   UNL     1       7.713   5.249  14.126  0.00  0.00    +0.000 A 
ATOM     18  C   UNL     1       7.725   5.192  12.730  0.00  0.00    +0.000 A 
ATOM     19  C   UNL     1       6.849   4.344  12.057  0.00  0.00    +0.000 A 
ATOM     20  C   UNL     1       5.979   3.533  12.781  0.00  0.00    +0.000 A 
ATOM     21  C   UNL     1       5.963   3.594  14.176  0.00  0.00    +0.000 A 
ENDBRANCH  15  16
ENDBRANCH   8  15
TORSDOF 3
ENDMDL
MODEL 8
REMARK VINA RESULT:      -6.9      1.706      3.340
REMARK  Name = 
REMARK  4 active torsions:
REMARK  status: ('A' for Active; 'I' for Inactive)
REMARK    1  A    between atoms: C_1  and  C_2
REMARK    2  A    between atoms: C_3  and  C_4
REMARK    3  A    between atoms: N_14  and  C_15
REMARK    4  A    between atoms: C_15  and  C_16
REMARK                            x       y       z     vdW  Elec       q    Type
REMARK                         _______ _______ _______ _____ _____    ______ ____
ROOT
ATOM      1  C   UNL     1       5.476   7.160  17.505  0.00  0.00    +0.000 C 
ATOM      2  C   UNL     1       4.668   5.879  17.402  0.00  0.00    +0.000 A 
ATOM      3  C   UNL     1       3.375   5.830  17.823  0.00  0.00    +0.000 A 
ATOM      4  C   UNL     1       2.646   4.518  17.750  0.00  0.00    +0.000 A 
ATOM      5  O   UNL     1       1.499   4.367  18.166  0.00  0.00    +0.000 OA
ATOM      6  C   UNL     1       3.348   3.371  17.153  0.00  0.00    +0.000 A 
ATOM      7  C   UNL     1       4.606   3.550  16.751  0.00  0.00    +0.000 A 
ATOM      8  N   UNL     1       5.319   4.739  16.853  0.00  0.00    +0.000 N 
ENDROOT
BRANCH   3   9
ATOM      9  C   UNL     1       2.628   6.990  18.342  0.00  0.00    +0.000 A 
ATOM     10  C   UNL     1       2.335   7.078  19.711  0.00  0.00    +0.000 A 
ATOM     11  C   UNL     1       1.686   8.204  20.221  0.00  0.00    +0.000 A 
ATOM     12  C   UNL     1       1.322   9.246  19.369  0.00  0.00    +0.000 A 
ATOM     13  C   UNL     1       1.602   9.161  18.004  0.00  0.00    +0.000 A 
ATOM     14  C   UNL     1       2.252   8.036  17.491  0.00  0.00    +0.000 A 
ENDBRANCH   3   9
BRANCH   8  15
ATOM     15  C   UNL     1       6.708   4.773  16.323  0.00  0.00    +0.000 C 
BRANCH  15  16
ATOM     16  C   UNL     1       6.812   4.585  14.818  0.00  0.00    +0.000 A 
ATOM     17  C   UNL     1       7.712   5.298  14.012  0.00  0.00    +0.000 A 
ATOM     18  C   UNL     1       7.712   5.140  12.625  0.00  0.00    +0.000 A 
ATOM     19  C   UNL     1       6.829   4.249  12.021  0.00  0.00    +0.000 A 
ATOM     20  C   UNL     1       5.963   3.495  12.808  0.00  0.00    +0.000 A 
ATOM     21  C   UNL     1       5.958   3.657  14.196  0.00  0.00    +0.000 A 
ENDBRANCH  15  16
ENDBRANCH   8  15
TORSDOF 3
ENDMDL
MODEL 9
REMARK VINA RESULT:      -6.9      4.281      7.567
REMARK  Name = 
REMARK  4 active torsions:
REMARK  status: ('A' for Active; 'I' for Inactive)
REMARK    1  A    between atoms: C_1  and  C_2
REMARK    2  A    between atoms: C_3  and  C_4
REMARK    3  A    between atoms: N_14  and  C_15
REMARK    4  A    between atoms: C_15  and  C_16
REMARK                            x       y       z     vdW  Elec       q    Type
REMARK                         _______ _______ _______ _____ _____    ______ ____
ROOT
ATOM      1  C   UNL     1       2.588   8.338  17.425  0.00  0.00    +0.000 C 
ATOM      2  C   UNL     1       2.110   7.939  18.809  0.00  0.00    +0.000 A 
ATOM      3  C   UNL     1       2.339   6.689  19.298  0.00  0.00    +0.000 A 
ATOM      4  C   UNL     1       1.789   6.335  20.650  0.00  0.00    +0.000 A 
ATOM      5  O   UNL     1       1.893   5.213  21.141  0.00  0.00    +0.000 OA
ATOM      6  C   UNL     1       1.095   7.388  21.410  0.00  0.00    +0.000 A 
ATOM      7  C   UNL     1       0.957   8.583  20.836  0.00  0.00    +0.000 A 
ATOM      8  N   UNL     1       1.413   8.921  19.567  0.00  0.00    +0.000 N 
ENDROOT
BRANCH   3   9
ATOM      9  C   UNL     1       3.107   5.650  18.587  0.00  0.00    +0.000 A 
ATOM     10  C   UNL     1       4.497   5.574  18.750  0.00  0.00    +0.000 A 
ATOM     11  C   UNL     1       5.224   4.554  18.133  0.00  0.00    +0.000 A 
ATOM     12  C   UNL     1       4.567   3.606  17.348  0.00  0.00    +0.000 A 
ATOM     13  C   UNL     1       3.185   3.681  17.174  0.00  0.00    +0.000 A 
ATOM     14  C   UNL     1       2.455   4.700  17.791  0.00  0.00    +0.000 A 
ENDBRANCH   3   9
BRANCH   8  15
ATOM     15  C   UNL     1       1.202  10.314  19.092  0.00  0.00    +0.000 C 
BRANCH  15  16
ATOM     16  C   UNL     1      -0.241  10.650  18.749  0.00  0.00    +0.000 A 
ATOM     17  C   UNL     1      -0.983  11.635  19.417  0.00  0.00    +0.000 A 
ATOM     18  C   UNL     1      -2.328  11.850  19.112  0.00  0.00    +0.000 A 
ATOM     19  C   UNL     1      -2.949  11.100  18.116  0.00  0.00    +0.000 A 
ATOM     20  C   UNL     1      -2.216  10.152  17.407  0.00  0.00    +0.000 A 
ATOM     21  C   UNL     1      -0.871   9.933  17.717  0.00  0.00    +0.000 A 
ENDBRANCH  15  16
ENDBRANCH   8  15
TORSDOF 3
ENDMDL
