MODEL 1
REMARK VINA RESULT:      -8.5      0.000      0.000
REMARK  Name = 
REMARK  5 active torsions:
REMARK  status: ('A' for Active; 'I' for Inactive)
REMARK    1  A    between atoms: C_1  and  C_2
REMARK    2  A    between atoms: C_4  and  S_5
REMARK    3  A    between atoms: S_5  and  N_8
REMARK    4  A    between atoms: C_9  and  C_10
REMARK    5  A    between atoms: C_11  and  C_12
REMARK                            x       y       z     vdW  Elec       q    Type
REMARK                         _______ _______ _______ _____ _____    ______ ____
ROOT
ATOM      1  N   UNL     1       6.470   5.371  17.373  0.00  0.00    +0.000 N 
ATOM      2  C   UNL     1       7.333   6.433  17.113  0.00  0.00    +0.000 A 
ATOM      3  N   UNL     1       7.641   6.424  15.823  0.00  0.00    +0.000 NA
ATOM      4  C   UNL     1       6.971   5.380  15.251  0.00  0.00    +0.000 A 
ATOM      5  C   UNL     1       6.992   4.953  13.914  0.00  0.00    +0.000 A 
ATOM      6  C   UNL     1       6.209   3.858  13.540  0.00  0.00    +0.000 A 
ATOM      7  C   UNL     1       5.413   3.208  14.479  0.00  0.00    +0.000 A 
ATOM      8  C   UNL     1       5.380   3.623  15.816  0.00  0.00    +0.000 A 
ATOM      9  C   UNL     1       6.186   4.714  16.186  0.00  0.00    +0.000 A 
ENDROOT
BRANCH   1  10
ATOM     10  S   UNL     1       5.755   4.974  18.853  0.00  0.00    +0.000 S 
ATOM     11  O   UNL     1       6.652   5.462  19.885  0.00  0.00    +0.000 OA
ATOM     12  O   UNL     1       5.396   3.571  18.797  0.00  0.00    +0.000 OA
BRANCH  10  16
ATOM     13  C   UNL     1       2.345   8.878  17.604  0.00  0.00    +0.000 C 
ATOM     14  C   UNL     1       2.723   7.685  18.433  0.00  0.00    +0.000 A 
ATOM     15  C   UNL     1       3.884   6.941  18.161  0.00  0.00    +0.000 A 
ATOM     16  C   UNL     1       4.238   5.886  19.009  0.00  0.00    +0.000 A 
ATOM     17  C   UNL     1       3.407   5.528  20.083  0.00  0.00    +0.000 A 
ATOM     18  C   UNL     1       2.250   6.259  20.344  0.00  0.00    +0.000 A 
ATOM     19  C   UNL     1       1.927   7.338  19.530  0.00  0.00    +0.000 A 
ATOM     20  F   UNL     1       0.839   8.064  19.822  0.00  0.00    +0.000 F 
ENDBRANCH  10  16
ENDBRANCH   1  10
BRANCH   2  21
ATOM     21  C   UNL     1       7.825   7.373  18.071  0.00  0.00    +0.000 C 
ATOM     22  C   UNL     1       8.146   8.613  17.648  0.00  0.00    +0.000 C 
BRANCH  22  23
ATOM     23  C   UNL     1       8.657   9.736  18.457  0.00  0.00    +0.000 A 
ATOM     24  C   UNL     1       8.956   9.628  19.822  0.00  0.00    +0.000 A 
ATOM     25  C   UNL     1       9.491  10.716  20.525  0.00  0.00    +0.000 A 
ATOM     26  C   UNL     1       9.742  11.923  19.873  0.00  0.00    +0.000 A 
ATOM     27  C   UNL     1       9.463  12.034  18.514  0.00  0.00    +0.000 A 
ATOM     28 BR   UNL     1       9.815  13.662  17.616  0.00  0.00    +0.000 Br
ATOM     29  C   UNL     1       8.932  10.952  17.806  0.00  0.00    +0.000 A 
ENDBRANCH  22  23
ENDBRANCH   2  21
TORSDOF 4
ENDMDL
MODEL 2
REMARK VINA RESULT:      -8.4      5.725      8.746
REMARK  Name = 
REMARK  5 active torsions:
REMARK  status: ('A' for Active; 'I' for Inactive)
REMARK    1  A    between atoms: C_1  and  C_2
REMARK    2  A    between atoms: C_4  and  S_5
REMARK    3  A    between atoms: S_5  and  N_8
REMARK    4  A    between atoms: C_9  and  C_10
REMARK    5  A    between atoms: C_11  and  C_12
REMARK                            x       y       z     vdW  Elec       q    Type
REMARK                         _______ _______ _______ _____ _____    ______ ____
ROOT
ATOM      1  N   UNL     1       0.879  11.357  18.972  0.00  0.00    +0.000 N 
ATOM      2  C   UNL     1       1.795  10.613  18.233  0.00  0.00    +0.000 A 
ATOM      3  N   UNL     1       2.735  11.428  17.776  0.00  0.00    +0.000 NA
ATOM      4  C   UNL     1       2.441  12.683  18.227  0.00  0.00    +0.000 A 
ATOM      5  C   UNL     1       3.130  13.883  17.991  0.00  0.00    +0.000 A 
ATOM      6  C   UNL     1       2.656  15.062  18.571  0.00  0.00    +0.000 A 
ATOM      7  C   UNL     1       1.523  15.043  19.380  0.00  0.00    +0.000 A 
ATOM      8  C   UNL     1       0.826  13.854  19.627  0.00  0.00    +0.000 A 
ATOM      9  C   UNL     1       1.300  12.677  19.023  0.00  0.00    +0.000 A 
ENDROOT
BRANCH   1  10
ATOM     10  S   UNL     1      -0.478  10.778  19.799  0.00  0.00    +0.000 S 
ATOM     11  O   UNL     1      -0.743  11.727  20.865  0.00  0.00    +0.000 OA
ATOM     12  O   UNL     1      -0.236   9.383  20.102  0.00  0.00    +0.000 OA
BRANCH  10  16
ATOM     13  C   UNL     1      -3.022   9.798  15.216  0.00  0.00    +0.000 C 
ATOM     14  C   UNL     1      -2.991  10.389  16.595  0.00  0.00    +0.000 A 
ATOM     15  C   UNL     1      -1.893  10.194  17.452  0.00  0.00    +0.000 A 
ATOM     16  C   UNL     1      -1.873  10.829  18.699  0.00  0.00    +0.000 A 
ATOM     17  C   UNL     1      -2.967  11.602  19.121  0.00  0.00    +0.000 A 
ATOM     18  C   UNL     1      -4.060  11.784  18.275  0.00  0.00    +0.000 A 
ATOM     19  C   UNL     1      -4.056  11.192  17.018  0.00  0.00    +0.000 A 
ATOM     20  F   UNL     1      -5.089  11.417  16.194  0.00  0.00    +0.000 F 
ENDBRANCH  10  16
ENDBRANCH   1  10
BRANCH   2  21
ATOM     21  C   UNL     1       1.735   9.205  17.989  0.00  0.00    +0.000 C 
ATOM     22  C   UNL     1       2.869   8.484  18.103  0.00  0.00    +0.000 C 
BRANCH  22  23
ATOM     23  C   UNL     1       3.035   7.030  17.908  0.00  0.00    +0.000 A 
ATOM     24  C   UNL     1       2.057   6.091  18.255  0.00  0.00    +0.000 A 
ATOM     25  C   UNL     1       2.250   4.727  17.995  0.00  0.00    +0.000 A 
ATOM     26  C   UNL     1       3.421   4.286  17.379  0.00  0.00    +0.000 A 
ATOM     27  C   UNL     1       4.392   5.214  17.016  0.00  0.00    +0.000 A 
ATOM     28 BR   UNL     1       5.976   4.628  16.165  0.00  0.00    +0.000 Br
ATOM     29  C   UNL     1       4.203   6.576  17.270  0.00  0.00    +0.000 A 
ENDBRANCH  22  23
ENDBRANCH   2  21
TORSDOF 4
ENDMDL
MODEL 3
REMARK VINA RESULT:      -8.4      5.291      8.800
REMARK  Name = 
REMARK  5 active torsions:
REMARK  status: ('A' for Active; 'I' for Inactive)
REMARK    1  A    between atoms: C_1  and  C_2
REMARK    2  A    between atoms: C_4  and  S_5
REMARK    3  A    between atoms: S_5  and  N_8
REMARK    4  A    between atoms: C_9  and  C_10
REMARK    5  A    between atoms: C_11  and  C_12
REMARK                            x       y       z     vdW  Elec       q    Type
REMARK                         _______ _______ _______ _____ _____    ______ ____
ROOT
ATOM      1  N   UNL     1       0.815   9.678  19.749  0.00  0.00    +0.000 N 
ATOM      2  C   UNL     1       1.469   8.487  20.053  0.00  0.00    +0.000 A 
ATOM      3  N   UNL     1       1.256   8.199  21.329  0.00  0.00    +0.000 NA
ATOM      4  C   UNL     1       0.458   9.181  21.842  0.00  0.00    +0.000 A 
ATOM      5  C   UNL     1      -0.022   9.326  23.153  0.00  0.00    +0.000 A 
ATOM      6  C   UNL     1      -0.846  10.412  23.457  0.00  0.00    +0.000 A 
ATOM      7  C   UNL     1      -1.193  11.331  22.470  0.00  0.00    +0.000 A 
ATOM      8  C   UNL     1      -0.723  11.200  21.157  0.00  0.00    +0.000 A 
ATOM      9  C   UNL     1       0.121  10.114  20.866  0.00  0.00    +0.000 A 
ENDROOT
BRANCH   1  10
ATOM     10  S   UNL     1       0.742  10.449  18.245  0.00  0.00    +0.000 S 
ATOM     11  O   UNL     1      -0.650  10.416  17.836  0.00  0.00    +0.000 OA
ATOM     12  O   UNL     1       1.767   9.860  17.408  0.00  0.00    +0.000 OA
BRANCH  10  16
ATOM     13  C   UNL     1      -0.313  15.629  18.943  0.00  0.00    +0.000 C 
ATOM     14  C   UNL     1       0.665  14.506  18.759  0.00  0.00    +0.000 A 
ATOM     15  C   UNL     1       0.243  13.165  18.720  0.00  0.00    +0.000 A 
ATOM     16  C   UNL     1       1.180  12.157  18.466  0.00  0.00    +0.000 A 
ATOM     17  C   UNL     1       2.541  12.472  18.319  0.00  0.00    +0.000 A 
ATOM     18  C   UNL     1       2.959  13.800  18.370  0.00  0.00    +0.000 A 
ATOM     19  C   UNL     1       2.019  14.804  18.572  0.00  0.00    +0.000 A 
ATOM     20  F   UNL     1       2.427  16.080  18.568  0.00  0.00    +0.000 F 
ENDBRANCH  10  16
ENDBRANCH   1  10
BRANCH   2  21
ATOM     21  C   UNL     1       2.256   7.704  19.152  0.00  0.00    +0.000 C 
ATOM     22  C   UNL     1       2.432   6.394  19.423  0.00  0.00    +0.000 C 
BRANCH  22  23
ATOM     23  C   UNL     1       3.190   5.405  18.633  0.00  0.00    +0.000 A 
ATOM     24  C   UNL     1       2.581   4.398  17.872  0.00  0.00    +0.000 A 
ATOM     25  C   UNL     1       3.352   3.521  17.098  0.00  0.00    +0.000 A 
ATOM     26  C   UNL     1       4.741   3.642  17.069  0.00  0.00    +0.000 A 
ATOM     27  C   UNL     1       5.354   4.648  17.809  0.00  0.00    +0.000 A 
ATOM     28 BR   UNL     1       7.236   4.832  17.763  0.00  0.00    +0.000 Br
ATOM     29  C   UNL     1       4.589   5.529  18.580  0.00  0.00    +0.000 A 
ENDBRANCH  22  23
ENDBRANCH   2  21
TORSDOF 4
ENDMDL
MODEL 4
REMARK VINA RESULT:      -8.4      5.271      8.791
REMARK  Name = 
REMARK  5 active torsions:
REMARK  status: ('A' for Active; 'I' for Inactive)
REMARK    1  A    between atoms: C_1  and  C_2
REMARK    2  A    between atoms: C_4  and  S_5
REMARK    3  A    between atoms: S_5  and  N_8
REMARK    4  A    between atoms: C_9  and  C_10
REMARK    5  A    between atoms: C_11  and  C_12
REMARK                            x       y       z     vdW  Elec       q    Type
REMARK                         _______ _______ _______ _____ _____    ______ ____
ROOT
ATOM      1  N   UNL     1       0.826   9.671  19.751  0.00  0.00    +0.000 N 
ATOM      2  C   UNL     1       1.474   8.476  20.054  0.00  0.00    +0.000 A 
ATOM      3  N   UNL     1       1.247   8.181  21.326  0.00  0.00    +0.000 NA
ATOM      4  C   UNL     1       0.447   9.163  21.837  0.00  0.00    +0.000 A 
ATOM      5  C   UNL     1      -0.046   9.301  23.144  0.00  0.00    +0.000 A 
ATOM      6  C   UNL     1      -0.869  10.388  23.446  0.00  0.00    +0.000 A 
ATOM      7  C   UNL     1      -1.204  11.313  22.462  0.00  0.00    +0.000 A 
ATOM      8  C   UNL     1      -0.722  11.188  21.153  0.00  0.00    +0.000 A 
ATOM      9  C   UNL     1       0.122  10.102  20.864  0.00  0.00    +0.000 A 
ENDROOT
BRANCH   1  10
ATOM     10  S   UNL     1       0.770  10.451  18.251  0.00  0.00    +0.000 S 
ATOM     11  O   UNL     1      -0.578  10.270  17.745  0.00  0.00    +0.000 OA
ATOM     12  O   UNL     1       1.910   9.993  17.483  0.00  0.00    +0.000 OA
BRANCH  10  16
ATOM     13  C   UNL     1       3.529  14.770  19.725  0.00  0.00    +0.000 C 
ATOM     14  C   UNL     1       2.270  14.132  19.214  0.00  0.00    +0.000 A 
ATOM     15  C   UNL     1       2.213  12.760  18.911  0.00  0.00    +0.000 A 
ATOM     16  C   UNL     1       0.997  12.194  18.514  0.00  0.00    +0.000 A 
ATOM     17  C   UNL     1      -0.143  12.998  18.354  0.00  0.00    +0.000 A 
ATOM     18  C   UNL     1      -0.082  14.360  18.643  0.00  0.00    +0.000 A 
ATOM     19  C   UNL     1       1.115  14.911  19.085  0.00  0.00    +0.000 A 
ATOM     20  F   UNL     1       1.147  16.211  19.409  0.00  0.00    +0.000 F 
ENDBRANCH  10  16
ENDBRANCH   1  10
BRANCH   2  21
ATOM     21  C   UNL     1       2.267   7.696  19.155  0.00  0.00    +0.000 C 
ATOM     22  C   UNL     1       2.415   6.379  19.406  0.00  0.00    +0.000 C 
BRANCH  22  23
ATOM     23  C   UNL     1       3.174   5.391  18.615  0.00  0.00    +0.000 A 
ATOM     24  C   UNL     1       2.566   4.382  17.858  0.00  0.00    +0.000 A 
ATOM     25  C   UNL     1       3.338   3.506  17.082  0.00  0.00    +0.000 A 
ATOM     26  C   UNL     1       4.726   3.632  17.048  0.00  0.00    +0.000 A 
ATOM     27  C   UNL     1       5.338   4.642  17.784  0.00  0.00    +0.000 A 
ATOM     28 BR   UNL     1       7.219   4.832  17.731  0.00  0.00    +0.000 Br
ATOM     29  C   UNL     1       4.573   5.521  18.557  0.00  0.00    +0.000 A 
ENDBRANCH  22  23
ENDBRANCH   2  21
TORSDOF 4
ENDMDL
MODEL 5
REMARK VINA RESULT:      -8.3      6.022      8.993
REMARK  Name = 
REMARK  5 active torsions:
REMARK  status: ('A' for Active; 'I' for Inactive)
REMARK    1  A    between atoms: C_1  and  C_2
REMARK    2  A    between atoms: C_4  and  S_5
REMARK    3  A    between atoms: S_5  and  N_8
REMARK    4  A    between atoms: C_9  and  C_10
REMARK    5  A    between atoms: C_11  and  C_12
REMARK                            x       y       z     vdW  Elec       q    Type
REMARK                         _______ _______ _______ _____ _____    ______ ____
ROOT
ATOM      1  N   UNL     1       0.804  11.524  18.978  0.00  0.00    +0.000 N 
ATOM      2  C   UNL     1       1.742  10.795  18.251  0.00  0.00    +0.000 A 
ATOM      3  N   UNL     1       2.670  11.627  17.800  0.00  0.00    +0.000 NA
ATOM      4  C   UNL     1       2.348  12.877  18.245  0.00  0.00    +0.000 A 
ATOM      5  C   UNL     1       3.017  14.089  18.012  0.00  0.00    +0.000 A 
ATOM      6  C   UNL     1       2.515  15.261  18.584  0.00  0.00    +0.000 A 
ATOM      7  C   UNL     1       1.375  15.223  19.381  0.00  0.00    +0.000 A 
ATOM      8  C   UNL     1       0.697  14.021  19.625  0.00  0.00    +0.000 A 
ATOM      9  C   UNL     1       1.200  12.851  19.029  0.00  0.00    +0.000 A 
ENDROOT
BRANCH   1  10
ATOM     10  S   UNL     1      -0.550  10.922  19.793  0.00  0.00    +0.000 S 
ATOM     11  O   UNL     1      -0.854  11.877  20.843  0.00  0.00    +0.000 OA
ATOM     12  O   UNL     1      -0.277   9.537  20.119  0.00  0.00    +0.000 OA
BRANCH  10  16
ATOM     13  C   UNL     1      -2.988   9.858  15.172  0.00  0.00    +0.000 C 
ATOM     14  C   UNL     1      -2.999  10.446  16.553  0.00  0.00    +0.000 A 
ATOM     15  C   UNL     1      -1.907  10.290  17.426  0.00  0.00    +0.000 A 
ATOM     16  C   UNL     1      -1.929  10.923  18.673  0.00  0.00    +0.000 A 
ATOM     17  C   UNL     1      -3.058  11.653  19.081  0.00  0.00    +0.000 A 
ATOM     18  C   UNL     1      -4.144  11.796  18.220  0.00  0.00    +0.000 A 
ATOM     19  C   UNL     1      -4.099  11.208  16.961  0.00  0.00    +0.000 A 
ATOM     20  F   UNL     1      -5.128  11.396  16.123  0.00  0.00    +0.000 F 
ENDBRANCH  10  16
ENDBRANCH   1  10
BRANCH   2  21
ATOM     21  C   UNL     1       1.711   9.386  18.010  0.00  0.00    +0.000 C 
ATOM     22  C   UNL     1       2.844   8.678  18.191  0.00  0.00    +0.000 C 
BRANCH  22  23
ATOM     23  C   UNL     1       3.037   7.225  18.013  0.00  0.00    +0.000 A 
ATOM     24  C   UNL     1       4.045   6.676  17.210  0.00  0.00    +0.000 A 
ATOM     25  C   UNL     1       4.213   5.288  17.123  0.00  0.00    +0.000 A 
ATOM     26  C   UNL     1       3.382   4.430  17.843  0.00  0.00    +0.000 A 
ATOM     27  C   UNL     1       2.388   4.967  18.656  0.00  0.00    +0.000 A 
ATOM     28 BR   UNL     1       1.266   3.813  19.650  0.00  0.00    +0.000 Br
ATOM     29  C   UNL     1       2.218   6.351  18.749  0.00  0.00    +0.000 A 
ENDBRANCH  22  23
ENDBRANCH   2  21
TORSDOF 4
ENDMDL
MODEL 6
REMARK VINA RESULT:      -8.3      0.571      1.259
REMARK  Name = 
REMARK  5 active torsions:
REMARK  status: ('A' for Active; 'I' for Inactive)
REMARK    1  A    between atoms: C_1  and  C_2
REMARK    2  A    between atoms: C_4  and  S_5
REMARK    3  A    between atoms: S_5  and  N_8
REMARK    4  A    between atoms: C_9  and  C_10
REMARK    5  A    between atoms: C_11  and  C_12
REMARK                            x       y       z     vdW  Elec       q    Type
REMARK                         _______ _______ _______ _____ _____    ______ ____
ROOT
ATOM      1  N   UNL     1       6.308   5.430  17.212  0.00  0.00    +0.000 N 
ATOM      2  C   UNL     1       7.281   6.403  16.999  0.00  0.00    +0.000 A 
ATOM      3  N   UNL     1       7.691   6.327  15.741  0.00  0.00    +0.000 NA
ATOM      4  C   UNL     1       6.979   5.329  15.140  0.00  0.00    +0.000 A 
ATOM      5  C   UNL     1       7.069   4.860  13.820  0.00  0.00    +0.000 A 
ATOM      6  C   UNL     1       6.224   3.827  13.408  0.00  0.00    +0.000 A 
ATOM      7  C   UNL     1       5.298   3.280  14.292  0.00  0.00    +0.000 A 
ATOM      8  C   UNL     1       5.195   3.738  15.612  0.00  0.00    +0.000 A 
ATOM      9  C   UNL     1       6.063   4.764  16.021  0.00  0.00    +0.000 A 
ENDROOT
BRANCH   1  10
ATOM     10  S   UNL     1       5.442   5.144  18.636  0.00  0.00    +0.000 S 
ATOM     11  O   UNL     1       6.357   5.409  19.731  0.00  0.00    +0.000 OA
ATOM     12  O   UNL     1       4.811   3.847  18.505  0.00  0.00    +0.000 OA
BRANCH  10  16
ATOM     13  C   UNL     1       1.148   7.372  20.880  0.00  0.00    +0.000 C 
ATOM     14  C   UNL     1       2.170   7.314  19.783  0.00  0.00    +0.000 A 
ATOM     15  C   UNL     1       3.251   6.416  19.833  0.00  0.00    +0.000 A 
ATOM     16  C   UNL     1       4.134   6.341  18.750  0.00  0.00    +0.000 A 
ATOM     17  C   UNL     1       3.984   7.202  17.650  0.00  0.00    +0.000 A 
ATOM     18  C   UNL     1       2.920   8.101  17.608  0.00  0.00    +0.000 A 
ATOM     19  C   UNL     1       2.015   8.138  18.662  0.00  0.00    +0.000 A 
ATOM     20  F   UNL     1       0.967   8.969  18.586  0.00  0.00    +0.000 F 
ENDBRANCH  10  16
ENDBRANCH   1  10
BRANCH   2  21
ATOM     21  C   UNL     1       7.776   7.326  17.973  0.00  0.00    +0.000 C 
ATOM     22  C   UNL     1       8.074   8.580  17.576  0.00  0.00    +0.000 C 
BRANCH  22  23
ATOM     23  C   UNL     1       8.584   9.690  18.405  0.00  0.00    +0.000 A 
ATOM     24  C   UNL     1       8.980   9.535  19.739  0.00  0.00    +0.000 A 
ATOM     25  C   UNL     1       9.508  10.615  20.459  0.00  0.00    +0.000 A 
ATOM     26  C   UNL     1       9.654  11.862  19.852  0.00  0.00    +0.000 A 
ATOM     27  C   UNL     1       9.279  12.022  18.522  0.00  0.00    +0.000 A 
ATOM     28 BR   UNL     1       9.489  13.706  17.685  0.00  0.00    +0.000 Br
ATOM     29  C   UNL     1       8.754  10.947  17.798  0.00  0.00    +0.000 A 
ENDBRANCH  22  23
ENDBRANCH   2  21
TORSDOF 4
ENDMDL
MODEL 7
REMARK VINA RESULT:      -8.3      6.159      9.099
REMARK  Name = 
REMARK  5 active torsions:
REMARK  status: ('A' for Active; 'I' for Inactive)
REMARK    1  A    between atoms: C_1  and  C_2
REMARK    2  A    between atoms: C_4  and  S_5
REMARK    3  A    between atoms: S_5  and  N_8
REMARK    4  A    between atoms: C_9  and  C_10
REMARK    5  A    between atoms: C_11  and  C_12
REMARK                            x       y       z     vdW  Elec       q    Type
REMARK                         _______ _______ _______ _____ _____    ______ ____
ROOT
ATOM      1  N   UNL     1       0.572  11.553  18.889  0.00  0.00    +0.000 N 
ATOM      2  C   UNL     1       1.654  10.799  18.442  0.00  0.00    +0.000 A 
ATOM      3  N   UNL     1       2.638  11.623  18.109  0.00  0.00    +0.000 NA
ATOM      4  C   UNL     1       2.205  12.894  18.353  0.00  0.00    +0.000 A 
ATOM      5  C   UNL     1       2.882  14.106  18.142  0.00  0.00    +0.000 A 
ATOM      6  C   UNL     1       2.248  15.304  18.481  0.00  0.00    +0.000 A 
ATOM      7  C   UNL     1       0.970  15.294  19.031  0.00  0.00    +0.000 A 
ATOM      8  C   UNL     1       0.282  14.093  19.250  0.00  0.00    +0.000 A 
ATOM      9  C   UNL     1       0.921  12.894  18.887  0.00  0.00    +0.000 A 
ENDROOT
BRANCH   1  10
ATOM     10  S   UNL     1      -0.908  10.974  19.468  0.00  0.00    +0.000 S 
ATOM     11  O   UNL     1      -1.402  11.974  20.397  0.00  0.00    +0.000 OA
ATOM     12  O   UNL     1      -0.696   9.609  19.904  0.00  0.00    +0.000 OA
BRANCH  10  16
ATOM     13  C   UNL     1      -5.507  12.085  17.009  0.00  0.00    +0.000 C 
ATOM     14  C   UNL     1      -4.166  11.412  17.035  0.00  0.00    +0.000 A 
ATOM     15  C   UNL     1      -3.261  11.619  18.092  0.00  0.00    +0.000 A 
ATOM     16  C   UNL     1      -2.056  10.908  18.114  0.00  0.00    +0.000 A 
ATOM     17  C   UNL     1      -1.720  10.046  17.058  0.00  0.00    +0.000 A 
ATOM     18  C   UNL     1      -2.612   9.852  16.005  0.00  0.00    +0.000 A 
ATOM     19  C   UNL     1      -3.830  10.520  16.011  0.00  0.00    +0.000 A 
ATOM     20  F   UNL     1      -4.700  10.285  15.019  0.00  0.00    +0.000 F 
ENDBRANCH  10  16
ENDBRANCH   1  10
BRANCH   2  21
ATOM     21  C   UNL     1       1.703   9.373  18.340  0.00  0.00    +0.000 C 
ATOM     22  C   UNL     1       2.850   8.797  17.928  0.00  0.00    +0.000 C 
BRANCH  22  23
ATOM     23  C   UNL     1       3.126   7.357  17.761  0.00  0.00    +0.000 A 
ATOM     24  C   UNL     1       4.238   6.862  17.067  0.00  0.00    +0.000 A 
ATOM     25  C   UNL     1       4.477   5.483  16.990  0.00  0.00    +0.000 A 
ATOM     26  C   UNL     1       3.612   4.582  17.610  0.00  0.00    +0.000 A 
ATOM     27  C   UNL     1       2.514   5.065  18.315  0.00  0.00    +0.000 A 
ATOM     28 BR   UNL     1       1.345   3.852  19.175  0.00  0.00    +0.000 Br
ATOM     29  C   UNL     1       2.273   6.440  18.399  0.00  0.00    +0.000 A 
ENDBRANCH  22  23
ENDBRANCH   2  21
TORSDOF 4
ENDMDL
MODEL 8
REMARK VINA RESULT:      -8.1      5.373      8.774
REMARK  Name = 
REMARK  5 active torsions:
REMARK  status: ('A' for Active; 'I' for Inactive)
REMARK    1  A    between atoms: C_1  and  C_2
REMARK    2  A    between atoms: C_4  and  S_5
REMARK    3  A    between atoms: S_5  and  N_8
REMARK    4  A    between atoms: C_9  and  C_10
REMARK    5  A    between atoms: C_11  and  C_12
REMARK                            x       y       z     vdW  Elec       q    Type
REMARK                         _______ _______ _______ _____ _____    ______ ____
ROOT
ATOM      1  N   UNL     1       0.755   9.679  19.849  0.00  0.00    +0.000 N 
ATOM      2  C   UNL     1       1.428   8.488  20.110  0.00  0.00    +0.000 A 
ATOM      3  N   UNL     1       1.271   8.184  21.392  0.00  0.00    +0.000 NA
ATOM      4  C   UNL     1       0.491   9.156  21.949  0.00  0.00    +0.000 A 
ATOM      5  C   UNL     1       0.068   9.283  23.281  0.00  0.00    +0.000 A 
ATOM      6  C   UNL     1      -0.748  10.361  23.634  0.00  0.00    +0.000 A 
ATOM      7  C   UNL     1      -1.142  11.289  22.674  0.00  0.00    +0.000 A 
ATOM      8  C   UNL     1      -0.729  11.175  21.340  0.00  0.00    +0.000 A 
ATOM      9  C   UNL     1       0.107  10.098  21.000  0.00  0.00    +0.000 A 
ENDROOT
BRANCH   1  10
ATOM     10  S   UNL     1       0.613  10.467  18.359  0.00  0.00    +0.000 S 
ATOM     11  O   UNL     1       1.167   9.566  17.365  0.00  0.00    +0.000 OA
ATOM     12  O   UNL     1       1.154  11.800  18.523  0.00  0.00    +0.000 OA
BRANCH  10  16
ATOM     13  C   UNL     1      -4.288  12.417  19.142  0.00  0.00    +0.000 C 
ATOM     14  C   UNL     1      -3.333  11.543  18.383  0.00  0.00    +0.000 A 
ATOM     15  C   UNL     1      -1.954  11.546  18.662  0.00  0.00    +0.000 A 
ATOM     16  C   UNL     1      -1.114  10.657  17.985  0.00  0.00    +0.000 A 
ATOM     17  C   UNL     1      -1.627   9.814  16.985  0.00  0.00    +0.000 A 
ATOM     18  C   UNL     1      -2.991   9.821  16.700  0.00  0.00    +0.000 A 
ATOM     19  C   UNL     1      -3.832  10.670  17.410  0.00  0.00    +0.000 A 
ATOM     20  F   UNL     1      -5.149  10.629  17.163  0.00  0.00    +0.000 F 
ENDBRANCH  10  16
ENDBRANCH   1  10
BRANCH   2  21
ATOM     21  C   UNL     1       2.179   7.720  19.167  0.00  0.00    +0.000 C 
ATOM     22  C   UNL     1       2.465   6.436  19.466  0.00  0.00    +0.000 C 
BRANCH  22  23
ATOM     23  C   UNL     1       3.212   5.465  18.643  0.00  0.00    +0.000 A 
ATOM     24  C   UNL     1       2.591   4.492  17.849  0.00  0.00    +0.000 A 
ATOM     25  C   UNL     1       3.353   3.632  17.046  0.00  0.00    +0.000 A 
ATOM     26  C   UNL     1       4.743   3.738  17.020  0.00  0.00    +0.000 A 
ATOM     27  C   UNL     1       5.367   4.712  17.793  0.00  0.00    +0.000 A 
ATOM     28 BR   UNL     1       7.251   4.875  17.753  0.00  0.00    +0.000 Br
ATOM     29  C   UNL     1       4.613   5.575  18.594  0.00  0.00    +0.000 A 
ENDBRANCH  22  23
ENDBRANCH   2  21
TORSDOF 4
ENDMDL
MODEL 9
REMARK VINA RESULT:      -8.1      5.867      8.896
REMARK  Name = 
REMARK  5 active torsions:
REMARK  status: ('A' for Active; 'I' for Inactive)
REMARK    1  A    between atoms: C_1  and  C_2
REMARK    2  A    between atoms: C_4  and  S_5
REMARK    3  A    between atoms: S_5  and  N_8
REMARK    4  A    between atoms: C_9  and  C_10
REMARK    5  A    between atoms: C_11  and  C_12
REMARK                            x       y       z     vdW  Elec       q    Type
REMARK                         _______ _______ _______ _____ _____    ______ ____
ROOT
ATOM      1  N   UNL     1       0.723  11.523  18.846  0.00  0.00    +0.000 N 
ATOM      2  C   UNL     1       1.753  10.861  18.183  0.00  0.00    +0.000 A 
ATOM      3  N   UNL     1       2.717  11.732  17.919  0.00  0.00    +0.000 NA
ATOM      4  C   UNL     1       2.325  12.939  18.421  0.00  0.00    +0.000 A 
ATOM      5  C   UNL     1       2.998  14.170  18.370  0.00  0.00    +0.000 A 
ATOM      6  C   UNL     1       2.412  15.288  18.969  0.00  0.00    +0.000 A 
ATOM      7  C   UNL     1       1.184  15.179  19.615  0.00  0.00    +0.000 A 
ATOM      8  C   UNL     1       0.500  13.958  19.675  0.00  0.00    +0.000 A 
ATOM      9  C   UNL     1       1.089  12.843  19.053  0.00  0.00    +0.000 A 
ENDROOT
BRANCH   1  10
ATOM     10  S   UNL     1      -0.711  10.849  19.438  0.00  0.00    +0.000 S 
ATOM     11  O   UNL     1      -1.200  11.757  20.459  0.00  0.00    +0.000 OA
ATOM     12  O   UNL     1      -0.437   9.463  19.759  0.00  0.00    +0.000 OA
BRANCH  10  16
ATOM     13  C   UNL     1      -5.340  12.193  17.156  0.00  0.00    +0.000 C 
ATOM     14  C   UNL     1      -4.034  11.454  17.131  0.00  0.00    +0.000 A 
ATOM     15  C   UNL     1      -3.080  11.613  18.152  0.00  0.00    +0.000 A 
ATOM     16  C   UNL     1      -1.912  10.843  18.128  0.00  0.00    +0.000 A 
ATOM     17  C   UNL     1      -1.660   9.967  17.060  0.00  0.00    +0.000 A 
ATOM     18  C   UNL     1      -2.600   9.820  16.042  0.00  0.00    +0.000 A 
ATOM     19  C   UNL     1      -3.782  10.548  16.094  0.00  0.00    +0.000 A 
ATOM     20  F   UNL     1      -4.700  10.359  15.136  0.00  0.00    +0.000 F 
ENDBRANCH  10  16
ENDBRANCH   1  10
BRANCH   2  21
ATOM     21  C   UNL     1       1.773   9.476  17.827  0.00  0.00    +0.000 C 
ATOM     22  C   UNL     1       2.795   8.714  18.267  0.00  0.00    +0.000 C 
BRANCH  22  23
ATOM     23  C   UNL     1       3.011   7.273  18.031  0.00  0.00    +0.000 A 
ATOM     24  C   UNL     1       2.105   6.283  18.435  0.00  0.00    +0.000 A 
ATOM     25  C   UNL     1       2.338   4.935  18.134  0.00  0.00    +0.000 A 
ATOM     26  C   UNL     1       3.475   4.558  17.420  0.00  0.00    +0.000 A 
ATOM     27  C   UNL     1       4.372   5.535  17.001  0.00  0.00    +0.000 A 
ATOM     28 BR   UNL     1       5.909   5.036  16.017  0.00  0.00    +0.000 Br
ATOM     29  C   UNL     1       4.143   6.883  17.295  0.00  0.00    +0.000 A 
ENDBRANCH  22  23
ENDBRANCH   2  21
TORSDOF 4
ENDMDL
