MODEL 1
REMARK VINA RESULT:      -8.1      0.000      0.000
REMARK  Name = 
REMARK  7 active torsions:
REMARK  status: ('A' for Active; 'I' for Inactive)
REMARK    1  A    between atoms: C_1  and  N_2
REMARK    2  A    between atoms: N_2  and  C_3
REMARK    3  A    between atoms: N_2  and  C_18
REMARK    4  A    between atoms: C_3  and  C_4
REMARK    5  A    between atoms: C_4  and  N_5
REMARK    6  A    between atoms: N_8  and  C_9
REMARK    7  A    between atoms: C_18  and  C_19
REMARK                            x       y       z     vdW  Elec       q    Type
REMARK                         _______ _______ _______ _____ _____    ______ ____
ROOT
ATOM      1  C   UNL     1       4.274   4.239  19.016  0.00  0.00    +0.000 C 
ENDROOT
BRANCH   1   2
ATOM      2  N   UNL     1       5.313   4.395  18.017  0.00  0.00    +0.000 N 
ATOM      3  C   UNL     1       6.588   5.016  18.266  0.00  0.00    +0.000 C 
ATOM      4  C   UNL     1       7.376   4.644  17.018  0.00  0.00    +0.000 C 
ATOM      5  N   UNL     1       6.349   4.475  16.011  0.00  0.00    +0.000 N 
ATOM      6  C   UNL     1       5.104   4.230  16.642  0.00  0.00    +0.000 C 
ATOM      7  O   UNL     1       4.041   3.912  16.140  0.00  0.00    +0.000 OA
BRANCH   5   8
ATOM      8  C   UNL     1       6.606   4.433  14.621  0.00  0.00    +0.000 A 
ATOM      9  C   UNL     1       7.505   5.329  14.027  0.00  0.00    +0.000 A 
ATOM     10  C   UNL     1       7.794   5.264  12.659  0.00  0.00    +0.000 A 
ATOM     11  C   UNL     1       7.172   4.310  11.861  0.00  0.00    +0.000 A 
ATOM     12  C   UNL     1       6.266   3.425  12.436  0.00  0.00    +0.000 A 
ATOM     13 CL   UNL     1       5.472   2.259  11.449  0.00  0.00    +0.000 Cl
ATOM     14  C   UNL     1       5.990   3.474  13.806  0.00  0.00    +0.000 A 
ENDBRANCH   5   8
ENDBRANCH   1   2
BRANCH   1  15
ATOM     15  C   UNL     1       3.838   5.559  19.685  0.00  0.00    +0.000 C 
BRANCH  15  17
ATOM     16  C   UNL     1       1.846   5.028  18.392  0.00  0.00    +0.000 C 
ATOM     17  N   UNL     1       2.448   5.962  19.356  0.00  0.00    +0.000 NA
BRANCH  17  18
ATOM     18  C   UNL     1       2.450   7.339  18.807  0.00  0.00    +0.000 C 
BRANCH  18  19
ATOM     19  C   UNL     1       1.698   8.300  19.691  0.00  0.00    +0.000 A 
ATOM     20  C   UNL     1       1.397   8.169  21.031  0.00  0.00    +0.000 A 
ATOM     21  C   UNL     1       0.544   9.211  21.524  0.00  0.00    +0.000 A 
ATOM     22  C   UNL     1      -0.036   9.397  22.801  0.00  0.00    +0.000 A 
ATOM     23  C   UNL     1      -0.869  10.493  23.047  0.00  0.00    +0.000 A 
ATOM     24  C   UNL     1      -1.131  11.414  22.042  0.00  0.00    +0.000 A 
ATOM     25  C   UNL     1      -0.569  11.258  20.773  0.00  0.00    +0.000 A 
ATOM     26  C   UNL     1       0.264  10.149  20.528  0.00  0.00    +0.000 A 
ATOM     27  S   UNL     1       1.049   9.746  19.049  0.00  0.00    +0.000 S 
ENDBRANCH  18  19
ENDBRANCH  17  18
ENDBRANCH  15  17
ENDBRANCH   1  15
TORSDOF 6
ENDMDL
MODEL 2
REMARK VINA RESULT:      -7.7      3.914      8.419
REMARK  Name = 
REMARK  7 active torsions:
REMARK  status: ('A' for Active; 'I' for Inactive)
REMARK    1  A    between atoms: C_1  and  N_2
REMARK    2  A    between atoms: N_2  and  C_3
REMARK    3  A    between atoms: N_2  and  C_18
REMARK    4  A    between atoms: C_3  and  C_4
REMARK    5  A    between atoms: C_4  and  N_5
REMARK    6  A    between atoms: N_8  and  C_9
REMARK    7  A    between atoms: C_18  and  C_19
REMARK                            x       y       z     vdW  Elec       q    Type
REMARK                         _______ _______ _______ _____ _____    ______ ____
ROOT
ATOM      1  C   UNL     1       3.755   7.222  17.275  0.00  0.00    +0.000 C 
ENDROOT
BRANCH   1   2
ATOM      2  N   UNL     1       2.853   7.660  18.321  0.00  0.00    +0.000 N 
ATOM      3  C   UNL     1       2.392   6.821  19.396  0.00  0.00    +0.000 C 
ATOM      4  C   UNL     1       1.752   7.830  20.339  0.00  0.00    +0.000 C 
ATOM      5  N   UNL     1       1.348   8.905  19.457  0.00  0.00    +0.000 N 
ATOM      6  C   UNL     1       2.102   8.841  18.259  0.00  0.00    +0.000 C 
ATOM      7  O   UNL     1       2.145   9.638  17.339  0.00  0.00    +0.000 OA
BRANCH   5   8
ATOM      8  C   UNL     1       0.436   9.923  19.820  0.00  0.00    +0.000 A 
ATOM      9  C   UNL     1       0.597  10.644  21.010  0.00  0.00    +0.000 A 
ATOM     10  C   UNL     1      -0.280  11.680  21.354  0.00  0.00    +0.000 A 
ATOM     11  C   UNL     1      -1.342  11.999  20.515  0.00  0.00    +0.000 A 
ATOM     12  C   UNL     1      -1.521  11.281  19.337  0.00  0.00    +0.000 A 
ATOM     13 CL   UNL     1      -2.850  11.653  18.308  0.00  0.00    +0.000 Cl
ATOM     14  C   UNL     1      -0.636  10.258  18.981  0.00  0.00    +0.000 A 
ENDBRANCH   5   8
ENDBRANCH   1   2
BRANCH   1  15
ATOM     15  C   UNL     1       4.855   6.252  17.755  0.00  0.00    +0.000 C 
BRANCH  15  17
ATOM     16  C   UNL     1       5.297   6.276  15.363  0.00  0.00    +0.000 C 
ATOM     17  N   UNL     1       5.651   5.662  16.652  0.00  0.00    +0.000 NA
BRANCH  17  18
ATOM     18  C   UNL     1       5.421   4.198  16.604  0.00  0.00    +0.000 C 
BRANCH  18  19
ATOM     19  C   UNL     1       4.392   3.756  17.612  0.00  0.00    +0.000 A 
ATOM     20  C   UNL     1       3.048   3.515  17.410  0.00  0.00    +0.000 A 
ATOM     21  C   UNL     1       2.333   3.243  18.622  0.00  0.00    +0.000 A 
ATOM     22  C   UNL     1       0.954   3.016  18.845  0.00  0.00    +0.000 A 
ATOM     23  C   UNL     1       0.473   2.794  20.139  0.00  0.00    +0.000 A 
ATOM     24  C   UNL     1       1.346   2.788  21.219  0.00  0.00    +0.000 A 
ATOM     25  C   UNL     1       2.713   3.005  21.029  0.00  0.00    +0.000 A 
ATOM     26  C   UNL     1       3.191   3.235  19.724  0.00  0.00    +0.000 A 
ATOM     27  S   UNL     1       4.820   3.539  19.253  0.00  0.00    +0.000 S 
ENDBRANCH  18  19
ENDBRANCH  17  18
ENDBRANCH  15  17
ENDBRANCH   1  15
TORSDOF 6
ENDMDL
MODEL 3
REMARK VINA RESULT:      -7.6      3.532      9.394
REMARK  Name = 
REMARK  7 active torsions:
REMARK  status: ('A' for Active; 'I' for Inactive)
REMARK    1  A    between atoms: C_1  and  N_2
REMARK    2  A    between atoms: N_2  and  C_3
REMARK    3  A    between atoms: N_2  and  C_18
REMARK    4  A    between atoms: C_3  and  C_4
REMARK    5  A    between atoms: C_4  and  N_5
REMARK    6  A    between atoms: N_8  and  C_9
REMARK    7  A    between atoms: C_18  and  C_19
REMARK                            x       y       z     vdW  Elec       q    Type
REMARK                         _______ _______ _______ _____ _____    ______ ____
ROOT
ATOM      1  C   UNL     1       3.265   6.247  19.112  0.00  0.00    +0.000 C 
ENDROOT
BRANCH   1   2
ATOM      2  N   UNL     1       2.366   7.290  19.565  0.00  0.00    +0.000 N 
ATOM      3  C   UNL     1       1.586   7.217  20.773  0.00  0.00    +0.000 C 
ATOM      4  C   UNL     1       1.087   8.647  20.920  0.00  0.00    +0.000 C 
ATOM      5  N   UNL     1       1.065   9.137  19.558  0.00  0.00    +0.000 N 
ATOM      6  C   UNL     1       1.929   8.349  18.759  0.00  0.00    +0.000 C 
ATOM      7  O   UNL     1       2.277   8.525  17.605  0.00  0.00    +0.000 OA
BRANCH   5   8
ATOM      8  C   UNL     1       0.381  10.306  19.150  0.00  0.00    +0.000 A 
ATOM      9  C   UNL     1       0.875  11.578  19.468  0.00  0.00    +0.000 A 
ATOM     10  C   UNL     1       0.223  12.738  19.032  0.00  0.00    +0.000 A 
ATOM     11  C   UNL     1      -0.944  12.640  18.283  0.00  0.00    +0.000 A 
ATOM     12  C   UNL     1      -1.453  11.382  17.974  0.00  0.00    +0.000 A 
ATOM     13 CL   UNL     1      -2.913  11.254  17.071  0.00  0.00    +0.000 Cl
ATOM     14  C   UNL     1      -0.794  10.221  18.391  0.00  0.00    +0.000 A 
ENDBRANCH   5   8
ENDBRANCH   1   2
BRANCH   1  15
ATOM     15  C   UNL     1       2.564   4.921  18.752  0.00  0.00    +0.000 C 
BRANCH  15  17
ATOM     16  C   UNL     1       3.444   2.658  18.908  0.00  0.00    +0.000 C 
ATOM     17  N   UNL     1       3.469   3.915  18.144  0.00  0.00    +0.000 NA
BRANCH  17  18
ATOM     18  C   UNL     1       4.847   4.458  18.092  0.00  0.00    +0.000 C 
BRANCH  18  19
ATOM     19  C   UNL     1       5.371   4.532  16.681  0.00  0.00    +0.000 A 
ATOM     20  C   UNL     1       4.892   3.889  15.558  0.00  0.00    +0.000 A 
ATOM     21  C   UNL     1       5.720   4.077  14.403  0.00  0.00    +0.000 A 
ATOM     22  C   UNL     1       5.613   3.538  13.098  0.00  0.00    +0.000 A 
ATOM     23  C   UNL     1       6.568   3.847  12.124  0.00  0.00    +0.000 A 
ATOM     24  C   UNL     1       7.628   4.691  12.426  0.00  0.00    +0.000 A 
ATOM     25  C   UNL     1       7.757   5.240  13.704  0.00  0.00    +0.000 A 
ATOM     26  C   UNL     1       6.796   4.921  14.683  0.00  0.00    +0.000 A 
ATOM     27  S   UNL     1       6.759   5.463  16.317  0.00  0.00    +0.000 S 
ENDBRANCH  18  19
ENDBRANCH  17  18
ENDBRANCH  15  17
ENDBRANCH   1  15
TORSDOF 6
ENDMDL
MODEL 4
REMARK VINA RESULT:      -7.5      4.182      8.570
REMARK  Name = 
REMARK  7 active torsions:
REMARK  status: ('A' for Active; 'I' for Inactive)
REMARK    1  A    between atoms: C_1  and  N_2
REMARK    2  A    between atoms: N_2  and  C_3
REMARK    3  A    between atoms: N_2  and  C_18
REMARK    4  A    between atoms: C_3  and  C_4
REMARK    5  A    between atoms: C_4  and  N_5
REMARK    6  A    between atoms: N_8  and  C_9
REMARK    7  A    between atoms: C_18  and  C_19
REMARK                            x       y       z     vdW  Elec       q    Type
REMARK                         _______ _______ _______ _____ _____    ______ ____
ROOT
ATOM      1  C   UNL     1       3.661   7.108  17.324  0.00  0.00    +0.000 C 
ENDROOT
BRANCH   1   2
ATOM      2  N   UNL     1       2.807   7.585  18.394  0.00  0.00    +0.000 N 
ATOM      3  C   UNL     1       2.427   6.798  19.537  0.00  0.00    +0.000 C 
ATOM      4  C   UNL     1       1.815   7.845  20.459  0.00  0.00    +0.000 C 
ATOM      5  N   UNL     1       1.337   8.860  19.543  0.00  0.00    +0.000 N 
ATOM      6  C   UNL     1       2.025   8.745  18.310  0.00  0.00    +0.000 C 
ATOM      7  O   UNL     1       1.998   9.490  17.347  0.00  0.00    +0.000 OA
BRANCH   5   8
ATOM      8  C   UNL     1       0.422   9.877  19.901  0.00  0.00    +0.000 A 
ATOM      9  C   UNL     1      -0.149  10.707  18.928  0.00  0.00    +0.000 A 
ATOM     10  C   UNL     1      -1.086  11.689  19.272  0.00  0.00    +0.000 A 
ATOM     11  C   UNL     1      -1.453  11.863  20.602  0.00  0.00    +0.000 A 
ATOM     12  C   UNL     1      -0.882  11.054  21.579  0.00  0.00    +0.000 A 
ATOM     13 CL   UNL     1      -1.311  11.284  23.231  0.00  0.00    +0.000 Cl
ATOM     14  C   UNL     1       0.040  10.060  21.237  0.00  0.00    +0.000 A 
ENDBRANCH   5   8
ENDBRANCH   1   2
BRANCH   1  15
ATOM     15  C   UNL     1       4.780   6.153  17.787  0.00  0.00    +0.000 C 
BRANCH  15  17
ATOM     16  C   UNL     1       5.328   6.276  15.420  0.00  0.00    +0.000 C 
ATOM     17  N   UNL     1       5.529   5.528  16.671  0.00  0.00    +0.000 NA
BRANCH  17  18
ATOM     18  C   UNL     1       5.088   4.122  16.506  0.00  0.00    +0.000 C 
BRANCH  18  19
ATOM     19  C   UNL     1       4.178   3.681  17.624  0.00  0.00    +0.000 A 
ATOM     20  C   UNL     1       2.805   3.542  17.603  0.00  0.00    +0.000 A 
ATOM     21  C   UNL     1       2.248   3.237  18.888  0.00  0.00    +0.000 A 
ATOM     22  C   UNL     1       0.900   3.086  19.292  0.00  0.00    +0.000 A 
ATOM     23  C   UNL     1       0.589   2.810  20.627  0.00  0.00    +0.000 A 
ATOM     24  C   UNL     1       1.600   2.675  21.569  0.00  0.00    +0.000 A 
ATOM     25  C   UNL     1       2.939   2.816  21.198  0.00  0.00    +0.000 A 
ATOM     26  C   UNL     1       3.247   3.100  19.853  0.00  0.00    +0.000 A 
ATOM     27  S   UNL     1       4.813   3.328  19.172  0.00  0.00    +0.000 S 
ENDBRANCH  18  19
ENDBRANCH  17  18
ENDBRANCH  15  17
ENDBRANCH   1  15
TORSDOF 6
ENDMDL
MODEL 5
REMARK VINA RESULT:      -7.4      3.396      5.975
REMARK  Name = 
REMARK  7 active torsions:
REMARK  status: ('A' for Active; 'I' for Inactive)
REMARK    1  A    between atoms: C_1  and  N_2
REMARK    2  A    between atoms: N_2  and  C_3
REMARK    3  A    between atoms: N_2  and  C_18
REMARK    4  A    between atoms: C_3  and  C_4
REMARK    5  A    between atoms: C_4  and  N_5
REMARK    6  A    between atoms: N_8  and  C_9
REMARK    7  A    between atoms: C_18  and  C_19
REMARK                            x       y       z     vdW  Elec       q    Type
REMARK                         _______ _______ _______ _____ _____    ______ ____
ROOT
ATOM      1  C   UNL     1       0.909  10.253  19.396  0.00  0.00    +0.000 C 
ENDROOT
BRANCH   1   2
ATOM      2  N   UNL     1       1.415   8.898  19.498  0.00  0.00    +0.000 N 
ATOM      3  C   UNL     1       1.561   8.180  20.737  0.00  0.00    +0.000 C 
ATOM      4  C   UNL     1       1.820   6.759  20.256  0.00  0.00    +0.000 C 
ATOM      5  N   UNL     1       2.422   6.951  18.953  0.00  0.00    +0.000 N 
ATOM      6  C   UNL     1       2.084   8.235  18.461  0.00  0.00    +0.000 C 
ATOM      7  O   UNL     1       2.288   8.710  17.358  0.00  0.00    +0.000 OA
BRANCH   5   8
ATOM      8  C   UNL     1       3.119   5.941  18.250  0.00  0.00    +0.000 A 
ATOM      9  C   UNL     1       2.487   4.743  17.893  0.00  0.00    +0.000 A 
ATOM     10  C   UNL     1       3.161   3.757  17.162  0.00  0.00    +0.000 A 
ATOM     11  C   UNL     1       4.487   3.952  16.791  0.00  0.00    +0.000 A 
ATOM     12  C   UNL     1       5.131   5.132  17.153  0.00  0.00    +0.000 A 
ATOM     13 CL   UNL     1       6.781   5.367  16.720  0.00  0.00    +0.000 Cl
ATOM     14  C   UNL     1       4.454   6.126  17.866  0.00  0.00    +0.000 A 
ENDBRANCH   5   8
ENDBRANCH   1   2
BRANCH   1  15
ATOM     15  C   UNL     1      -0.534  10.349  18.858  0.00  0.00    +0.000 C 
BRANCH  15  17
ATOM     16  C   UNL     1      -0.767  12.660  18.133  0.00  0.00    +0.000 C 
ATOM     17  N   UNL     1      -1.183  11.656  19.125  0.00  0.00    +0.000 NA
BRANCH  17  18
ATOM     18  C   UNL     1      -0.835  12.110  20.493  0.00  0.00    +0.000 C 
BRANCH  18  19
ATOM     19  C   UNL     1      -2.061  12.378  21.327  0.00  0.00    +0.000 A 
ATOM     20  C   UNL     1      -2.202  12.275  22.696  0.00  0.00    +0.000 A 
ATOM     21  C   UNL     1      -3.550  12.470  23.143  0.00  0.00    +0.000 A 
ATOM     22  C   UNL     1      -4.110  12.381  24.439  0.00  0.00    +0.000 A 
ATOM     23  C   UNL     1      -5.479  12.591  24.634  0.00  0.00    +0.000 A 
ATOM     24  C   UNL     1      -6.301  12.895  23.558  0.00  0.00    +0.000 A 
ATOM     25  C   UNL     1      -5.775  12.994  22.268  0.00  0.00    +0.000 A 
ATOM     26  C   UNL     1      -4.397  12.775  22.076  0.00  0.00    +0.000 A 
ATOM     27  S   UNL     1      -3.535  12.828  20.586  0.00  0.00    +0.000 S 
ENDBRANCH  18  19
ENDBRANCH  17  18
ENDBRANCH  15  17
ENDBRANCH   1  15
TORSDOF 6
ENDMDL
MODEL 6
REMARK VINA RESULT:      -7.3      3.514      6.119
REMARK  Name = 
REMARK  7 active torsions:
REMARK  status: ('A' for Active; 'I' for Inactive)
REMARK    1  A    between atoms: C_1  and  N_2
REMARK    2  A    between atoms: N_2  and  C_3
REMARK    3  A    between atoms: N_2  and  C_18
REMARK    4  A    between atoms: C_3  and  C_4
REMARK    5  A    between atoms: C_4  and  N_5
REMARK    6  A    between atoms: N_8  and  C_9
REMARK    7  A    between atoms: C_18  and  C_19
REMARK                            x       y       z     vdW  Elec       q    Type
REMARK                         _______ _______ _______ _____ _____    ______ ____
ROOT
ATOM      1  C   UNL     1       0.673   9.524  20.818  0.00  0.00    +0.000 C 
ENDROOT
BRANCH   1   2
ATOM      2  N   UNL     1       1.359   8.855  19.731  0.00  0.00    +0.000 N 
ATOM      3  C   UNL     1       1.415   9.354  18.382  0.00  0.00    +0.000 C 
ATOM      4  C   UNL     1       2.481   8.465  17.755  0.00  0.00    +0.000 C 
ATOM      5  N   UNL     1       2.404   7.248  18.536  0.00  0.00    +0.000 N 
ATOM      6  C   UNL     1       1.797   7.526  19.785  0.00  0.00    +0.000 C 
ATOM      7  O   UNL     1       1.675   6.799  20.755  0.00  0.00    +0.000 OA
BRANCH   5   8
ATOM      8  C   UNL     1       2.978   6.018  18.138  0.00  0.00    +0.000 A 
ATOM      9  C   UNL     1       2.177   4.896  17.888  0.00  0.00    +0.000 A 
ATOM     10  C   UNL     1       2.737   3.688  17.455  0.00  0.00    +0.000 A 
ATOM     11  C   UNL     1       4.112   3.582  17.280  0.00  0.00    +0.000 A 
ATOM     12  C   UNL     1       4.920   4.685  17.539  0.00  0.00    +0.000 A 
ATOM     13 CL   UNL     1       6.627   4.553  17.352  0.00  0.00    +0.000 Cl
ATOM     14  C   UNL     1       4.362   5.899  17.954  0.00  0.00    +0.000 A 
ENDBRANCH   5   8
ENDBRANCH   1   2
BRANCH   1  15
ATOM     15  C   UNL     1       1.001  11.026  20.943  0.00  0.00    +0.000 C 
BRANCH  15  17
ATOM     16  C   UNL     1      -0.905  10.854  22.445  0.00  0.00    +0.000 C 
ATOM     17  N   UNL     1       0.124  11.750  21.895  0.00  0.00    +0.000 NA
BRANCH  17  18
ATOM     18  C   UNL     1      -0.510  12.900  21.207  0.00  0.00    +0.000 C 
BRANCH  18  19
ATOM     19  C   UNL     1      -1.646  12.468  20.317  0.00  0.00    +0.000 A 
ATOM     20  C   UNL     1      -1.577  11.865  19.077  0.00  0.00    +0.000 A 
ATOM     21  C   UNL     1      -2.857  11.719  18.447  0.00  0.00    +0.000 A 
ATOM     22  C   UNL     1      -3.200  11.220  17.168  0.00  0.00    +0.000 A 
ATOM     23  C   UNL     1      -4.535  11.196  16.752  0.00  0.00    +0.000 A 
ATOM     24  C   UNL     1      -5.539  11.656  17.594  0.00  0.00    +0.000 A 
ATOM     25  C   UNL     1      -5.230  12.149  18.864  0.00  0.00    +0.000 A 
ATOM     26  C   UNL     1      -3.884  12.177  19.275  0.00  0.00    +0.000 A 
ATOM     27  S   UNL     1      -3.268  12.751  20.778  0.00  0.00    +0.000 S 
ENDBRANCH  18  19
ENDBRANCH  17  18
ENDBRANCH  15  17
ENDBRANCH   1  15
TORSDOF 6
ENDMDL
MODEL 7
REMARK VINA RESULT:      -7.2      7.569      9.349
REMARK  Name = 
REMARK  7 active torsions:
REMARK  status: ('A' for Active; 'I' for Inactive)
REMARK    1  A    between atoms: C_1  and  N_2
REMARK    2  A    between atoms: N_2  and  C_3
REMARK    3  A    between atoms: N_2  and  C_18
REMARK    4  A    between atoms: C_3  and  C_4
REMARK    5  A    between atoms: C_4  and  N_5
REMARK    6  A    between atoms: N_8  and  C_9
REMARK    7  A    between atoms: C_18  and  C_19
REMARK                            x       y       z     vdW  Elec       q    Type
REMARK                         _______ _______ _______ _____ _____    ______ ____
ROOT
ATOM      1  C   UNL     1       7.785   9.571  17.809  0.00  0.00    +0.000 C 
ENDROOT
BRANCH   1   2
ATOM      2  N   UNL     1       8.723  10.593  18.229  0.00  0.00    +0.000 N 
ATOM      3  C   UNL     1       9.634  10.450  19.334  0.00  0.00    +0.000 C 
ATOM      4  C   UNL     1      10.563  11.640  19.140  0.00  0.00    +0.000 C 
ATOM      5  N   UNL     1       9.736  12.601  18.440  0.00  0.00    +0.000 N 
ATOM      6  C   UNL     1       8.662  11.927  17.808  0.00  0.00    +0.000 C 
ATOM      7  O   UNL     1       7.837  12.367  17.027  0.00  0.00    +0.000 OA
BRANCH   5   8
ATOM      8  C   UNL     1      10.054  13.973  18.315  0.00  0.00    +0.000 A 
ATOM      9  C   UNL     1      10.839  14.437  17.251  0.00  0.00    +0.000 A 
ATOM     10  C   UNL     1      11.123  15.800  17.100  0.00  0.00    +0.000 A 
ATOM     11  C   UNL     1      10.637  16.718  18.025  0.00  0.00    +0.000 A 
ATOM     12  C   UNL     1       9.869  16.267  19.094  0.00  0.00    +0.000 A 
ATOM     13 CL   UNL     1       9.288  17.396  20.258  0.00  0.00    +0.000 Cl
ATOM     14  C   UNL     1       9.567  14.909  19.237  0.00  0.00    +0.000 A 
ENDBRANCH   5   8
ENDBRANCH   1   2
BRANCH   1  15
ATOM     15  C   UNL     1       8.324   8.130  17.930  0.00  0.00    +0.000 C 
BRANCH  15  17
ATOM     16  C   UNL     1       7.813   5.986  18.960  0.00  0.00    +0.000 C 
ATOM     17  N   UNL     1       7.271   7.121  18.197  0.00  0.00    +0.000 NA
BRANCH  17  18
ATOM     18  C   UNL     1       6.701   6.650  16.911  0.00  0.00    +0.000 C 
BRANCH  18  19
ATOM     19  C   UNL     1       5.472   5.802  17.116  0.00  0.00    +0.000 A 
ATOM     20  C   UNL     1       4.244   6.186  17.614  0.00  0.00    +0.000 A 
ATOM     21  C   UNL     1       3.343   5.087  17.804  0.00  0.00    +0.000 A 
ATOM     22  C   UNL     1       2.036   5.053  18.349  0.00  0.00    +0.000 A 
ATOM     23  C   UNL     1       1.347   3.842  18.460  0.00  0.00    +0.000 A 
ATOM     24  C   UNL     1       1.935   2.660  18.032  0.00  0.00    +0.000 A 
ATOM     25  C   UNL     1       3.222   2.663  17.487  0.00  0.00    +0.000 A 
ATOM     26  C   UNL     1       3.914   3.885  17.383  0.00  0.00    +0.000 A 
ATOM     27  S   UNL     1       5.503   4.129  16.764  0.00  0.00    +0.000 S 
ENDBRANCH  18  19
ENDBRANCH  17  18
ENDBRANCH  15  17
ENDBRANCH   1  15
TORSDOF 6
ENDMDL
MODEL 8
REMARK VINA RESULT:      -7.2      3.514      6.058
REMARK  Name = 
REMARK  7 active torsions:
REMARK  status: ('A' for Active; 'I' for Inactive)
REMARK    1  A    between atoms: C_1  and  N_2
REMARK    2  A    between atoms: N_2  and  C_3
REMARK    3  A    between atoms: N_2  and  C_18
REMARK    4  A    between atoms: C_3  and  C_4
REMARK    5  A    between atoms: C_4  and  N_5
REMARK    6  A    between atoms: N_8  and  C_9
REMARK    7  A    between atoms: C_18  and  C_19
REMARK                            x       y       z     vdW  Elec       q    Type
REMARK                         _______ _______ _______ _____ _____    ______ ____
ROOT
ATOM      1  C   UNL     1       0.843   9.655  20.463  0.00  0.00    +0.000 C 
ENDROOT
BRANCH   1   2
ATOM      2  N   UNL     1       1.564   8.926  19.439  0.00  0.00    +0.000 N 
ATOM      3  C   UNL     1       1.705   9.370  18.077  0.00  0.00    +0.000 C 
ATOM      4  C   UNL     1       2.775   8.429  17.541  0.00  0.00    +0.000 C 
ATOM      5  N   UNL     1       2.621   7.245  18.361  0.00  0.00    +0.000 N 
ATOM      6  C   UNL     1       1.959   7.588  19.565  0.00  0.00    +0.000 C 
ATOM      7  O   UNL     1       1.765   6.902  20.553  0.00  0.00    +0.000 OA
BRANCH   5   8
ATOM      8  C   UNL     1       3.178   5.985  18.039  0.00  0.00    +0.000 A 
ATOM      9  C   UNL     1       2.360   4.865  17.843  0.00  0.00    +0.000 A 
ATOM     10  C   UNL     1       2.904   3.625  17.484  0.00  0.00    +0.000 A 
ATOM     11  C   UNL     1       4.279   3.486  17.333  0.00  0.00    +0.000 A 
ATOM     12  C   UNL     1       5.103   4.589  17.540  0.00  0.00    +0.000 A 
ATOM     13 CL   UNL     1       6.809   4.417  17.381  0.00  0.00    +0.000 Cl
ATOM     14  C   UNL     1       4.562   5.833  17.879  0.00  0.00    +0.000 A 
ENDBRANCH   5   8
ENDBRANCH   1   2
BRANCH   1  15
ATOM     15  C   UNL     1      -0.479  10.284  19.978  0.00  0.00    +0.000 C 
BRANCH  15  17
ATOM     16  C   UNL     1       0.605  12.426  19.586  0.00  0.00    +0.000 C 
ATOM     17  N   UNL     1      -0.554  11.750  20.189  0.00  0.00    +0.000 NA
BRANCH  17  18
ATOM     18  C   UNL     1      -0.618  12.037  21.642  0.00  0.00    +0.000 C 
BRANCH  18  19
ATOM     19  C   UNL     1      -2.020  12.356  22.093  0.00  0.00    +0.000 A 
ATOM     20  C   UNL     1      -2.548  12.272  23.365  0.00  0.00    +0.000 A 
ATOM     21  C   UNL     1      -3.960  12.519  23.409  0.00  0.00    +0.000 A 
ATOM     22  C   UNL     1      -4.869  12.462  24.493  0.00  0.00    +0.000 A 
ATOM     23  C   UNL     1      -6.228  12.721  24.290  0.00  0.00    +0.000 A 
ATOM     24  C   UNL     1      -6.699  13.043  23.024  0.00  0.00    +0.000 A 
ATOM     25  C   UNL     1      -5.824  13.110  21.938  0.00  0.00    +0.000 A 
ATOM     26  C   UNL     1      -4.457  12.842  22.145  0.00  0.00    +0.000 A 
ATOM     27  S   UNL     1      -3.205  12.850  20.963  0.00  0.00    +0.000 S 
ENDBRANCH  18  19
ENDBRANCH  17  18
ENDBRANCH  15  17
ENDBRANCH   1  15
TORSDOF 6
ENDMDL
MODEL 9
REMARK VINA RESULT:      -7.2      3.534      6.222
REMARK  Name = 
REMARK  7 active torsions:
REMARK  status: ('A' for Active; 'I' for Inactive)
REMARK    1  A    between atoms: C_1  and  N_2
REMARK    2  A    between atoms: N_2  and  C_3
REMARK    3  A    between atoms: N_2  and  C_18
REMARK    4  A    between atoms: C_3  and  C_4
REMARK    5  A    between atoms: C_4  and  N_5
REMARK    6  A    between atoms: N_8  and  C_9
REMARK    7  A    between atoms: C_18  and  C_19
REMARK                            x       y       z     vdW  Elec       q    Type
REMARK                         _______ _______ _______ _____ _____    ______ ____
ROOT
ATOM      1  C   UNL     1       0.687  10.819  19.178  0.00  0.00    +0.000 C 
ENDROOT
BRANCH   1   2
ATOM      2  N   UNL     1       1.236   9.489  19.354  0.00  0.00    +0.000 N 
ATOM      3  C   UNL     1       1.461   8.869  20.633  0.00  0.00    +0.000 C 
ATOM      4  C   UNL     1       1.738   7.423  20.245  0.00  0.00    +0.000 C 
ATOM      5  N   UNL     1       2.272   7.532  18.903  0.00  0.00    +0.000 N 
ATOM      6  C   UNL     1       1.874   8.768  18.336  0.00  0.00    +0.000 C 
ATOM      7  O   UNL     1       2.012   9.164  17.193  0.00  0.00    +0.000 OA
BRANCH   5   8
ATOM      8  C   UNL     1       2.964   6.491  18.243  0.00  0.00    +0.000 A 
ATOM      9  C   UNL     1       4.213   6.718  17.651  0.00  0.00    +0.000 A 
ATOM     10  C   UNL     1       4.921   5.681  17.031  0.00  0.00    +0.000 A 
ATOM     11  C   UNL     1       4.378   4.401  16.982  0.00  0.00    +0.000 A 
ATOM     12  C   UNL     1       3.131   4.167  17.554  0.00  0.00    +0.000 A 
ATOM     13 CL   UNL     1       2.441   2.591  17.472  0.00  0.00    +0.000 Cl
ATOM     14  C   UNL     1       2.430   5.196  18.190  0.00  0.00    +0.000 A 
ENDBRANCH   5   8
ENDBRANCH   1   2
BRANCH   1  15
ATOM     15  C   UNL     1       1.301  11.884  20.111  0.00  0.00    +0.000 C 
BRANCH  15  17
ATOM     16  C   UNL     1       0.893  13.909  21.396  0.00  0.00    +0.000 C 
ATOM     17  N   UNL     1       0.293  12.682  20.848  0.00  0.00    +0.000 NA
BRANCH  17  18
ATOM     18  C   UNL     1      -0.286  11.862  21.939  0.00  0.00    +0.000 C 
BRANCH  18  19
ATOM     19  C   UNL     1      -1.713  12.244  22.237  0.00  0.00    +0.000 A 
ATOM     20  C   UNL     1      -2.358  12.251  23.457  0.00  0.00    +0.000 A 
ATOM     21  C   UNL     1      -3.759  12.536  23.354  0.00  0.00    +0.000 A 
ATOM     22  C   UNL     1      -4.765  12.569  24.349  0.00  0.00    +0.000 A 
ATOM     23  C   UNL     1      -6.091  12.849  24.005  0.00  0.00    +0.000 A 
ATOM     24  C   UNL     1      -6.433  13.105  22.684  0.00  0.00    +0.000 A 
ATOM     25  C   UNL     1      -5.460  13.083  21.682  0.00  0.00    +0.000 A 
ATOM     26  C   UNL     1      -4.127  12.794  22.032  0.00  0.00    +0.000 A 
ATOM     27  S   UNL     1      -2.772  12.697  20.974  0.00  0.00    +0.000 S 
ENDBRANCH  18  19
ENDBRANCH  17  18
ENDBRANCH  15  17
ENDBRANCH   1  15
TORSDOF 6
ENDMDL
