MODEL 1
REMARK VINA RESULT:      -5.9      0.000      0.000
REMARK  Name = 
REMARK  15 active torsions:
REMARK  status: ('A' for Active; 'I' for Inactive)
REMARK    1  A    between atoms: C_1  and  C_2
REMARK    2  A    between atoms: C_2  and  C_3
REMARK    3  A    between atoms: C_4  and  C_5
REMARK    4  A    between atoms: C_5  and  C_6
REMARK    5  A    between atoms: C_6  and  C_7
REMARK    6  A    between atoms: C_7  and  C_8
REMARK    7  A    between atoms: C_7  and  C_9
REMARK    8  A    between atoms: C_9  and  C_10
REMARK    9  A    between atoms: C_11  and  C_12
REMARK   10  A    between atoms: C_12  and  C_13
REMARK   11  A    between atoms: C_14  and  C_15
REMARK   12  A    between atoms: C_15  and  O_17
REMARK   13  A    between atoms: O_17  and  C_18
REMARK   14  A    between atoms: C_18  and  C_19
REMARK   15  A    between atoms: C_18  and  C_20
REMARK                            x       y       z     vdW  Elec       q    Type
REMARK                         _______ _______ _______ _____ _____    ______ ____
ROOT
ATOM      1  C   UNL     1       4.033   7.217  17.623  0.00  0.00    +0.000 C 
ATOM      2  C   UNL     1       2.715   7.474  17.617  0.00  0.00    +0.000 C 
ENDROOT
BRANCH   2   3
ATOM      3  C   UNL     1       2.001   8.280  18.615  0.00  0.00    +0.000 C 
ATOM      4  C   UNL     1       1.902   7.767  20.037  0.00  0.00    +0.000 C 
ATOM      5  C   UNL     1       1.492   9.490  18.283  0.00  0.00    +0.000 C 
BRANCH   5   6
ATOM      6  C   UNL     1       0.703  10.315  19.238  0.00  0.00    +0.000 C 
ATOM      7  O   UNL     1       1.174  11.139  20.004  0.00  0.00    +0.000 OA
BRANCH   6   8
ATOM      8  O   UNL     1      -0.621  10.024  19.124  0.00  0.00    +0.000 OA
BRANCH   8   9
ATOM      9  C   UNL     1      -1.312  10.823  18.136  0.00  0.00    +0.000 C 
ATOM     10  C   UNL     1      -2.103   9.914  17.198  0.00  0.00    +0.000 C 
ATOM     11  C   UNL     1      -2.244  11.793  18.851  0.00  0.00    +0.000 C 
ENDBRANCH   8   9
ENDBRANCH   6   8
ENDBRANCH   5   6
ENDBRANCH   2   3
BRANCH   1  12
ATOM     12  C   UNL     1       4.812   6.454  16.583  0.00  0.00    +0.000 C 
BRANCH  12  13
ATOM     13  C   UNL     1       5.533   5.206  17.158  0.00  0.00    +0.000 C 
ATOM     14  C   UNL     1       5.137   3.970  16.340  0.00  0.00    +0.000 C 
BRANCH  13  15
ATOM     15  C   UNL     1       5.253   4.988  18.667  0.00  0.00    +0.000 C 
BRANCH  15  16
ATOM     16  C   UNL     1       4.566   3.649  18.964  0.00  0.00    +0.000 C 
BRANCH  16  20
ATOM     17  C   UNL     1       0.950   4.212  20.337  0.00  0.00    +0.000 C 
ATOM     18  C   UNL     1       2.074   3.985  19.363  0.00  0.00    +0.000 C 
ATOM     19  C   UNL     1       1.722   3.969  17.902  0.00  0.00    +0.000 C 
ATOM     20  C   UNL     1       3.334   3.819  19.813  0.00  0.00    +0.000 C 
ENDBRANCH  16  20
ENDBRANCH  15  16
ENDBRANCH  13  15
ENDBRANCH  12  13
ENDBRANCH   1  12
TORSDOF 9
ENDMDL
MODEL 2
REMARK VINA RESULT:      -5.8      4.204      6.457
REMARK  Name = 
REMARK  15 active torsions:
REMARK  status: ('A' for Active; 'I' for Inactive)
REMARK    1  A    between atoms: C_1  and  C_2
REMARK    2  A    between atoms: C_2  and  C_3
REMARK    3  A    between atoms: C_4  and  C_5
REMARK    4  A    between atoms: C_5  and  C_6
REMARK    5  A    between atoms: C_6  and  C_7
REMARK    6  A    between atoms: C_7  and  C_8
REMARK    7  A    between atoms: C_7  and  C_9
REMARK    8  A    between atoms: C_9  and  C_10
REMARK    9  A    between atoms: C_11  and  C_12
REMARK   10  A    between atoms: C_12  and  C_13
REMARK   11  A    between atoms: C_14  and  C_15
REMARK   12  A    between atoms: C_15  and  O_17
REMARK   13  A    between atoms: O_17  and  C_18
REMARK   14  A    between atoms: C_18  and  C_19
REMARK   15  A    between atoms: C_18  and  C_20
REMARK                            x       y       z     vdW  Elec       q    Type
REMARK                         _______ _______ _______ _____ _____    ______ ____
ROOT
ATOM      1  C   UNL     1       2.594   5.489  19.659  0.00  0.00    +0.000 C 
ATOM      2  C   UNL     1       3.935   5.415  19.697  0.00  0.00    +0.000 C 
ENDROOT
BRANCH   2   3
ATOM      3  C   UNL     1       4.834   5.676  18.567  0.00  0.00    +0.000 C 
ATOM      4  C   UNL     1       6.330   5.562  18.778  0.00  0.00    +0.000 C 
ATOM      5  C   UNL     1       4.331   5.955  17.341  0.00  0.00    +0.000 C 
BRANCH   5   6
ATOM      6  C   UNL     1       5.198   6.292  16.179  0.00  0.00    +0.000 C 
ATOM      7  O   UNL     1       5.920   7.272  16.107  0.00  0.00    +0.000 OA
BRANCH   6   8
ATOM      8  O   UNL     1       5.077   5.341  15.213  0.00  0.00    +0.000 OA
BRANCH   8   9
ATOM      9  C   UNL     1       6.337   4.932  14.634  0.00  0.00    +0.000 C 
ATOM     10  C   UNL     1       7.238   4.347  15.718  0.00  0.00    +0.000 C 
ATOM     11  C   UNL     1       6.067   3.898  13.548  0.00  0.00    +0.000 C 
ENDBRANCH   8   9
ENDBRANCH   6   8
ENDBRANCH   5   6
ENDBRANCH   2   3
BRANCH   1  12
ATOM     12  C   UNL     1       1.643   5.297  20.811  0.00  0.00    +0.000 C 
BRANCH  12  13
ATOM     13  C   UNL     1       0.900   3.935  20.764  0.00  0.00    +0.000 C 
ATOM     14  C   UNL     1       1.716   2.886  21.530  0.00  0.00    +0.000 C 
BRANCH  13  15
ATOM     15  C   UNL     1       0.599   3.459  19.319  0.00  0.00    +0.000 C 
BRANCH  15  16
ATOM     16  C   UNL     1       1.239   2.106  18.986  0.00  0.00    +0.000 C 
BRANCH  16  20
ATOM     17  C   UNL     1       4.525   2.369  16.886  0.00  0.00    +0.000 C 
ATOM     18  C   UNL     1       3.612   2.169  18.065  0.00  0.00    +0.000 C 
ATOM     19  C   UNL     1       4.259   1.930  19.400  0.00  0.00    +0.000 C 
ATOM     20  C   UNL     1       2.275   2.220  17.899  0.00  0.00    +0.000 C 
ENDBRANCH  16  20
ENDBRANCH  15  16
ENDBRANCH  13  15
ENDBRANCH  12  13
ENDBRANCH   1  12
TORSDOF 9
ENDMDL
MODEL 3
REMARK VINA RESULT:      -5.7      1.381      1.940
REMARK  Name = 
REMARK  15 active torsions:
REMARK  status: ('A' for Active; 'I' for Inactive)
REMARK    1  A    between atoms: C_1  and  C_2
REMARK    2  A    between atoms: C_2  and  C_3
REMARK    3  A    between atoms: C_4  and  C_5
REMARK    4  A    between atoms: C_5  and  C_6
REMARK    5  A    between atoms: C_6  and  C_7
REMARK    6  A    between atoms: C_7  and  C_8
REMARK    7  A    between atoms: C_7  and  C_9
REMARK    8  A    between atoms: C_9  and  C_10
REMARK    9  A    between atoms: C_11  and  C_12
REMARK   10  A    between atoms: C_12  and  C_13
REMARK   11  A    between atoms: C_14  and  C_15
REMARK   12  A    between atoms: C_15  and  O_17
REMARK   13  A    between atoms: O_17  and  C_18
REMARK   14  A    between atoms: C_18  and  C_19
REMARK   15  A    between atoms: C_18  and  C_20
REMARK                            x       y       z     vdW  Elec       q    Type
REMARK                         _______ _______ _______ _____ _____    ______ ____
ROOT
ATOM      1  C   UNL     1       4.035   5.893  18.732  0.00  0.00    +0.000 C 
ATOM      2  C   UNL     1       2.909   6.223  19.388  0.00  0.00    +0.000 C 
ENDROOT
BRANCH   2   3
ATOM      3  C   UNL     1       2.243   7.530  19.328  0.00  0.00    +0.000 C 
ATOM      4  C   UNL     1       1.579   8.072  20.578  0.00  0.00    +0.000 C 
ATOM      5  C   UNL     1       2.273   8.264  18.191  0.00  0.00    +0.000 C 
BRANCH   5   6
ATOM      6  C   UNL     1       1.557   9.562  18.059  0.00  0.00    +0.000 C 
ATOM      7  O   UNL     1       2.081  10.661  18.136  0.00  0.00    +0.000 OA
BRANCH   6   8
ATOM      8  O   UNL     1       0.233   9.345  17.827  0.00  0.00    +0.000 OA
BRANCH   8   9
ATOM      9  C   UNL     1      -0.610  10.472  18.158  0.00  0.00    +0.000 C 
ATOM     10  C   UNL     1      -1.942  10.355  17.420  0.00  0.00    +0.000 C 
ATOM     11  C   UNL     1      -0.835  10.493  19.665  0.00  0.00    +0.000 C 
ENDBRANCH   8   9
ENDBRANCH   6   8
ENDBRANCH   5   6
ENDBRANCH   2   3
BRANCH   1  12
ATOM     12  C   UNL     1       4.710   4.547  18.713  0.00  0.00    +0.000 C 
BRANCH  12  13
ATOM     13  C   UNL     1       4.357   3.708  17.456  0.00  0.00    +0.000 C 
ATOM     14  C   UNL     1       5.034   4.329  16.227  0.00  0.00    +0.000 C 
BRANCH  13  15
ATOM     15  C   UNL     1       2.829   3.563  17.235  0.00  0.00    +0.000 C 
BRANCH  15  16
ATOM     16  C   UNL     1       2.248   2.292  17.866  0.00  0.00    +0.000 C 
BRANCH  16  20
ATOM     17  C   UNL     1       2.354   2.684  21.754  0.00  0.00    +0.000 C 
ATOM     18  C   UNL     1       1.886   2.820  20.330  0.00  0.00    +0.000 C 
ATOM     19  C   UNL     1       0.676   3.678  20.086  0.00  0.00    +0.000 C 
ATOM     20  C   UNL     1       2.553   2.198  19.338  0.00  0.00    +0.000 C 
ENDBRANCH  16  20
ENDBRANCH  15  16
ENDBRANCH  13  15
ENDBRANCH  12  13
ENDBRANCH   1  12
TORSDOF 9
ENDMDL
MODEL 4
REMARK VINA RESULT:      -5.6      6.969      9.731
REMARK  Name = 
REMARK  15 active torsions:
REMARK  status: ('A' for Active; 'I' for Inactive)
REMARK    1  A    between atoms: C_1  and  C_2
REMARK    2  A    between atoms: C_2  and  C_3
REMARK    3  A    between atoms: C_4  and  C_5
REMARK    4  A    between atoms: C_5  and  C_6
REMARK    5  A    between atoms: C_6  and  C_7
REMARK    6  A    between atoms: C_7  and  C_8
REMARK    7  A    between atoms: C_7  and  C_9
REMARK    8  A    between atoms: C_9  and  C_10
REMARK    9  A    between atoms: C_11  and  C_12
REMARK   10  A    between atoms: C_12  and  C_13
REMARK   11  A    between atoms: C_14  and  C_15
REMARK   12  A    between atoms: C_15  and  O_17
REMARK   13  A    between atoms: O_17  and  C_18
REMARK   14  A    between atoms: C_18  and  C_19
REMARK   15  A    between atoms: C_18  and  C_20
REMARK                            x       y       z     vdW  Elec       q    Type
REMARK                         _______ _______ _______ _____ _____    ______ ____
ROOT
ATOM      1  C   UNL     1       8.849   9.336  18.638  0.00  0.00    +0.000 C 
ATOM      2  C   UNL     1       7.998   8.845  17.721  0.00  0.00    +0.000 C 
ENDROOT
BRANCH   2   3
ATOM      3  C   UNL     1       7.581   7.442  17.613  0.00  0.00    +0.000 C 
ATOM      4  C   UNL     1       6.853   6.987  16.364  0.00  0.00    +0.000 C 
ATOM      5  C   UNL     1       7.894   6.556  18.588  0.00  0.00    +0.000 C 
BRANCH   5   6
ATOM      6  C   UNL     1       7.437   5.140  18.558  0.00  0.00    +0.000 C 
ATOM      7  O   UNL     1       8.029   4.226  18.009  0.00  0.00    +0.000 OA
BRANCH   6   8
ATOM      8  O   UNL     1       6.269   5.011  19.243  0.00  0.00    +0.000 OA
BRANCH   8   9
ATOM      9  C   UNL     1       5.303   4.153  18.594  0.00  0.00    +0.000 C 
ATOM     10  C   UNL     1       4.638   3.248  19.628  0.00  0.00    +0.000 C 
ATOM     11  C   UNL     1       4.263   5.021  17.897  0.00  0.00    +0.000 C 
ENDBRANCH   8   9
ENDBRANCH   6   8
ENDBRANCH   5   6
ENDBRANCH   2   3
BRANCH   1  12
ATOM     12  C   UNL     1       9.248  10.776  18.824  0.00  0.00    +0.000 C 
BRANCH  12  13
ATOM     13  C   UNL     1      10.001  11.031  20.157  0.00  0.00    +0.000 C 
ATOM     14  C   UNL     1       9.060  11.730  21.145  0.00  0.00    +0.000 C 
BRANCH  13  15
ATOM     15  C   UNL     1      11.310  11.841  19.966  0.00  0.00    +0.000 C 
BRANCH  15  16
ATOM     16  C   UNL     1      11.133  13.340  20.234  0.00  0.00    +0.000 C 
BRANCH  16  20
ATOM     17  C   UNL     1      11.225  15.369  16.893  0.00  0.00    +0.000 C 
ATOM     18  C   UNL     1      10.683  14.591  18.062  0.00  0.00    +0.000 C 
ATOM     19  C   UNL     1       9.208  14.298  18.065  0.00  0.00    +0.000 C 
ATOM     20  C   UNL     1      11.512  14.179  19.042  0.00  0.00    +0.000 C 
ENDBRANCH  16  20
ENDBRANCH  15  16
ENDBRANCH  13  15
ENDBRANCH  12  13
ENDBRANCH   1  12
TORSDOF 9
ENDMDL
MODEL 5
REMARK VINA RESULT:      -5.6      1.536      2.306
REMARK  Name = 
REMARK  15 active torsions:
REMARK  status: ('A' for Active; 'I' for Inactive)
REMARK    1  A    between atoms: C_1  and  C_2
REMARK    2  A    between atoms: C_2  and  C_3
REMARK    3  A    between atoms: C_4  and  C_5
REMARK    4  A    between atoms: C_5  and  C_6
REMARK    5  A    between atoms: C_6  and  C_7
REMARK    6  A    between atoms: C_7  and  C_8
REMARK    7  A    between atoms: C_7  and  C_9
REMARK    8  A    between atoms: C_9  and  C_10
REMARK    9  A    between atoms: C_11  and  C_12
REMARK   10  A    between atoms: C_12  and  C_13
REMARK   11  A    between atoms: C_14  and  C_15
REMARK   12  A    between atoms: C_15  and  O_17
REMARK   13  A    between atoms: O_17  and  C_18
REMARK   14  A    between atoms: C_18  and  C_19
REMARK   15  A    between atoms: C_18  and  C_20
REMARK                            x       y       z     vdW  Elec       q    Type
REMARK                         _______ _______ _______ _____ _____    ______ ____
ROOT
ATOM      1  C   UNL     1       3.753   5.786  18.672  0.00  0.00    +0.000 C 
ATOM      2  C   UNL     1       3.451   6.947  18.067  0.00  0.00    +0.000 C 
ENDROOT
BRANCH   2   3
ATOM      3  C   UNL     1       2.428   7.900  18.518  0.00  0.00    +0.000 C 
ATOM      4  C   UNL     1       1.883   7.779  19.927  0.00  0.00    +0.000 C 
ATOM      5  C   UNL     1       2.024   8.906  17.707  0.00  0.00    +0.000 C 
BRANCH   5   6
ATOM      6  C   UNL     1       0.944   9.856  18.090  0.00  0.00    +0.000 C 
ATOM      7  O   UNL     1      -0.244   9.686  17.878  0.00  0.00    +0.000 OA
BRANCH   6   8
ATOM      8  O   UNL     1       1.476  10.938  18.723  0.00  0.00    +0.000 OA
BRANCH   8   9
ATOM      9  C   UNL     1       0.501  11.739  19.428  0.00  0.00    +0.000 C 
ATOM     10  C   UNL     1       0.699  11.589  20.935  0.00  0.00    +0.000 C 
ATOM     11  C   UNL     1       0.666  13.195  19.011  0.00  0.00    +0.000 C 
ENDBRANCH   8   9
ENDBRANCH   6   8
ENDBRANCH   5   6
ENDBRANCH   2   3
BRANCH   1  12
ATOM     12  C   UNL     1       4.839   4.818  18.282  0.00  0.00    +0.000 C 
BRANCH  12  13
ATOM     13  C   UNL     1       4.373   3.775  17.230  0.00  0.00    +0.000 C 
ATOM     14  C   UNL     1       4.942   4.153  15.856  0.00  0.00    +0.000 C 
BRANCH  13  15
ATOM     15  C   UNL     1       2.831   3.623  17.172  0.00  0.00    +0.000 C 
BRANCH  15  16
ATOM     16  C   UNL     1       2.334   2.302  17.771  0.00  0.00    +0.000 C 
BRANCH  16  20
ATOM     17  C   UNL     1       2.451   2.711  21.657  0.00  0.00    +0.000 C 
ATOM     18  C   UNL     1       1.995   2.864  20.231  0.00  0.00    +0.000 C 
ATOM     19  C   UNL     1       0.835   3.786  19.979  0.00  0.00    +0.000 C 
ATOM     20  C   UNL     1       2.629   2.200  19.244  0.00  0.00    +0.000 C 
ENDBRANCH  16  20
ENDBRANCH  15  16
ENDBRANCH  13  15
ENDBRANCH  12  13
ENDBRANCH   1  12
TORSDOF 9
ENDMDL
MODEL 6
REMARK VINA RESULT:      -5.6      3.607      7.279
REMARK  Name = 
REMARK  15 active torsions:
REMARK  status: ('A' for Active; 'I' for Inactive)
REMARK    1  A    between atoms: C_1  and  C_2
REMARK    2  A    between atoms: C_2  and  C_3
REMARK    3  A    between atoms: C_4  and  C_5
REMARK    4  A    between atoms: C_5  and  C_6
REMARK    5  A    between atoms: C_6  and  C_7
REMARK    6  A    between atoms: C_7  and  C_8
REMARK    7  A    between atoms: C_7  and  C_9
REMARK    8  A    between atoms: C_9  and  C_10
REMARK    9  A    between atoms: C_11  and  C_12
REMARK   10  A    between atoms: C_12  and  C_13
REMARK   11  A    between atoms: C_14  and  C_15
REMARK   12  A    between atoms: C_15  and  O_17
REMARK   13  A    between atoms: O_17  and  C_18
REMARK   14  A    between atoms: C_18  and  C_19
REMARK   15  A    between atoms: C_18  and  C_20
REMARK                            x       y       z     vdW  Elec       q    Type
REMARK                         _______ _______ _______ _____ _____    ______ ____
ROOT
ATOM      1  C   UNL     1       4.188   3.954  19.425  0.00  0.00    +0.000 C 
ATOM      2  C   UNL     1       4.533   3.685  18.155  0.00  0.00    +0.000 C 
ENDROOT
BRANCH   2   3
ATOM      3  C   UNL     1       5.243   4.601  17.254  0.00  0.00    +0.000 C 
ATOM      4  C   UNL     1       4.504   5.802  16.699  0.00  0.00    +0.000 C 
ATOM      5  C   UNL     1       6.553   4.408  16.971  0.00  0.00    +0.000 C 
BRANCH   5   6
ATOM      6  C   UNL     1       7.300   5.267  16.013  0.00  0.00    +0.000 C 
ATOM      7  O   UNL     1       7.569   6.443  16.192  0.00  0.00    +0.000 OA
BRANCH   6   8
ATOM      8  O   UNL     1       7.649   4.547  14.912  0.00  0.00    +0.000 OA
BRANCH   8   9
ATOM      9  C   UNL     1       6.939   4.932  13.713  0.00  0.00    +0.000 C 
ATOM     10  C   UNL     1       7.926   5.464  12.676  0.00  0.00    +0.000 C 
ATOM     11  C   UNL     1       6.196   3.718  13.169  0.00  0.00    +0.000 C 
ENDBRANCH   8   9
ENDBRANCH   6   8
ENDBRANCH   5   6
ENDBRANCH   2   3
BRANCH   1  12
ATOM     12  C   UNL     1       3.523   3.020  20.401  0.00  0.00    +0.000 C 
BRANCH  12  13
ATOM     13  C   UNL     1       2.383   3.695  21.209  0.00  0.00    +0.000 C 
ATOM     14  C   UNL     1       1.480   2.612  21.813  0.00  0.00    +0.000 C 
BRANCH  13  15
ATOM     15  C   UNL     1       1.558   4.701  20.365  0.00  0.00    +0.000 C 
BRANCH  15  16
ATOM     16  C   UNL     1       1.919   6.164  20.650  0.00  0.00    +0.000 C 
BRANCH  16  20
ATOM     17  C   UNL     1       2.409   8.728  17.740  0.00  0.00    +0.000 C 
ATOM     18  C   UNL     1       1.968   8.151  19.058  0.00  0.00    +0.000 C 
ATOM     19  C   UNL     1       1.111   9.020  19.934  0.00  0.00    +0.000 C 
ATOM     20  C   UNL     1       2.333   6.900  19.403  0.00  0.00    +0.000 C 
ENDBRANCH  16  20
ENDBRANCH  15  16
ENDBRANCH  13  15
ENDBRANCH  12  13
ENDBRANCH   1  12
TORSDOF 9
ENDMDL
MODEL 7
REMARK VINA RESULT:      -5.6      6.729      9.357
REMARK  Name = 
REMARK  15 active torsions:
REMARK  status: ('A' for Active; 'I' for Inactive)
REMARK    1  A    between atoms: C_1  and  C_2
REMARK    2  A    between atoms: C_2  and  C_3
REMARK    3  A    between atoms: C_4  and  C_5
REMARK    4  A    between atoms: C_5  and  C_6
REMARK    5  A    between atoms: C_6  and  C_7
REMARK    6  A    between atoms: C_7  and  C_8
REMARK    7  A    between atoms: C_7  and  C_9
REMARK    8  A    between atoms: C_9  and  C_10
REMARK    9  A    between atoms: C_11  and  C_12
REMARK   10  A    between atoms: C_12  and  C_13
REMARK   11  A    between atoms: C_14  and  C_15
REMARK   12  A    between atoms: C_15  and  O_17
REMARK   13  A    between atoms: O_17  and  C_18
REMARK   14  A    between atoms: C_18  and  C_19
REMARK   15  A    between atoms: C_18  and  C_20
REMARK                            x       y       z     vdW  Elec       q    Type
REMARK                         _______ _______ _______ _____ _____    ______ ____
ROOT
ATOM      1  C   UNL     1       8.455   8.998  18.442  0.00  0.00    +0.000 C 
ATOM      2  C   UNL     1       7.879   8.296  17.452  0.00  0.00    +0.000 C 
ENDROOT
BRANCH   2   3
ATOM      3  C   UNL     1       7.295   6.956  17.587  0.00  0.00    +0.000 C 
ATOM      4  C   UNL     1       7.688   6.101  18.774  0.00  0.00    +0.000 C 
ATOM      5  C   UNL     1       6.374   6.516  16.697  0.00  0.00    +0.000 C 
BRANCH   5   6
ATOM      6  C   UNL     1       5.802   5.143  16.751  0.00  0.00    +0.000 C 
ATOM      7  O   UNL     1       6.448   4.113  16.658  0.00  0.00    +0.000 OA
BRANCH   6   8
ATOM      8  O   UNL     1       4.455   5.204  16.931  0.00  0.00    +0.000 OA
BRANCH   8   9
ATOM      9  C   UNL     1       3.986   4.477  18.089  0.00  0.00    +0.000 C 
ATOM     10  C   UNL     1       4.186   5.322  19.345  0.00  0.00    +0.000 C 
ATOM     11  C   UNL     1       2.512   4.144  17.899  0.00  0.00    +0.000 C 
ENDBRANCH   8   9
ENDBRANCH   6   8
ENDBRANCH   5   6
ENDBRANCH   2   3
BRANCH   1  12
ATOM     12  C   UNL     1       9.002  10.398  18.360  0.00  0.00    +0.000 C 
BRANCH  12  13
ATOM     13  C   UNL     1      10.064  10.700  19.451  0.00  0.00    +0.000 C 
ATOM     14  C   UNL     1       9.367  11.279  20.689  0.00  0.00    +0.000 C 
BRANCH  13  15
ATOM     15  C   UNL     1      11.190  11.643  18.954  0.00  0.00    +0.000 C 
BRANCH  15  16
ATOM     16  C   UNL     1      10.921  12.219  17.558  0.00  0.00    +0.000 C 
BRANCH  16  20
ATOM     17  C   UNL     1       9.956  16.006  17.663  0.00  0.00    +0.000 C 
ATOM     18  C   UNL     1      10.789  14.761  17.513  0.00  0.00    +0.000 C 
ATOM     19  C   UNL     1      12.259  14.947  17.262  0.00  0.00    +0.000 C 
ATOM     20  C   UNL     1      10.214  13.547  17.618  0.00  0.00    +0.000 C 
ENDBRANCH  16  20
ENDBRANCH  15  16
ENDBRANCH  13  15
ENDBRANCH  12  13
ENDBRANCH   1  12
TORSDOF 9
ENDMDL
MODEL 8
REMARK VINA RESULT:      -5.6      3.263      6.198
REMARK  Name = 
REMARK  15 active torsions:
REMARK  status: ('A' for Active; 'I' for Inactive)
REMARK    1  A    between atoms: C_1  and  C_2
REMARK    2  A    between atoms: C_2  and  C_3
REMARK    3  A    between atoms: C_4  and  C_5
REMARK    4  A    between atoms: C_5  and  C_6
REMARK    5  A    between atoms: C_6  and  C_7
REMARK    6  A    between atoms: C_7  and  C_8
REMARK    7  A    between atoms: C_7  and  C_9
REMARK    8  A    between atoms: C_9  and  C_10
REMARK    9  A    between atoms: C_11  and  C_12
REMARK   10  A    between atoms: C_12  and  C_13
REMARK   11  A    between atoms: C_14  and  C_15
REMARK   12  A    between atoms: C_15  and  O_17
REMARK   13  A    between atoms: O_17  and  C_18
REMARK   14  A    between atoms: C_18  and  C_19
REMARK   15  A    between atoms: C_18  and  C_20
REMARK                            x       y       z     vdW  Elec       q    Type
REMARK                         _______ _______ _______ _____ _____    ______ ____
ROOT
ATOM      1  C   UNL     1       4.543   6.073  16.673  0.00  0.00    +0.000 C 
ATOM      2  C   UNL     1       3.921   7.078  17.312  0.00  0.00    +0.000 C 
ENDROOT
BRANCH   2   3
ATOM      3  C   UNL     1       2.939   6.921  18.392  0.00  0.00    +0.000 C 
ATOM      4  C   UNL     1       2.066   8.101  18.767  0.00  0.00    +0.000 C 
ATOM      5  C   UNL     1       2.776   5.723  19.002  0.00  0.00    +0.000 C 
BRANCH   5   6
ATOM      6  C   UNL     1       1.843   5.529  20.145  0.00  0.00    +0.000 C 
ATOM      7  O   UNL     1       1.741   6.281  21.099  0.00  0.00    +0.000 OA
BRANCH   6   8
ATOM      8  O   UNL     1       1.112   4.395  19.965  0.00  0.00    +0.000 OA
BRANCH   8   9
ATOM      9  C   UNL     1       1.852   3.177  20.213  0.00  0.00    +0.000 C 
ATOM     10  C   UNL     1       1.571   2.680  21.628  0.00  0.00    +0.000 C 
ATOM     11  C   UNL     1       1.436   2.131  19.186  0.00  0.00    +0.000 C 
ENDBRANCH   8   9
ENDBRANCH   6   8
ENDBRANCH   5   6
ENDBRANCH   2   3
BRANCH   1  12
ATOM     12  C   UNL     1       5.603   6.194  15.610  0.00  0.00    +0.000 C 
BRANCH  12  13
ATOM     13  C   UNL     1       5.836   4.873  14.830  0.00  0.00    +0.000 C 
ATOM     14  C   UNL     1       5.714   3.687  15.796  0.00  0.00    +0.000 C 
BRANCH  13  15
ATOM     15  C   UNL     1       7.193   4.843  14.081  0.00  0.00    +0.000 C 
BRANCH  15  16
ATOM     16  C   UNL     1       7.037   4.782  12.557  0.00  0.00    +0.000 C 
BRANCH  16  20
ATOM     17  C   UNL     1       5.943   1.260  11.262  0.00  0.00    +0.000 C 
ATOM     18  C   UNL     1       5.857   2.701  11.686  0.00  0.00    +0.000 C 
ATOM     19  C   UNL     1       4.492   3.332  11.694  0.00  0.00    +0.000 C 
ATOM     20  C   UNL     1       6.972   3.366  12.049  0.00  0.00    +0.000 C 
ENDBRANCH  16  20
ENDBRANCH  15  16
ENDBRANCH  13  15
ENDBRANCH  12  13
ENDBRANCH   1  12
TORSDOF 9
ENDMDL
MODEL 9
REMARK VINA RESULT:      -5.5      4.396      7.396
REMARK  Name = 
REMARK  15 active torsions:
REMARK  status: ('A' for Active; 'I' for Inactive)
REMARK    1  A    between atoms: C_1  and  C_2
REMARK    2  A    between atoms: C_2  and  C_3
REMARK    3  A    between atoms: C_4  and  C_5
REMARK    4  A    between atoms: C_5  and  C_6
REMARK    5  A    between atoms: C_6  and  C_7
REMARK    6  A    between atoms: C_7  and  C_8
REMARK    7  A    between atoms: C_7  and  C_9
REMARK    8  A    between atoms: C_9  and  C_10
REMARK    9  A    between atoms: C_11  and  C_12
REMARK   10  A    between atoms: C_12  and  C_13
REMARK   11  A    between atoms: C_14  and  C_15
REMARK   12  A    between atoms: C_15  and  O_17
REMARK   13  A    between atoms: O_17  and  C_18
REMARK   14  A    between atoms: C_18  and  C_19
REMARK   15  A    between atoms: C_18  and  C_20
REMARK                            x       y       z     vdW  Elec       q    Type
REMARK                         _______ _______ _______ _____ _____    ______ ____
ROOT
ATOM      1  C   UNL     1       5.361   4.576  17.375  0.00  0.00    +0.000 C 
ATOM      2  C   UNL     1       4.102   4.682  16.917  0.00  0.00    +0.000 C 
ENDROOT
BRANCH   2   3
ATOM      3  C   UNL     1       2.901   4.208  17.614  0.00  0.00    +0.000 C 
ATOM      4  C   UNL     1       1.866   5.220  18.065  0.00  0.00    +0.000 C 
ATOM      5  C   UNL     1       2.693   2.882  17.798  0.00  0.00    +0.000 C 
BRANCH   5   6
ATOM      6  C   UNL     1       1.526   2.354  18.557  0.00  0.00    +0.000 C 
ATOM      7  O   UNL     1       0.381   2.317  18.140  0.00  0.00    +0.000 OA
BRANCH   6   8
ATOM      8  O   UNL     1       1.925   1.908  19.779  0.00  0.00    +0.000 OA
BRANCH   8   9
ATOM      9  C   UNL     1       2.806   2.820  20.474  0.00  0.00    +0.000 C 
ATOM     10  C   UNL     1       2.155   3.272  21.780  0.00  0.00    +0.000 C 
ATOM     11  C   UNL     1       4.126   2.113  20.752  0.00  0.00    +0.000 C 
ENDBRANCH   8   9
ENDBRANCH   6   8
ENDBRANCH   5   6
ENDBRANCH   2   3
BRANCH   1  12
ATOM     12  C   UNL     1       6.610   5.110  16.724  0.00  0.00    +0.000 C 
BRANCH  12  13
ATOM     13  C   UNL     1       7.497   5.934  17.695  0.00  0.00    +0.000 C 
ATOM     14  C   UNL     1       7.159   5.547  19.141  0.00  0.00    +0.000 C 
BRANCH  13  15
ATOM     15  C   UNL     1       7.365   7.464  17.484  0.00  0.00    +0.000 C 
BRANCH  15  16
ATOM     16  C   UNL     1       8.366   8.275  18.315  0.00  0.00    +0.000 C 
BRANCH  16  20
ATOM     17  C   UNL     1       9.010  12.108  17.892  0.00  0.00    +0.000 C 
ATOM     18  C   UNL     1       8.994  10.736  18.509  0.00  0.00    +0.000 C 
ATOM     19  C   UNL     1       9.520  10.609  19.911  0.00  0.00    +0.000 C 
ATOM     20  C   UNL     1       8.509   9.688  17.813  0.00  0.00    +0.000 C 
ENDBRANCH  16  20
ENDBRANCH  15  16
ENDBRANCH  13  15
ENDBRANCH  12  13
ENDBRANCH   1  12
TORSDOF 9
ENDMDL
