MODEL 1
REMARK VINA RESULT:      -7.5      0.000      0.000
REMARK  Name = 
REMARK  5 active torsions:
REMARK  status: ('A' for Active; 'I' for Inactive)
REMARK    1  A    between atoms: C_2  and  C_3
REMARK    2  A    between atoms: C_3  and  C_4
REMARK    3  A    between atoms: C_12  and  O_14
REMARK    4  A    between atoms: O_14  and  C_15
REMARK    5  A    between atoms: C_15  and  C_16
REMARK                            x       y       z     vdW  Elec       q    Type
REMARK                         _______ _______ _______ _____ _____    ______ ____
ROOT
ATOM      1  C   UNL     1       4.556   5.499  16.784  0.00  0.00    +0.000 C 
ATOM      2  C   UNL     1       5.167   4.078  16.671  0.00  0.00    +0.000 C 
ATOM      3  O   UNL     1       5.840   3.619  15.769  0.00  0.00    +0.000 OA
ATOM      4  N   UNL     1       4.762   3.315  17.774  0.00  0.00    +0.000 N 
ATOM      5  C   UNL     1       3.700   4.009  18.379  0.00  0.00    +0.000 C 
ATOM      6  C   UNL     1       3.339   3.922  19.848  0.00  0.00    +0.000 C 
ATOM      7  C   UNL     1       2.667   5.300  20.072  0.00  0.00    +0.000 C 
ATOM      8  N   UNL     1       3.078   6.119  18.922  0.00  0.00    +0.000 N 
ATOM      9  C   UNL     1       2.724   7.420  18.708  0.00  0.00    +0.000 C 
ATOM     10  O   UNL     1       3.123   8.088  17.766  0.00  0.00    +0.000 OA
ATOM     11  C   UNL     1       4.160   5.453  18.257  0.00  0.00    +0.000 C 
ATOM     12  H   UNL     1       4.872   2.309  17.707  0.00  0.00    +0.000 HD
ENDROOT
BRANCH   1  13
ATOM     13  C   UNL     1       5.579   6.597  16.482  0.00  0.00    +0.000 C 
BRANCH  13  15
ATOM     14  C   UNL     1       7.598   7.556  17.613  0.00  0.00    +0.000 C 
ATOM     15  C   UNL     1       6.829   6.511  17.301  0.00  0.00    +0.000 C 
ENDBRANCH  13  15
ENDBRANCH   1  13
BRANCH   9  16
ATOM     16  O   UNL     1       1.939   7.894  19.708  0.00  0.00    +0.000 OA
BRANCH  16  17
ATOM     17  C   UNL     1       1.277   9.126  19.405  0.00  0.00    +0.000 C 
BRANCH  17  18
ATOM     18  C   UNL     1       0.528   9.642  20.602  0.00  0.00    +0.000 A 
ATOM     19  C   UNL     1      -0.037  10.924  20.603  0.00  0.00    +0.000 A 
ATOM     20  C   UNL     1      -0.694  11.403  21.738  0.00  0.00    +0.000 A 
ATOM     21  C   UNL     1      -0.793  10.604  22.875  0.00  0.00    +0.000 A 
ATOM     22  C   UNL     1      -0.251   9.320  22.877  0.00  0.00    +0.000 A 
ATOM     23  C   UNL     1       0.407   8.841  21.744  0.00  0.00    +0.000 A 
ENDBRANCH  17  18
ENDBRANCH  16  17
ENDBRANCH   9  16
TORSDOF 5
ENDMDL
MODEL 2
REMARK VINA RESULT:      -7.3      0.244      1.045
REMARK  Name = 
REMARK  5 active torsions:
REMARK  status: ('A' for Active; 'I' for Inactive)
REMARK    1  A    between atoms: C_2  and  C_3
REMARK    2  A    between atoms: C_3  and  C_4
REMARK    3  A    between atoms: C_12  and  O_14
REMARK    4  A    between atoms: O_14  and  C_15
REMARK    5  A    between atoms: C_15  and  C_16
REMARK                            x       y       z     vdW  Elec       q    Type
REMARK                         _______ _______ _______ _____ _____    ______ ____
ROOT
ATOM      1  C   UNL     1       4.562   5.489  16.680  0.00  0.00    +0.000 C 
ATOM      2  C   UNL     1       5.224   4.091  16.572  0.00  0.00    +0.000 C 
ATOM      3  O   UNL     1       5.890   3.643  15.659  0.00  0.00    +0.000 OA
ATOM      4  N   UNL     1       4.879   3.332  17.698  0.00  0.00    +0.000 N 
ATOM      5  C   UNL     1       3.807   3.994  18.321  0.00  0.00    +0.000 C 
ATOM      6  C   UNL     1       3.490   3.919  19.801  0.00  0.00    +0.000 C 
ATOM      7  C   UNL     1       2.771   5.273  20.021  0.00  0.00    +0.000 C 
ATOM      8  N   UNL     1       3.119   6.088  18.848  0.00  0.00    +0.000 N 
ATOM      9  C   UNL     1       2.709   7.371  18.623  0.00  0.00    +0.000 C 
ATOM     10  O   UNL     1       3.056   8.037  17.660  0.00  0.00    +0.000 OA
ATOM     11  C   UNL     1       4.207   5.453  18.163  0.00  0.00    +0.000 C 
ATOM     12  H   UNL     1       5.026   2.330  17.643  0.00  0.00    +0.000 HD
ENDROOT
BRANCH   1  13
ATOM     13  C   UNL     1       5.534   6.621  16.333  0.00  0.00    +0.000 C 
BRANCH  13  15
ATOM     14  C   UNL     1       7.644   7.296  17.500  0.00  0.00    +0.000 C 
ATOM     15  C   UNL     1       6.319   7.132  17.499  0.00  0.00    +0.000 C 
ENDBRANCH  13  15
ENDBRANCH   1  13
BRANCH   9  16
ATOM     16  O   UNL     1       1.933   7.831  19.636  0.00  0.00    +0.000 OA
BRANCH  16  17
ATOM     17  C   UNL     1       1.303   9.088  19.373  0.00  0.00    +0.000 C 
BRANCH  17  18
ATOM     18  C   UNL     1       0.609   9.609  20.600  0.00  0.00    +0.000 A 
ATOM     19  C   UNL     1       0.247   8.748  21.645  0.00  0.00    +0.000 A 
ATOM     20  C   UNL     1      -0.433   9.241  22.760  0.00  0.00    +0.000 A 
ATOM     21  C   UNL     1      -0.753  10.596  22.839  0.00  0.00    +0.000 A 
ATOM     22  C   UNL     1      -0.379  11.462  21.814  0.00  0.00    +0.000 A 
ATOM     23  C   UNL     1       0.299  10.971  20.699  0.00  0.00    +0.000 A 
ENDBRANCH  17  18
ENDBRANCH  16  17
ENDBRANCH   9  16
TORSDOF 5
ENDMDL
MODEL 3
REMARK VINA RESULT:      -7.3      1.857      3.713
REMARK  Name = 
REMARK  5 active torsions:
REMARK  status: ('A' for Active; 'I' for Inactive)
REMARK    1  A    between atoms: C_2  and  C_3
REMARK    2  A    between atoms: C_3  and  C_4
REMARK    3  A    between atoms: C_12  and  O_14
REMARK    4  A    between atoms: O_14  and  C_15
REMARK    5  A    between atoms: C_15  and  C_16
REMARK                            x       y       z     vdW  Elec       q    Type
REMARK                         _______ _______ _______ _____ _____    ______ ____
ROOT
ATOM      1  C   UNL     1       2.971   3.754  19.056  0.00  0.00    +0.000 C 
ATOM      2  C   UNL     1       3.717   2.559  18.409  0.00  0.00    +0.000 C 
ATOM      3  O   UNL     1       3.661   1.383  18.713  0.00  0.00    +0.000 OA
ATOM      4  N   UNL     1       4.575   3.040  17.411  0.00  0.00    +0.000 N 
ATOM      5  C   UNL     1       4.684   4.427  17.603  0.00  0.00    +0.000 C 
ATOM      6  C   UNL     1       4.983   5.429  16.505  0.00  0.00    +0.000 C 
ATOM      7  C   UNL     1       4.310   6.703  17.073  0.00  0.00    +0.000 C 
ATOM      8  N   UNL     1       3.402   6.222  18.126  0.00  0.00    +0.000 N 
ATOM      9  C   UNL     1       2.591   7.007  18.894  0.00  0.00    +0.000 C 
ATOM     10  O   UNL     1       1.813   6.570  19.728  0.00  0.00    +0.000 OA
ATOM     11  C   UNL     1       3.260   4.802  17.985  0.00  0.00    +0.000 C 
ATOM     12  H   UNL     1       5.301   2.412  17.083  0.00  0.00    +0.000 HD
ENDROOT
BRANCH   1  13
ATOM     13  C   UNL     1       1.474   3.482  19.226  0.00  0.00    +0.000 C 
BRANCH  13  15
ATOM     14  C   UNL     1       1.845   2.803  21.608  0.00  0.00    +0.000 C 
ATOM     15  C   UNL     1       1.048   3.269  20.645  0.00  0.00    +0.000 C 
ENDBRANCH  13  15
ENDBRANCH   1  13
BRANCH   9  16
ATOM     16  O   UNL     1       2.706   8.317  18.562  0.00  0.00    +0.000 OA
BRANCH  16  17
ATOM     17  C   UNL     1       1.675   8.800  17.695  0.00  0.00    +0.000 C 
BRANCH  17  18
ATOM     18  C   UNL     1       0.705   9.668  18.446  0.00  0.00    +0.000 A 
ATOM     19  C   UNL     1       1.008  10.150  19.726  0.00  0.00    +0.000 A 
ATOM     20  C   UNL     1       0.078  10.922  20.426  0.00  0.00    +0.000 A 
ATOM     21  C   UNL     1      -1.156  11.219  19.851  0.00  0.00    +0.000 A 
ATOM     22  C   UNL     1      -1.458  10.761  18.570  0.00  0.00    +0.000 A 
ATOM     23  C   UNL     1      -0.532   9.988  17.870  0.00  0.00    +0.000 A 
ENDBRANCH  17  18
ENDBRANCH  16  17
ENDBRANCH   9  16
TORSDOF 5
ENDMDL
MODEL 4
REMARK VINA RESULT:      -7.2      1.991      3.868
REMARK  Name = 
REMARK  5 active torsions:
REMARK  status: ('A' for Active; 'I' for Inactive)
REMARK    1  A    between atoms: C_2  and  C_3
REMARK    2  A    between atoms: C_3  and  C_4
REMARK    3  A    between atoms: C_12  and  O_14
REMARK    4  A    between atoms: O_14  and  C_15
REMARK    5  A    between atoms: C_15  and  C_16
REMARK                            x       y       z     vdW  Elec       q    Type
REMARK                         _______ _______ _______ _____ _____    ______ ____
ROOT
ATOM      1  C   UNL     1       3.450   4.338  20.144  0.00  0.00    +0.000 C 
ATOM      2  C   UNL     1       4.429   3.307  19.524  0.00  0.00    +0.000 C 
ATOM      3  O   UNL     1       4.760   2.224  19.966  0.00  0.00    +0.000 OA
ATOM      4  N   UNL     1       4.975   3.842  18.350  0.00  0.00    +0.000 N 
ATOM      5  C   UNL     1       4.693   5.218  18.361  0.00  0.00    +0.000 C 
ATOM      6  C   UNL     1       4.544   6.078  17.122  0.00  0.00    +0.000 C 
ATOM      7  C   UNL     1       3.602   7.191  17.643  0.00  0.00    +0.000 C 
ATOM      8  N   UNL     1       3.016   6.651  18.878  0.00  0.00    +0.000 N 
ATOM      9  C   UNL     1       2.112   7.294  19.675  0.00  0.00    +0.000 C 
ATOM     10  O   UNL     1       1.608   6.797  20.671  0.00  0.00    +0.000 OA
ATOM     11  C   UNL     1       3.282   5.243  18.927  0.00  0.00    +0.000 C 
ATOM     12  H   UNL     1       5.807   3.394  17.981  0.00  0.00    +0.000 HD
ENDROOT
BRANCH   1  13
ATOM     13  C   UNL     1       2.134   3.695  20.588  0.00  0.00    +0.000 C 
BRANCH  13  15
ATOM     14  C   UNL     1       0.826   2.401  18.889  0.00  0.00    +0.000 C 
ATOM     15  C   UNL     1       1.122   3.553  19.494  0.00  0.00    +0.000 C 
ENDBRANCH  13  15
ENDBRANCH   1  13
BRANCH   9  16
ATOM     16  O   UNL     1       1.793   8.516  19.181  0.00  0.00    +0.000 OA
BRANCH  16  17
ATOM     17  C   UNL     1       1.034   9.336  20.075  0.00  0.00    +0.000 C 
BRANCH  17  18
ATOM     18  C   UNL     1      -0.061  10.059  19.344  0.00  0.00    +0.000 A 
ATOM     19  C   UNL     1      -0.748  11.124  19.942  0.00  0.00    +0.000 A 
ATOM     20  C   UNL     1      -1.791  11.758  19.264  0.00  0.00    +0.000 A 
ATOM     21  C   UNL     1      -2.150  11.337  17.985  0.00  0.00    +0.000 A 
ATOM     22  C   UNL     1      -1.460  10.292  17.375  0.00  0.00    +0.000 A 
ATOM     23  C   UNL     1      -0.419   9.656  18.051  0.00  0.00    +0.000 A 
ENDBRANCH  17  18
ENDBRANCH  16  17
ENDBRANCH   9  16
TORSDOF 5
ENDMDL
MODEL 5
REMARK VINA RESULT:      -7.2      1.970      3.859
REMARK  Name = 
REMARK  5 active torsions:
REMARK  status: ('A' for Active; 'I' for Inactive)
REMARK    1  A    between atoms: C_2  and  C_3
REMARK    2  A    between atoms: C_3  and  C_4
REMARK    3  A    between atoms: C_12  and  O_14
REMARK    4  A    between atoms: O_14  and  C_15
REMARK    5  A    between atoms: C_15  and  C_16
REMARK                            x       y       z     vdW  Elec       q    Type
REMARK                         _______ _______ _______ _____ _____    ______ ____
ROOT
ATOM      1  C   UNL     1       3.481   4.329  20.125  0.00  0.00    +0.000 C 
ATOM      2  C   UNL     1       4.477   3.290  19.550  0.00  0.00    +0.000 C 
ATOM      3  O   UNL     1       4.803   2.218  20.023  0.00  0.00    +0.000 OA
ATOM      4  N   UNL     1       5.047   3.801  18.376  0.00  0.00    +0.000 N 
ATOM      5  C   UNL     1       4.759   5.176  18.351  0.00  0.00    +0.000 C 
ATOM      6  C   UNL     1       4.634   6.008  17.090  0.00  0.00    +0.000 C 
ATOM      7  C   UNL     1       3.676   7.128  17.566  0.00  0.00    +0.000 C 
ATOM      8  N   UNL     1       3.065   6.612  18.800  0.00  0.00    +0.000 N 
ATOM      9  C   UNL     1       2.141   7.268  19.562  0.00  0.00    +0.000 C 
ATOM     10  O   UNL     1       1.617   6.791  20.557  0.00  0.00    +0.000 OA
ATOM     11  C   UNL     1       3.335   5.207  18.886  0.00  0.00    +0.000 C 
ATOM     12  H   UNL     1       5.889   3.349  18.036  0.00  0.00    +0.000 HD
ENDROOT
BRANCH   1  13
ATOM     13  C   UNL     1       2.158   3.690  20.555  0.00  0.00    +0.000 C 
BRANCH  13  15
ATOM     14  C   UNL     1       0.843   2.316  18.925  0.00  0.00    +0.000 C 
ATOM     15  C   UNL     1       1.179   3.501  19.438  0.00  0.00    +0.000 C 
ENDBRANCH  13  15
ENDBRANCH   1  13
BRANCH   9  16
ATOM     16  O   UNL     1       1.828   8.478  19.034  0.00  0.00    +0.000 OA
BRANCH  16  17
ATOM     17  C   UNL     1       1.198   9.377  19.951  0.00  0.00    +0.000 C 
BRANCH  17  18
ATOM     18  C   UNL     1      -0.001  10.032  19.325  0.00  0.00    +0.000 A 
ATOM     19  C   UNL     1      -0.386   9.728  18.012  0.00  0.00    +0.000 A 
ATOM     20  C   UNL     1      -1.478  10.376  17.431  0.00  0.00    +0.000 A 
ATOM     21  C   UNL     1      -2.192  11.328  18.157  0.00  0.00    +0.000 A 
ATOM     22  C   UNL     1      -1.828  11.622  19.469  0.00  0.00    +0.000 A 
ATOM     23  C   UNL     1      -0.737  10.977  20.051  0.00  0.00    +0.000 A 
ENDBRANCH  17  18
ENDBRANCH  16  17
ENDBRANCH   9  16
TORSDOF 5
ENDMDL
MODEL 6
REMARK VINA RESULT:      -7.2      1.210      1.352
REMARK  Name = 
REMARK  5 active torsions:
REMARK  status: ('A' for Active; 'I' for Inactive)
REMARK    1  A    between atoms: C_2  and  C_3
REMARK    2  A    between atoms: C_3  and  C_4
REMARK    3  A    between atoms: C_12  and  O_14
REMARK    4  A    between atoms: O_14  and  C_15
REMARK    5  A    between atoms: C_15  and  C_16
REMARK                            x       y       z     vdW  Elec       q    Type
REMARK                         _______ _______ _______ _____ _____    ______ ____
ROOT
ATOM      1  C   UNL     1       5.972   5.789  17.045  0.00  0.00    +0.000 C 
ATOM      2  C   UNL     1       6.901   4.633  17.496  0.00  0.00    +0.000 C 
ATOM      3  O   UNL     1       7.962   4.288  17.012  0.00  0.00    +0.000 OA
ATOM      4  N   UNL     1       6.294   3.943  18.554  0.00  0.00    +0.000 N 
ATOM      5  C   UNL     1       4.948   4.343  18.579  0.00  0.00    +0.000 C 
ATOM      6  C   UNL     1       4.075   4.353  19.819  0.00  0.00    +0.000 C 
ATOM      7  C   UNL     1       3.058   5.464  19.458  0.00  0.00    +0.000 C 
ATOM      8  N   UNL     1       3.675   6.203  18.347  0.00  0.00    +0.000 N 
ATOM      9  C   UNL     1       3.130   7.283  17.713  0.00  0.00    +0.000 C 
ATOM     10  O   UNL     1       3.692   7.904  16.823  0.00  0.00    +0.000 OA
ATOM     11  C   UNL     1       5.056   5.827  18.265  0.00  0.00    +0.000 C 
ATOM     12  H   UNL     1       6.661   3.024  18.777  0.00  0.00    +0.000 HD
ENDROOT
BRANCH   1  13
ATOM     13  C   UNL     1       6.735   7.101  16.839  0.00  0.00    +0.000 C 
BRANCH  13  15
ATOM     14  C   UNL     1       8.270   8.629  18.097  0.00  0.00    +0.000 C 
ATOM     15  C   UNL     1       7.676   7.443  17.952  0.00  0.00    +0.000 C 
ENDBRANCH  13  15
ENDBRANCH   1  13
BRANCH   9  16
ATOM     16  O   UNL     1       1.929   7.619  18.244  0.00  0.00    +0.000 OA
BRANCH  16  17
ATOM     17  C   UNL     1       1.701   9.028  18.345  0.00  0.00    +0.000 C 
BRANCH  17  18
ATOM     18  C   UNL     1       1.010   9.370  19.635  0.00  0.00    +0.000 A 
ATOM     19  C   UNL     1       0.153  10.475  19.725  0.00  0.00    +0.000 A 
ATOM     20  C   UNL     1      -0.448  10.802  20.942  0.00  0.00    +0.000 A 
ATOM     21  C   UNL     1      -0.200  10.027  22.074  0.00  0.00    +0.000 A 
ATOM     22  C   UNL     1       0.636   8.915  21.989  0.00  0.00    +0.000 A 
ATOM     23  C   UNL     1       1.238   8.588  20.774  0.00  0.00    +0.000 A 
ENDBRANCH  17  18
ENDBRANCH  16  17
ENDBRANCH   9  16
TORSDOF 5
ENDMDL
MODEL 7
REMARK VINA RESULT:      -7.2      1.781      3.720
REMARK  Name = 
REMARK  5 active torsions:
REMARK  status: ('A' for Active; 'I' for Inactive)
REMARK    1  A    between atoms: C_2  and  C_3
REMARK    2  A    between atoms: C_3  and  C_4
REMARK    3  A    between atoms: C_12  and  O_14
REMARK    4  A    between atoms: O_14  and  C_15
REMARK    5  A    between atoms: C_15  and  C_16
REMARK                            x       y       z     vdW  Elec       q    Type
REMARK                         _______ _______ _______ _____ _____    ______ ____
ROOT
ATOM      1  C   UNL     1       3.028   3.721  18.742  0.00  0.00    +0.000 C 
ATOM      2  C   UNL     1       3.745   2.484  18.142  0.00  0.00    +0.000 C 
ATOM      3  O   UNL     1       3.626   1.318  18.463  0.00  0.00    +0.000 OA
ATOM      4  N   UNL     1       4.659   2.911  17.169  0.00  0.00    +0.000 N 
ATOM      5  C   UNL     1       4.820   4.296  17.343  0.00  0.00    +0.000 C 
ATOM      6  C   UNL     1       5.202   5.264  16.242  0.00  0.00    +0.000 C 
ATOM      7  C   UNL     1       4.564   6.576  16.764  0.00  0.00    +0.000 C 
ATOM      8  N   UNL     1       3.599   6.152  17.789  0.00  0.00    +0.000 N 
ATOM      9  C   UNL     1       2.795   6.985  18.514  0.00  0.00    +0.000 C 
ATOM     10  O   UNL     1       1.969   6.595  19.326  0.00  0.00    +0.000 OA
ATOM     11  C   UNL     1       3.401   4.738  17.666  0.00  0.00    +0.000 C 
ATOM     12  H   UNL     1       5.369   2.247  16.879  0.00  0.00    +0.000 HD
ENDROOT
BRANCH   1  13
ATOM     13  C   UNL     1       1.515   3.516  18.860  0.00  0.00    +0.000 C 
BRANCH  13  15
ATOM     14  C   UNL     1       1.592   3.245  21.349  0.00  0.00    +0.000 C 
ATOM     15  C   UNL     1       1.079   2.918  20.161  0.00  0.00    +0.000 C 
ENDBRANCH  13  15
ENDBRANCH   1  13
BRANCH   9  16
ATOM     16  O   UNL     1       2.979   8.282  18.166  0.00  0.00    +0.000 OA
BRANCH  16  17
ATOM     17  C   UNL     1       1.789   8.953  17.738  0.00  0.00    +0.000 C 
BRANCH  17  18
ATOM     18  C   UNL     1       1.404  10.036  18.706  0.00  0.00    +0.000 A 
ATOM     19  C   UNL     1       0.642   9.748  19.847  0.00  0.00    +0.000 A 
ATOM     20  C   UNL     1       0.259  10.772  20.714  0.00  0.00    +0.000 A 
ATOM     21  C   UNL     1       0.636  12.087  20.451  0.00  0.00    +0.000 A 
ATOM     22  C   UNL     1       1.410  12.380  19.330  0.00  0.00    +0.000 A 
ATOM     23  C   UNL     1       1.793  11.359  18.461  0.00  0.00    +0.000 A 
ENDBRANCH  17  18
ENDBRANCH  16  17
ENDBRANCH   9  16
TORSDOF 5
ENDMDL
MODEL 8
REMARK VINA RESULT:      -7.2      3.070      7.474
REMARK  Name = 
REMARK  5 active torsions:
REMARK  status: ('A' for Active; 'I' for Inactive)
REMARK    1  A    between atoms: C_2  and  C_3
REMARK    2  A    between atoms: C_3  and  C_4
REMARK    3  A    between atoms: C_12  and  O_14
REMARK    4  A    between atoms: O_14  and  C_15
REMARK    5  A    between atoms: C_15  and  C_16
REMARK                            x       y       z     vdW  Elec       q    Type
REMARK                         _______ _______ _______ _____ _____    ______ ____
ROOT
ATOM      1  C   UNL     1      -0.305  11.071  19.185  0.00  0.00    +0.000 C 
ATOM      2  C   UNL     1      -1.185  11.885  20.169  0.00  0.00    +0.000 C 
ATOM      3  O   UNL     1      -1.884  12.850  19.931  0.00  0.00    +0.000 OA
ATOM      4  N   UNL     1      -1.009  11.382  21.465  0.00  0.00    +0.000 N 
ATOM      5  C   UNL     1       0.136  10.567  21.432  0.00  0.00    +0.000 C 
ATOM      6  C   UNL     1       0.385   9.393  22.358  0.00  0.00    +0.000 C 
ATOM      7  C   UNL     1       1.310   8.514  21.480  0.00  0.00    +0.000 C 
ATOM      8  N   UNL     1       1.141   9.024  20.112  0.00  0.00    +0.000 N 
ATOM      9  C   UNL     1       1.765   8.535  19.000  0.00  0.00    +0.000 C 
ATOM     10  O   UNL     1       1.566   8.953  17.869  0.00  0.00    +0.000 OA
ATOM     11  C   UNL     1      -0.012   9.875  20.086  0.00  0.00    +0.000 C 
ATOM     12  H   UNL     1      -1.317  11.967  22.234  0.00  0.00    +0.000 HD
ENDROOT
BRANCH   1  13
ATOM     13  C   UNL     1      -1.064  10.681  17.914  0.00  0.00    +0.000 C 
BRANCH  13  15
ATOM     14  C   UNL     1      -3.232   9.542  17.390  0.00  0.00    +0.000 C 
ATOM     15  C   UNL     1      -2.515  10.389  18.133  0.00  0.00    +0.000 C 
ENDBRANCH  13  15
ENDBRANCH   1  13
BRANCH   9  16
ATOM     16  O   UNL     1       2.571   7.487  19.301  0.00  0.00    +0.000 OA
BRANCH  16  17
ATOM     17  C   UNL     1       2.593   6.455  18.311  0.00  0.00    +0.000 C 
BRANCH  17  18
ATOM     18  C   UNL     1       1.987   5.187  18.843  0.00  0.00    +0.000 A 
ATOM     19  C   UNL     1       1.748   5.020  20.213  0.00  0.00    +0.000 A 
ATOM     20  C   UNL     1       1.223   3.820  20.695  0.00  0.00    +0.000 A 
ATOM     21  C   UNL     1       0.929   2.782  19.813  0.00  0.00    +0.000 A 
ATOM     22  C   UNL     1       1.145   2.946  18.446  0.00  0.00    +0.000 A 
ATOM     23  C   UNL     1       1.671   4.144  17.963  0.00  0.00    +0.000 A 
ENDBRANCH  17  18
ENDBRANCH  16  17
ENDBRANCH   9  16
TORSDOF 5
ENDMDL
MODEL 9
REMARK VINA RESULT:      -7.1      2.165      3.844
REMARK  Name = 
REMARK  5 active torsions:
REMARK  status: ('A' for Active; 'I' for Inactive)
REMARK    1  A    between atoms: C_2  and  C_3
REMARK    2  A    between atoms: C_3  and  C_4
REMARK    3  A    between atoms: C_12  and  O_14
REMARK    4  A    between atoms: O_14  and  C_15
REMARK    5  A    between atoms: C_15  and  C_16
REMARK                            x       y       z     vdW  Elec       q    Type
REMARK                         _______ _______ _______ _____ _____    ______ ____
ROOT
ATOM      1  C   UNL     1       2.999   3.601  18.958  0.00  0.00    +0.000 C 
ATOM      2  C   UNL     1       3.698   2.376  18.315  0.00  0.00    +0.000 C 
ATOM      3  O   UNL     1       3.605   1.206  18.630  0.00  0.00    +0.000 OA
ATOM      4  N   UNL     1       4.564   2.820  17.306  0.00  0.00    +0.000 N 
ATOM      5  C   UNL     1       4.720   4.204  17.486  0.00  0.00    +0.000 C 
ATOM      6  C   UNL     1       5.044   5.186  16.377  0.00  0.00    +0.000 C 
ATOM      7  C   UNL     1       4.419   6.487  16.939  0.00  0.00    +0.000 C 
ATOM      8  N   UNL     1       3.505   6.045  18.003  0.00  0.00    +0.000 N 
ATOM      9  C   UNL     1       2.727   6.864  18.771  0.00  0.00    +0.000 C 
ATOM     10  O   UNL     1       1.942   6.460  19.616  0.00  0.00    +0.000 OA
ATOM     11  C   UNL     1       3.314   4.630  17.876  0.00  0.00    +0.000 C 
ATOM     12  H   UNL     1       5.265   2.165  16.978  0.00  0.00    +0.000 HD
ENDROOT
BRANCH   1  13
ATOM     13  C   UNL     1       1.495   3.381  19.143  0.00  0.00    +0.000 C 
BRANCH  13  15
ATOM     14  C   UNL     1       1.823   2.727  21.538  0.00  0.00    +0.000 C 
ATOM     15  C   UNL     1       1.066   3.250  20.571  0.00  0.00    +0.000 C 
ENDBRANCH  13  15
ENDBRANCH   1  13
BRANCH   9  16
ATOM     16  O   UNL     1       2.883   8.167  18.427  0.00  0.00    +0.000 OA
BRANCH  16  17
ATOM     17  C   UNL     1       1.797   8.713  17.673  0.00  0.00    +0.000 C 
BRANCH  17  18
ATOM     18  C   UNL     1       1.360  10.035  18.239  0.00  0.00    +0.000 A 
ATOM     19  C   UNL     1       2.195  11.158  18.176  0.00  0.00    +0.000 A 
ATOM     20  C   UNL     1       1.791  12.368  18.743  0.00  0.00    +0.000 A 
ATOM     21  C   UNL     1       0.551  12.464  19.373  0.00  0.00    +0.000 A 
ATOM     22  C   UNL     1      -0.294  11.357  19.423  0.00  0.00    +0.000 A 
ATOM     23  C   UNL     1       0.109  10.147  18.859  0.00  0.00    +0.000 A 
ENDBRANCH  17  18
ENDBRANCH  16  17
ENDBRANCH   9  16
TORSDOF 5
ENDMDL
