MODEL 1
REMARK VINA RESULT:      -8.6      0.000      0.000
REMARK  Name = 
REMARK  9 active torsions:
REMARK  status: ('A' for Active; 'I' for Inactive)
REMARK    1  A    between atoms: C_1  and  N_2
REMARK    2  A    between atoms: N_5  and  C_6
REMARK    3  A    between atoms: C_6  and  C_7
REMARK    4  A    between atoms: C_7  and  O_8
REMARK    5  A    between atoms: O_8  and  C_9
REMARK    6  A    between atoms: C_13  and  C_14
REMARK    7  A    between atoms: C_18  and  C_19
REMARK    8  A    between atoms: C_21  and  N_22
REMARK    9  A    between atoms: N_22  and  C_23
REMARK                            x       y       z     vdW  Elec       q    Type
REMARK                         _______ _______ _______ _____ _____    ______ ____
ROOT
ATOM      1  C   UNL     1       2.160   4.977  19.956  0.00  0.00    +0.000 A 
ATOM      2  C   UNL     1       0.994   4.327  20.400  0.00  0.00    +0.000 A 
ATOM      3  N   UNL     1       0.906   3.047  20.832  0.00  0.00    +0.000 NA
ATOM      4  C   UNL     1       2.059   2.361  20.879  0.00  0.00    +0.000 A 
ATOM      5  C   UNL     1       3.287   2.878  20.488  0.00  0.00    +0.000 A 
ATOM      6  C   UNL     1       3.351   4.193  19.962  0.00  0.00    +0.000 A 
ENDROOT
BRANCH   1  11
ATOM      7  C   UNL     1       1.507   8.748  19.976  0.00  0.00    +0.000 A 
ATOM      8  C   UNL     1       1.849   9.109  18.679  0.00  0.00    +0.000 A 
ATOM      9  C   UNL     1       2.346   8.152  17.807  0.00  0.00    +0.000 A 
ATOM     10  C   UNL     1       2.507   6.835  18.241  0.00  0.00    +0.000 A 
ATOM     11  C   UNL     1       2.057   6.401  19.500  0.00  0.00    +0.000 A 
ATOM     12  C   UNL     1       1.547   7.402  20.356  0.00  0.00    +0.000 A 
BRANCH   7  13
ATOM     13  O   UNL     1       1.120   9.784  20.776  0.00  0.00    +0.000 OA
BRANCH  13  14
ATOM     14  C   UNL     1      -0.283   9.915  21.022  0.00  0.00    +0.000 C 
BRANCH  14  15
ATOM     15  C   UNL     1      -0.634  11.409  21.117  0.00  0.00    +0.000 C 
BRANCH  15  20
ATOM     16  C   UNL     1       0.688  15.500  18.843  0.00  0.00    +0.000 C 
ATOM     17  N   UNL     1      -0.285  14.419  18.906  0.00  0.00    +0.000 NA
ATOM     18  C   UNL     1      -1.006  14.408  20.192  0.00  0.00    +0.000 C 
ATOM     19  C   UNL     1      -2.016  13.235  20.288  0.00  0.00    +0.000 C 
ATOM     20  N   UNL     1      -1.452  11.896  19.992  0.00  0.00    +0.000 NA
ATOM     21  C   UNL     1      -0.705  11.984  18.717  0.00  0.00    +0.000 C 
ATOM     22  C   UNL     1       0.349  13.111  18.674  0.00  0.00    +0.000 C 
ENDBRANCH  15  20
ENDBRANCH  14  15
ENDBRANCH  13  14
ENDBRANCH   7  13
ENDBRANCH   1  11
BRANCH   5  23
ATOM     23  C   UNL     1       4.436   2.059  20.733  0.00  0.00    +0.000 C 
ATOM     24  N   UNL     1       5.342   1.392  21.008  0.00  0.00    +0.000 NA
ENDBRANCH   5  23
BRANCH   6  25
ATOM     25  N   UNL     1       4.550   4.711  19.404  0.00  0.00    +0.000 N 
ATOM     26  H   UNL     1       5.237   5.023  20.072  0.00  0.00    +0.000 HD
BRANCH  25  27
ATOM     27  C   UNL     1       5.088   4.720  18.101  0.00  0.00    +0.000 A 
ATOM     28  C   UNL     1       4.579   3.876  17.102  0.00  0.00    +0.000 A 
ATOM     29  C   UNL     1       5.080   3.898  15.797  0.00  0.00    +0.000 A 
ATOM     30  C   UNL     1       6.100   4.774  15.439  0.00  0.00    +0.000 A 
ATOM     31  C   UNL     1       6.603   5.626  16.432  0.00  0.00    +0.000 A 
ATOM     32  N   UNL     1       7.588   6.587  16.349  0.00  0.00    +0.000 N 
ATOM     33  C   UNL     1       7.781   7.177  17.560  0.00  0.00    +0.000 A 
ATOM     34  C   UNL     1       6.908   6.591  18.450  0.00  0.00    +0.000 A 
ATOM     35  C   UNL     1       6.130   5.614  17.741  0.00  0.00    +0.000 A 
ATOM     36  H   UNL     1       8.096   6.812  15.499  0.00  0.00    +0.000 HD
ENDBRANCH  25  27
ENDBRANCH   6  25
TORSDOF 8
ENDMDL
MODEL 2
REMARK VINA RESULT:      -8.5      1.023      1.805
REMARK  Name = 
REMARK  9 active torsions:
REMARK  status: ('A' for Active; 'I' for Inactive)
REMARK    1  A    between atoms: C_1  and  N_2
REMARK    2  A    between atoms: N_5  and  C_6
REMARK    3  A    between atoms: C_6  and  C_7
REMARK    4  A    between atoms: C_7  and  O_8
REMARK    5  A    between atoms: O_8  and  C_9
REMARK    6  A    between atoms: C_13  and  C_14
REMARK    7  A    between atoms: C_18  and  C_19
REMARK    8  A    between atoms: C_21  and  N_22
REMARK    9  A    between atoms: N_22  and  C_23
REMARK                            x       y       z     vdW  Elec       q    Type
REMARK                         _______ _______ _______ _____ _____    ______ ____
ROOT
ATOM      1  C   UNL     1       2.089   5.035  19.922  0.00  0.00    +0.000 A 
ATOM      2  C   UNL     1       0.918   4.383  20.351  0.00  0.00    +0.000 A 
ATOM      3  N   UNL     1       0.821   3.094  20.755  0.00  0.00    +0.000 NA
ATOM      4  C   UNL     1       1.969   2.400  20.789  0.00  0.00    +0.000 A 
ATOM      5  C   UNL     1       3.201   2.917  20.410  0.00  0.00    +0.000 A 
ATOM      6  C   UNL     1       3.274   4.243  19.913  0.00  0.00    +0.000 A 
ENDROOT
BRANCH   1  11
ATOM      7  C   UNL     1       1.482   8.813  20.030  0.00  0.00    +0.000 A 
ATOM      8  C   UNL     1       1.808   9.196  18.735  0.00  0.00    +0.000 A 
ATOM      9  C   UNL     1       2.278   8.251  17.836  0.00  0.00    +0.000 A 
ATOM     10  C   UNL     1       2.430   6.923  18.240  0.00  0.00    +0.000 A 
ATOM     11  C   UNL     1       1.995   6.470  19.497  0.00  0.00    +0.000 A 
ATOM     12  C   UNL     1       1.512   7.459  20.382  0.00  0.00    +0.000 A 
BRANCH   7  13
ATOM     13  O   UNL     1       1.121   9.836  20.857  0.00  0.00    +0.000 OA
BRANCH  13  14
ATOM     14  C   UNL     1       0.801  11.083  20.235  0.00  0.00    +0.000 C 
BRANCH  14  15
ATOM     15  C   UNL     1      -0.658  11.443  20.560  0.00  0.00    +0.000 C 
BRANCH  15  20
ATOM     16  C   UNL     1      -4.198  11.006  17.252  0.00  0.00    +0.000 C 
ATOM     17  N   UNL     1      -3.293  11.921  17.933  0.00  0.00    +0.000 NA
ATOM     18  C   UNL     1      -1.881  11.604  17.650  0.00  0.00    +0.000 C 
ATOM     19  C   UNL     1      -0.906  12.547  18.404  0.00  0.00    +0.000 C 
ATOM     20  N   UNL     1      -1.137  12.650  19.865  0.00  0.00    +0.000 NA
ATOM     21  C   UNL     1      -2.576  12.923  20.084  0.00  0.00    +0.000 C 
ATOM     22  C   UNL     1      -3.525  11.925  19.387  0.00  0.00    +0.000 C 
ENDBRANCH  15  20
ENDBRANCH  14  15
ENDBRANCH  13  14
ENDBRANCH   7  13
ENDBRANCH   1  11
BRANCH   5  23
ATOM     23  C   UNL     1       4.344   2.086  20.639  0.00  0.00    +0.000 C 
ATOM     24  N   UNL     1       5.309   1.458  20.769  0.00  0.00    +0.000 NA
ENDBRANCH   5  23
BRANCH   6  25
ATOM     25  N   UNL     1       4.477   4.766  19.368  0.00  0.00    +0.000 N 
ATOM     26  H   UNL     1       5.128   5.139  20.040  0.00  0.00    +0.000 HD
BRANCH  25  27
ATOM     27  C   UNL     1       5.064   4.713  18.088  0.00  0.00    +0.000 A 
ATOM     28  C   UNL     1       4.614   3.800  17.121  0.00  0.00    +0.000 A 
ATOM     29  C   UNL     1       5.163   3.758  15.837  0.00  0.00    +0.000 A 
ATOM     30  C   UNL     1       6.176   4.638  15.466  0.00  0.00    +0.000 A 
ATOM     31  C   UNL     1       6.621   5.558  16.426  0.00  0.00    +0.000 A 
ATOM     32  N   UNL     1       7.586   6.538  16.322  0.00  0.00    +0.000 N 
ATOM     33  C   UNL     1       7.720   7.201  17.504  0.00  0.00    +0.000 A 
ATOM     34  C   UNL     1       6.827   6.645  18.393  0.00  0.00    +0.000 A 
ATOM     35  C   UNL     1       6.099   5.610  17.715  0.00  0.00    +0.000 A 
ATOM     36  H   UNL     1       8.121   6.726  15.480  0.00  0.00    +0.000 HD
ENDBRANCH  25  27
ENDBRANCH   6  25
TORSDOF 8
ENDMDL
MODEL 3
REMARK VINA RESULT:      -8.5      1.207      1.975
REMARK  Name = 
REMARK  9 active torsions:
REMARK  status: ('A' for Active; 'I' for Inactive)
REMARK    1  A    between atoms: C_1  and  N_2
REMARK    2  A    between atoms: N_5  and  C_6
REMARK    3  A    between atoms: C_6  and  C_7
REMARK    4  A    between atoms: C_7  and  O_8
REMARK    5  A    between atoms: O_8  and  C_9
REMARK    6  A    between atoms: C_13  and  C_14
REMARK    7  A    between atoms: C_18  and  C_19
REMARK    8  A    between atoms: C_21  and  N_22
REMARK    9  A    between atoms: N_22  and  C_23
REMARK                            x       y       z     vdW  Elec       q    Type
REMARK                         _______ _______ _______ _____ _____    ______ ____
ROOT
ATOM      1  C   UNL     1       2.106   5.011  19.917  0.00  0.00    +0.000 A 
ATOM      2  C   UNL     1       0.943   4.346  20.349  0.00  0.00    +0.000 A 
ATOM      3  N   UNL     1       0.859   3.053  20.742  0.00  0.00    +0.000 NA
ATOM      4  C   UNL     1       2.013   2.367  20.761  0.00  0.00    +0.000 A 
ATOM      5  C   UNL     1       3.238   2.897  20.377  0.00  0.00    +0.000 A 
ATOM      6  C   UNL     1       3.297   4.228  19.891  0.00  0.00    +0.000 A 
ENDROOT
BRANCH   1  11
ATOM      7  C   UNL     1       1.466   8.781  20.059  0.00  0.00    +0.000 A 
ATOM      8  C   UNL     1       1.784   9.179  18.767  0.00  0.00    +0.000 A 
ATOM      9  C   UNL     1       2.259   8.246  17.858  0.00  0.00    +0.000 A 
ATOM     10  C   UNL     1       2.424   6.916  18.250  0.00  0.00    +0.000 A 
ATOM     11  C   UNL     1       1.998   6.448  19.504  0.00  0.00    +0.000 A 
ATOM     12  C   UNL     1       1.509   7.425  20.400  0.00  0.00    +0.000 A 
BRANCH   7  13
ATOM     13  O   UNL     1       1.098   9.794  20.897  0.00  0.00    +0.000 OA
BRANCH  13  14
ATOM     14  C   UNL     1       0.855  11.069  20.296  0.00  0.00    +0.000 C 
BRANCH  14  15
ATOM     15  C   UNL     1      -0.636  11.412  20.442  0.00  0.00    +0.000 C 
BRANCH  15  20
ATOM     16  C   UNL     1      -3.743  12.574  24.000  0.00  0.00    +0.000 C 
ATOM     17  N   UNL     1      -2.849  13.083  22.968  0.00  0.00    +0.000 NA
ATOM     18  C   UNL     1      -3.283  12.673  21.620  0.00  0.00    +0.000 C 
ATOM     19  C   UNL     1      -2.316  13.173  20.516  0.00  0.00    +0.000 C 
ATOM     20  N   UNL     1      -0.889  12.835  20.731  0.00  0.00    +0.000 NA
ATOM     21  C   UNL     1      -0.528  13.227  22.112  0.00  0.00    +0.000 C 
ATOM     22  C   UNL     1      -1.460  12.653  23.200  0.00  0.00    +0.000 C 
ENDBRANCH  15  20
ENDBRANCH  14  15
ENDBRANCH  13  14
ENDBRANCH   7  13
ENDBRANCH   1  11
BRANCH   5  23
ATOM     23  C   UNL     1       4.389   2.073  20.590  0.00  0.00    +0.000 C 
ATOM     24  N   UNL     1       5.307   1.412  20.842  0.00  0.00    +0.000 NA
ENDBRANCH   5  23
BRANCH   6  25
ATOM     25  N   UNL     1       4.491   4.764  19.341  0.00  0.00    +0.000 N 
ATOM     26  H   UNL     1       5.155   5.116  20.013  0.00  0.00    +0.000 HD
BRANCH  25  27
ATOM     27  C   UNL     1       5.057   4.747  18.050  0.00  0.00    +0.000 A 
ATOM     28  C   UNL     1       4.562   3.892  17.053  0.00  0.00    +0.000 A 
ATOM     29  C   UNL     1       5.089   3.889  15.759  0.00  0.00    +0.000 A 
ATOM     30  C   UNL     1       6.124   4.751  15.409  0.00  0.00    +0.000 A 
ATOM     31  C   UNL     1       6.614   5.614  16.399  0.00  0.00    +0.000 A 
ATOM     32  N   UNL     1       7.608   6.566  16.321  0.00  0.00    +0.000 N 
ATOM     33  C   UNL     1       7.781   7.174  17.527  0.00  0.00    +0.000 A 
ATOM     34  C   UNL     1       6.885   6.609  18.407  0.00  0.00    +0.000 A 
ATOM     35  C   UNL     1       6.114   5.627  17.697  0.00  0.00    +0.000 A 
ATOM     36  H   UNL     1       8.136   6.774  15.478  0.00  0.00    +0.000 HD
ENDBRANCH  25  27
ENDBRANCH   6  25
TORSDOF 8
ENDMDL
MODEL 4
REMARK VINA RESULT:      -8.5      1.091      1.305
REMARK  Name = 
REMARK  9 active torsions:
REMARK  status: ('A' for Active; 'I' for Inactive)
REMARK    1  A    between atoms: C_1  and  N_2
REMARK    2  A    between atoms: N_5  and  C_6
REMARK    3  A    between atoms: C_6  and  C_7
REMARK    4  A    between atoms: C_7  and  O_8
REMARK    5  A    between atoms: O_8  and  C_9
REMARK    6  A    between atoms: C_13  and  C_14
REMARK    7  A    between atoms: C_18  and  C_19
REMARK    8  A    between atoms: C_21  and  N_22
REMARK    9  A    between atoms: N_22  and  C_23
REMARK                            x       y       z     vdW  Elec       q    Type
REMARK                         _______ _______ _______ _____ _____    ______ ____
ROOT
ATOM      1  C   UNL     1       2.103   4.965  19.941  0.00  0.00    +0.000 A 
ATOM      2  C   UNL     1       0.939   4.297  20.369  0.00  0.00    +0.000 A 
ATOM      3  N   UNL     1       0.854   3.002  20.752  0.00  0.00    +0.000 NA
ATOM      4  C   UNL     1       2.007   2.314  20.764  0.00  0.00    +0.000 A 
ATOM      5  C   UNL     1       3.233   2.846  20.383  0.00  0.00    +0.000 A 
ATOM      6  C   UNL     1       3.293   4.181  19.908  0.00  0.00    +0.000 A 
ENDROOT
BRANCH   1  11
ATOM      7  C   UNL     1       1.518   8.742  20.130  0.00  0.00    +0.000 A 
ATOM      8  C   UNL     1       1.786   9.143  18.827  0.00  0.00    +0.000 A 
ATOM      9  C   UNL     1       2.210   8.209  17.894  0.00  0.00    +0.000 A 
ATOM     10  C   UNL     1       2.375   6.875  18.272  0.00  0.00    +0.000 A 
ATOM     11  C   UNL     1       1.996   6.405  19.541  0.00  0.00    +0.000 A 
ATOM     12  C   UNL     1       1.558   7.383  20.461  0.00  0.00    +0.000 A 
BRANCH   7  13
ATOM     13  O   UNL     1       1.199   9.755  20.987  0.00  0.00    +0.000 OA
BRANCH  13  14
ATOM     14  C   UNL     1       0.240  10.710  20.525  0.00  0.00    +0.000 C 
BRANCH  14  15
ATOM     15  C   UNL     1       0.725  12.121  20.893  0.00  0.00    +0.000 C 
BRANCH  15  20
ATOM     16  C   UNL     1       4.094  14.481  18.296  0.00  0.00    +0.000 C 
ATOM     17  N   UNL     1       2.672  14.342  18.580  0.00  0.00    +0.000 NA
ATOM     18  C   UNL     1       2.362  14.667  19.984  0.00  0.00    +0.000 C 
ATOM     19  C   UNL     1       0.857  14.482  20.310  0.00  0.00    +0.000 C 
ATOM     20  N   UNL     1       0.294  13.160  19.942  0.00  0.00    +0.000 NA
ATOM     21  C   UNL     1       0.677  12.872  18.542  0.00  0.00    +0.000 C 
ATOM     22  C   UNL     1       2.190  12.988  18.260  0.00  0.00    +0.000 C 
ENDBRANCH  15  20
ENDBRANCH  14  15
ENDBRANCH  13  14
ENDBRANCH   7  13
ENDBRANCH   1  11
BRANCH   5  23
ATOM     23  C   UNL     1       4.383   2.019  20.588  0.00  0.00    +0.000 C 
ATOM     24  N   UNL     1       5.344   1.407  20.802  0.00  0.00    +0.000 NA
ENDBRANCH   5  23
BRANCH   6  25
ATOM     25  N   UNL     1       4.487   4.720  19.362  0.00  0.00    +0.000 N 
ATOM     26  H   UNL     1       5.166   5.036  20.036  0.00  0.00    +0.000 HD
BRANCH  25  27
ATOM     27  C   UNL     1       5.034   4.746  18.063  0.00  0.00    +0.000 A 
ATOM     28  C   UNL     1       4.511   3.938  17.041  0.00  0.00    +0.000 A 
ATOM     29  C   UNL     1       5.020   3.977  15.740  0.00  0.00    +0.000 A 
ATOM     30  C   UNL     1       6.063   4.836  15.408  0.00  0.00    +0.000 A 
ATOM     31  C   UNL     1       6.580   5.653  16.423  0.00  0.00    +0.000 A 
ATOM     32  N   UNL     1       7.588   6.593  16.368  0.00  0.00    +0.000 N 
ATOM     33  C   UNL     1       7.788   7.150  17.594  0.00  0.00    +0.000 A 
ATOM     34  C   UNL     1       6.895   6.564  18.464  0.00  0.00    +0.000 A 
ATOM     35  C   UNL     1       6.099   5.623  17.729  0.00  0.00    +0.000 A 
ATOM     36  H   UNL     1       8.107   6.825  15.526  0.00  0.00    +0.000 HD
ENDBRANCH  25  27
ENDBRANCH   6  25
TORSDOF 8
ENDMDL
MODEL 5
REMARK VINA RESULT:      -8.3      0.938      1.332
REMARK  Name = 
REMARK  9 active torsions:
REMARK  status: ('A' for Active; 'I' for Inactive)
REMARK    1  A    between atoms: C_1  and  N_2
REMARK    2  A    between atoms: N_5  and  C_6
REMARK    3  A    between atoms: C_6  and  C_7
REMARK    4  A    between atoms: C_7  and  O_8
REMARK    5  A    between atoms: O_8  and  C_9
REMARK    6  A    between atoms: C_13  and  C_14
REMARK    7  A    between atoms: C_18  and  C_19
REMARK    8  A    between atoms: C_21  and  N_22
REMARK    9  A    between atoms: N_22  and  C_23
REMARK                            x       y       z     vdW  Elec       q    Type
REMARK                         _______ _______ _______ _____ _____    ______ ____
ROOT
ATOM      1  C   UNL     1       2.115   5.015  19.996  0.00  0.00    +0.000 A 
ATOM      2  C   UNL     1       0.954   4.360  20.450  0.00  0.00    +0.000 A 
ATOM      3  N   UNL     1       0.872   3.076  20.870  0.00  0.00    +0.000 NA
ATOM      4  C   UNL     1       2.025   2.390  20.895  0.00  0.00    +0.000 A 
ATOM      5  C   UNL     1       3.248   2.910  20.492  0.00  0.00    +0.000 A 
ATOM      6  C   UNL     1       3.305   4.230  19.978  0.00  0.00    +0.000 A 
ENDROOT
BRANCH   1  11
ATOM      7  C   UNL     1       1.505   8.792  20.073  0.00  0.00    +0.000 A 
ATOM      8  C   UNL     1       1.790   9.159  18.763  0.00  0.00    +0.000 A 
ATOM      9  C   UNL     1       2.234   8.203  17.862  0.00  0.00    +0.000 A 
ATOM     10  C   UNL     1       2.400   6.881  18.279  0.00  0.00    +0.000 A 
ATOM     11  C   UNL     1       2.006   6.443  19.555  0.00  0.00    +0.000 A 
ATOM     12  C   UNL     1       1.548   7.443  20.441  0.00  0.00    +0.000 A 
BRANCH   7  13
ATOM     13  O   UNL     1       1.168   9.826  20.897  0.00  0.00    +0.000 OA
BRANCH  13  14
ATOM     14  C   UNL     1      -0.195   9.886  21.327  0.00  0.00    +0.000 C 
BRANCH  14  15
ATOM     15  C   UNL     1      -0.713  11.322  21.141  0.00  0.00    +0.000 C 
BRANCH  15  20
ATOM     16  C   UNL     1      -1.355  16.042  20.158  0.00  0.00    +0.000 C 
ATOM     17  N   UNL     1      -0.664  15.070  20.994  0.00  0.00    +0.000 NA
ATOM     18  C   UNL     1       0.213  14.192  20.198  0.00  0.00    +0.000 C 
ATOM     19  C   UNL     1       0.922  13.124  21.071  0.00  0.00    +0.000 C 
ATOM     20  N   UNL     1       0.023  12.322  21.934  0.00  0.00    +0.000 NA
ATOM     21  C   UNL     1      -0.860  13.255  22.670  0.00  0.00    +0.000 C 
ATOM     22  C   UNL     1      -1.615  14.258  21.771  0.00  0.00    +0.000 C 
ENDBRANCH  15  20
ENDBRANCH  14  15
ENDBRANCH  13  14
ENDBRANCH   7  13
ENDBRANCH   1  11
BRANCH   5  23
ATOM     23  C   UNL     1       4.399   2.088  20.713  0.00  0.00    +0.000 C 
ATOM     24  N   UNL     1       5.324   1.439  20.971  0.00  0.00    +0.000 NA
ENDBRANCH   5  23
BRANCH   6  25
ATOM     25  N   UNL     1       4.496   4.753  19.409  0.00  0.00    +0.000 N 
ATOM     26  H   UNL     1       5.187   5.071  20.070  0.00  0.00    +0.000 HD
BRANCH  25  27
ATOM     27  C   UNL     1       5.024   4.760  18.102  0.00  0.00    +0.000 A 
ATOM     28  C   UNL     1       4.488   3.936  17.100  0.00  0.00    +0.000 A 
ATOM     29  C   UNL     1       4.979   3.956  15.791  0.00  0.00    +0.000 A 
ATOM     30  C   UNL     1       6.016   4.811  15.432  0.00  0.00    +0.000 A 
ATOM     31  C   UNL     1       6.547   5.644  16.428  0.00  0.00    +0.000 A 
ATOM     32  N   UNL     1       7.552   6.583  16.343  0.00  0.00    +0.000 N 
ATOM     33  C   UNL     1       7.769   7.159  17.558  0.00  0.00    +0.000 A 
ATOM     34  C   UNL     1       6.889   6.586  18.450  0.00  0.00    +0.000 A 
ATOM     35  C   UNL     1       6.084   5.632  17.740  0.00  0.00    +0.000 A 
ATOM     36  H   UNL     1       8.059   6.803  15.491  0.00  0.00    +0.000 HD
ENDBRANCH  25  27
ENDBRANCH   6  25
TORSDOF 8
ENDMDL
MODEL 6
REMARK VINA RESULT:      -8.2      0.939      1.151
REMARK  Name = 
REMARK  9 active torsions:
REMARK  status: ('A' for Active; 'I' for Inactive)
REMARK    1  A    between atoms: C_1  and  N_2
REMARK    2  A    between atoms: N_5  and  C_6
REMARK    3  A    between atoms: C_6  and  C_7
REMARK    4  A    between atoms: C_7  and  O_8
REMARK    5  A    between atoms: O_8  and  C_9
REMARK    6  A    between atoms: C_13  and  C_14
REMARK    7  A    between atoms: C_18  and  C_19
REMARK    8  A    between atoms: C_21  and  N_22
REMARK    9  A    between atoms: N_22  and  C_23
REMARK                            x       y       z     vdW  Elec       q    Type
REMARK                         _______ _______ _______ _____ _____    ______ ____
ROOT
ATOM      1  C   UNL     1       2.159   5.000  19.958  0.00  0.00    +0.000 A 
ATOM      2  C   UNL     1       0.997   4.348  20.413  0.00  0.00    +0.000 A 
ATOM      3  N   UNL     1       0.917   3.072  20.858  0.00  0.00    +0.000 NA
ATOM      4  C   UNL     1       2.074   2.393  20.909  0.00  0.00    +0.000 A 
ATOM      5  C   UNL     1       3.298   2.911  20.508  0.00  0.00    +0.000 A 
ATOM      6  C   UNL     1       3.354   4.222  19.968  0.00  0.00    +0.000 A 
ENDROOT
BRANCH   1  11
ATOM      7  C   UNL     1       1.495   8.769  19.943  0.00  0.00    +0.000 A 
ATOM      8  C   UNL     1       1.824   9.116  18.638  0.00  0.00    +0.000 A 
ATOM      9  C   UNL     1       2.314   8.151  17.772  0.00  0.00    +0.000 A 
ATOM     10  C   UNL     1       2.483   6.839  18.220  0.00  0.00    +0.000 A 
ATOM     11  C   UNL     1       2.047   6.418  19.487  0.00  0.00    +0.000 A 
ATOM     12  C   UNL     1       1.542   7.427  20.337  0.00  0.00    +0.000 A 
BRANCH   7  13
ATOM     13  O   UNL     1       1.112   9.812  20.735  0.00  0.00    +0.000 OA
BRANCH  13  14
ATOM     14  C   UNL     1       0.554  10.951  20.073  0.00  0.00    +0.000 C 
BRANCH  14  15
ATOM     15  C   UNL     1       1.235  12.221  20.607  0.00  0.00    +0.000 C 
BRANCH  15  20
ATOM     16  C   UNL     1       0.863  16.640  18.607  0.00  0.00    +0.000 C 
ATOM     17  N   UNL     1       0.397  15.754  19.665  0.00  0.00    +0.000 NA
ATOM     18  C   UNL     1       1.491  15.370  20.577  0.00  0.00    +0.000 C 
ATOM     19  C   UNL     1       1.015  14.393  21.684  0.00  0.00    +0.000 C 
ATOM     20  N   UNL     1       0.297  13.193  21.194  0.00  0.00    +0.000 NA
ATOM     21  C   UNL     1      -0.754  13.639  20.252  0.00  0.00    +0.000 C 
ATOM     22  C   UNL     1      -0.243  14.548  19.114  0.00  0.00    +0.000 C 
ENDBRANCH  15  20
ENDBRANCH  14  15
ENDBRANCH  13  14
ENDBRANCH   7  13
ENDBRANCH   1  11
BRANCH   5  23
ATOM     23  C   UNL     1       4.452   2.102  20.758  0.00  0.00    +0.000 C 
ATOM     24  N   UNL     1       5.336   1.391  20.995  0.00  0.00    +0.000 NA
ENDBRANCH   5  23
BRANCH   6  25
ATOM     25  N   UNL     1       4.548   4.740  19.402  0.00  0.00    +0.000 N 
ATOM     26  H   UNL     1       5.220   5.096  20.063  0.00  0.00    +0.000 HD
BRANCH  25  27
ATOM     27  C   UNL     1       5.102   4.701  18.106  0.00  0.00    +0.000 A 
ATOM     28  C   UNL     1       4.616   3.810  17.137  0.00  0.00    +0.000 A 
ATOM     29  C   UNL     1       5.132   3.783  15.838  0.00  0.00    +0.000 A 
ATOM     30  C   UNL     1       6.146   4.657  15.456  0.00  0.00    +0.000 A 
ATOM     31  C   UNL     1       6.627   5.556  16.419  0.00  0.00    +0.000 A 
ATOM     32  N   UNL     1       7.600   6.526  16.307  0.00  0.00    +0.000 N 
ATOM     33  C   UNL     1       7.772   7.168  17.495  0.00  0.00    +0.000 A 
ATOM     34  C   UNL     1       6.894   6.608  18.397  0.00  0.00    +0.000 A 
ATOM     35  C   UNL     1       6.138   5.593  17.721  0.00  0.00    +0.000 A 
ATOM     36  H   UNL     1       8.116   6.722  15.454  0.00  0.00    +0.000 HD
ENDBRANCH  25  27
ENDBRANCH   6  25
TORSDOF 8
ENDMDL
MODEL 7
REMARK VINA RESULT:      -8.2      1.175      1.461
REMARK  Name = 
REMARK  9 active torsions:
REMARK  status: ('A' for Active; 'I' for Inactive)
REMARK    1  A    between atoms: C_1  and  N_2
REMARK    2  A    between atoms: N_5  and  C_6
REMARK    3  A    between atoms: C_6  and  C_7
REMARK    4  A    between atoms: C_7  and  O_8
REMARK    5  A    between atoms: O_8  and  C_9
REMARK    6  A    between atoms: C_13  and  C_14
REMARK    7  A    between atoms: C_18  and  C_19
REMARK    8  A    between atoms: C_21  and  N_22
REMARK    9  A    between atoms: N_22  and  C_23
REMARK                            x       y       z     vdW  Elec       q    Type
REMARK                         _______ _______ _______ _____ _____    ______ ____
ROOT
ATOM      1  C   UNL     1       2.137   4.976  19.988  0.00  0.00    +0.000 A 
ATOM      2  C   UNL     1       0.981   4.313  20.442  0.00  0.00    +0.000 A 
ATOM      3  N   UNL     1       0.908   3.030  20.867  0.00  0.00    +0.000 NA
ATOM      4  C   UNL     1       2.067   2.353  20.897  0.00  0.00    +0.000 A 
ATOM      5  C   UNL     1       3.286   2.882  20.494  0.00  0.00    +0.000 A 
ATOM      6  C   UNL     1       3.334   4.201  19.975  0.00  0.00    +0.000 A 
ENDROOT
BRANCH   1  11
ATOM      7  C   UNL     1       1.515   8.751  20.054  0.00  0.00    +0.000 A 
ATOM      8  C   UNL     1       1.782   9.112  18.739  0.00  0.00    +0.000 A 
ATOM      9  C   UNL     1       2.218   8.154  17.838  0.00  0.00    +0.000 A 
ATOM     10  C   UNL     1       2.394   6.834  18.259  0.00  0.00    +0.000 A 
ATOM     11  C   UNL     1       2.017   6.401  19.541  0.00  0.00    +0.000 A 
ATOM     12  C   UNL     1       1.567   7.404  20.429  0.00  0.00    +0.000 A 
BRANCH   7  13
ATOM     13  O   UNL     1       1.183   9.788  20.878  0.00  0.00    +0.000 OA
BRANCH  13  14
ATOM     14  C   UNL     1      -0.092   9.715  21.521  0.00  0.00    +0.000 C 
BRANCH  14  15
ATOM     15  C   UNL     1      -0.383  11.060  22.205  0.00  0.00    +0.000 C 
BRANCH  15  20
ATOM     16  C   UNL     1      -1.177  15.843  22.598  0.00  0.00    +0.000 C 
ATOM     17  N   UNL     1      -1.765  14.546  22.292  0.00  0.00    +0.000 NA
ATOM     18  C   UNL     1      -1.717  13.638  23.453  0.00  0.00    +0.000 C 
ATOM     19  C   UNL     1      -2.303  12.240  23.127  0.00  0.00    +0.000 C 
ATOM     20  N   UNL     1      -1.731  11.585  21.926  0.00  0.00    +0.000 NA
ATOM     21  C   UNL     1      -1.765  12.559  20.813  0.00  0.00    +0.000 C 
ATOM     22  C   UNL     1      -1.107  13.917  21.135  0.00  0.00    +0.000 C 
ENDBRANCH  15  20
ENDBRANCH  14  15
ENDBRANCH  13  14
ENDBRANCH   7  13
ENDBRANCH   1  11
BRANCH   5  23
ATOM     23  C   UNL     1       4.444   2.071  20.721  0.00  0.00    +0.000 C 
ATOM     24  N   UNL     1       5.340   1.376  20.963  0.00  0.00    +0.000 NA
ENDBRANCH   5  23
BRANCH   6  25
ATOM     25  N   UNL     1       4.521   4.731  19.407  0.00  0.00    +0.000 N 
ATOM     26  H   UNL     1       5.196   5.083  20.068  0.00  0.00    +0.000 HD
BRANCH  25  27
ATOM     27  C   UNL     1       5.067   4.711  18.108  0.00  0.00    +0.000 A 
ATOM     28  C   UNL     1       4.565   3.843  17.125  0.00  0.00    +0.000 A 
ATOM     29  C   UNL     1       5.073   3.835  15.823  0.00  0.00    +0.000 A 
ATOM     30  C   UNL     1       6.095   4.704  15.450  0.00  0.00    +0.000 A 
ATOM     31  C   UNL     1       6.591   5.579  16.427  0.00  0.00    +0.000 A 
ATOM     32  N   UNL     1       7.575   6.540  16.326  0.00  0.00    +0.000 N 
ATOM     33  C   UNL     1       7.761   7.158  17.526  0.00  0.00    +0.000 A 
ATOM     34  C   UNL     1       6.883   6.591  18.423  0.00  0.00    +0.000 A 
ATOM     35  C   UNL     1       6.111   5.597  17.733  0.00  0.00    +0.000 A 
ATOM     36  H   UNL     1       8.088   6.746  15.475  0.00  0.00    +0.000 HD
ENDBRANCH  25  27
ENDBRANCH   6  25
TORSDOF 8
ENDMDL
MODEL 8
REMARK VINA RESULT:      -8.2      1.477      2.572
REMARK  Name = 
REMARK  9 active torsions:
REMARK  status: ('A' for Active; 'I' for Inactive)
REMARK    1  A    between atoms: C_1  and  N_2
REMARK    2  A    between atoms: N_5  and  C_6
REMARK    3  A    between atoms: C_6  and  C_7
REMARK    4  A    between atoms: C_7  and  O_8
REMARK    5  A    between atoms: O_8  and  C_9
REMARK    6  A    between atoms: C_13  and  C_14
REMARK    7  A    between atoms: C_18  and  C_19
REMARK    8  A    between atoms: C_21  and  N_22
REMARK    9  A    between atoms: N_22  and  C_23
REMARK                            x       y       z     vdW  Elec       q    Type
REMARK                         _______ _______ _______ _____ _____    ______ ____
ROOT
ATOM      1  C   UNL     1       2.480   5.024  19.978  0.00  0.00    +0.000 A 
ATOM      2  C   UNL     1       1.606   4.743  21.044  0.00  0.00    +0.000 A 
ATOM      3  N   UNL     1       1.571   3.602  21.772  0.00  0.00    +0.000 NA
ATOM      4  C   UNL     1       2.497   2.680  21.466  0.00  0.00    +0.000 A 
ATOM      5  C   UNL     1       3.433   2.827  20.450  0.00  0.00    +0.000 A 
ATOM      6  C   UNL     1       3.406   3.993  19.644  0.00  0.00    +0.000 A 
ENDROOT
BRANCH   1  11
ATOM      7  C   UNL     1       1.782   8.733  19.339  0.00  0.00    +0.000 A 
ATOM      8  C   UNL     1       2.112   8.863  17.996  0.00  0.00    +0.000 A 
ATOM      9  C   UNL     1       2.615   7.773  17.302  0.00  0.00    +0.000 A 
ATOM     10  C   UNL     1       2.794   6.555  17.960  0.00  0.00    +0.000 A 
ATOM     11  C   UNL     1       2.357   6.345  19.279  0.00  0.00    +0.000 A 
ATOM     12  C   UNL     1       1.840   7.475  19.950  0.00  0.00    +0.000 A 
BRANCH   7  13
ATOM     13  O   UNL     1       1.387   9.888  19.948  0.00  0.00    +0.000 OA
BRANCH  13  14
ATOM     14  C   UNL     1       0.279   9.795  20.847  0.00  0.00    +0.000 C 
BRANCH  14  15
ATOM     15  C   UNL     1      -1.025   9.965  20.052  0.00  0.00    +0.000 C 
BRANCH  15  20
ATOM     16  C   UNL     1      -5.013  11.183  17.546  0.00  0.00    +0.000 C 
ATOM     17  N   UNL     1      -3.567  11.321  17.649  0.00  0.00    +0.000 NA
ATOM     18  C   UNL     1      -2.882  10.024  17.496  0.00  0.00    +0.000 C 
ATOM     19  C   UNL     1      -1.344  10.152  17.645  0.00  0.00    +0.000 C 
ATOM     20  N   UNL     1      -0.888  10.842  18.875  0.00  0.00    +0.000 NA
ATOM     21  C   UNL     1      -1.642  12.110  18.996  0.00  0.00    +0.000 C 
ATOM     22  C   UNL     1      -3.175  11.948  18.922  0.00  0.00    +0.000 C 
ENDBRANCH  15  20
ENDBRANCH  14  15
ENDBRANCH  13  14
ENDBRANCH   7  13
ENDBRANCH   1  11
BRANCH   5  23
ATOM     23  C   UNL     1       4.435   1.809  20.349  0.00  0.00    +0.000 C 
ATOM     24  N   UNL     1       5.299   1.039  20.295  0.00  0.00    +0.000 NA
ENDBRANCH   5  23
BRANCH   6  25
ATOM     25  N   UNL     1       4.235   4.122  18.499  0.00  0.00    +0.000 N 
ATOM     26  H   UNL     1       3.845   3.766  17.641  0.00  0.00    +0.000 HD
BRANCH  25  27
ATOM     27  C   UNL     1       5.435   4.817  18.244  0.00  0.00    +0.000 A 
ATOM     28  C   UNL     1       6.200   5.348  19.294  0.00  0.00    +0.000 A 
ATOM     29  C   UNL     1       7.409   6.011  19.059  0.00  0.00    +0.000 A 
ATOM     30  C   UNL     1       7.905   6.155  17.767  0.00  0.00    +0.000 A 
ATOM     31  C   UNL     1       7.148   5.615  16.717  0.00  0.00    +0.000 A 
ATOM     32  N   UNL     1       7.408   5.602  15.363  0.00  0.00    +0.000 N 
ATOM     33  C   UNL     1       6.397   4.986  14.690  0.00  0.00    +0.000 A 
ATOM     34  C   UNL     1       5.461   4.591  15.621  0.00  0.00    +0.000 A 
ATOM     35  C   UNL     1       5.936   4.963  16.924  0.00  0.00    +0.000 A 
ATOM     36  H   UNL     1       8.238   6.003  14.937  0.00  0.00    +0.000 HD
ENDBRANCH  25  27
ENDBRANCH   6  25
TORSDOF 8
ENDMDL
MODEL 9
REMARK VINA RESULT:      -8.0      1.640      2.264
REMARK  Name = 
REMARK  9 active torsions:
REMARK  status: ('A' for Active; 'I' for Inactive)
REMARK    1  A    between atoms: C_1  and  N_2
REMARK    2  A    between atoms: N_5  and  C_6
REMARK    3  A    between atoms: C_6  and  C_7
REMARK    4  A    between atoms: C_7  and  O_8
REMARK    5  A    between atoms: O_8  and  C_9
REMARK    6  A    between atoms: C_13  and  C_14
REMARK    7  A    between atoms: C_18  and  C_19
REMARK    8  A    between atoms: C_21  and  N_22
REMARK    9  A    between atoms: N_22  and  C_23
REMARK                            x       y       z     vdW  Elec       q    Type
REMARK                         _______ _______ _______ _____ _____    ______ ____
ROOT
ATOM      1  C   UNL     1       2.334   5.233  19.840  0.00  0.00    +0.000 A 
ATOM      2  C   UNL     1       1.863   4.874  21.117  0.00  0.00    +0.000 A 
ATOM      3  N   UNL     1       1.909   3.639  21.669  0.00  0.00    +0.000 NA
ATOM      4  C   UNL     1       2.507   2.687  20.935  0.00  0.00    +0.000 A 
ATOM      5  C   UNL     1       3.031   2.899  19.666  0.00  0.00    +0.000 A 
ATOM      6  C   UNL     1       2.904   4.179  19.068  0.00  0.00    +0.000 A 
ENDROOT
BRANCH   1  11
ATOM      7  C   UNL     1       1.464   8.960  19.856  0.00  0.00    +0.000 A 
ATOM      8  C   UNL     1       1.879   9.360  18.592  0.00  0.00    +0.000 A 
ATOM      9  C   UNL     1       2.492   8.447  17.748  0.00  0.00    +0.000 A 
ATOM     10  C   UNL     1       2.697   7.134  18.178  0.00  0.00    +0.000 A 
ATOM     11  C   UNL     1       2.182   6.656  19.394  0.00  0.00    +0.000 A 
ATOM     12  C   UNL     1       1.553   7.612  20.222  0.00  0.00    +0.000 A 
BRANCH   7  13
ATOM     13  O   UNL     1       0.959   9.958  20.637  0.00  0.00    +0.000 OA
BRANCH  13  14
ATOM     14  C   UNL     1      -0.357  10.420  20.320  0.00  0.00    +0.000 C 
BRANCH  14  15
ATOM     15  C   UNL     1      -0.447  11.922  20.634  0.00  0.00    +0.000 C 
BRANCH  15  20
ATOM     16  C   UNL     1      -3.967  14.012  23.262  0.00  0.00    +0.000 C 
ATOM     17  N   UNL     1      -2.600  13.511  23.263  0.00  0.00    +0.000 NA
ATOM     18  C   UNL     1      -1.744  14.257  22.322  0.00  0.00    +0.000 C 
ATOM     19  C   UNL     1      -0.295  13.706  22.284  0.00  0.00    +0.000 C 
ATOM     20  N   UNL     1      -0.185  12.246  22.047  0.00  0.00    +0.000 NA
ATOM     21  C   UNL     1      -1.098  11.559  22.988  0.00  0.00    +0.000 C 
ATOM     22  C   UNL     1      -2.553  12.073  22.952  0.00  0.00    +0.000 C 
ENDBRANCH  15  20
ENDBRANCH  14  15
ENDBRANCH  13  14
ENDBRANCH   7  13
ENDBRANCH   1  11
BRANCH   5  23
ATOM     23  C   UNL     1       3.756   1.812  19.081  0.00  0.00    +0.000 C 
ATOM     24  N   UNL     1       4.362   0.982  18.546  0.00  0.00    +0.000 NA
ENDBRANCH   5  23
BRANCH   6  25
ATOM     25  N   UNL     1       3.281   4.406  17.718  0.00  0.00    +0.000 N 
ATOM     26  H   UNL     1       2.545   4.736  17.114  0.00  0.00    +0.000 HD
BRANCH  25  27
ATOM     27  C   UNL     1       4.524   4.454  17.054  0.00  0.00    +0.000 A 
ATOM     28  C   UNL     1       4.636   4.098  15.701  0.00  0.00    +0.000 A 
ATOM     29  C   UNL     1       5.855   4.173  15.020  0.00  0.00    +0.000 A 
ATOM     30  C   UNL     1       7.005   4.619  15.663  0.00  0.00    +0.000 A 
ATOM     31  C   UNL     1       6.894   4.986  17.012  0.00  0.00    +0.000 A 
ATOM     32  N   UNL     1       7.857   5.470  17.873  0.00  0.00    +0.000 N 
ATOM     33  C   UNL     1       7.326   5.683  19.109  0.00  0.00    +0.000 A 
ATOM     34  C   UNL     1       5.995   5.333  19.054  0.00  0.00    +0.000 A 
ATOM     35  C   UNL     1       5.695   4.908  17.715  0.00  0.00    +0.000 A 
ATOM     36  H   UNL     1       8.824   5.635  17.614  0.00  0.00    +0.000 HD
ENDBRANCH  25  27
ENDBRANCH   6  25
TORSDOF 8
ENDMDL
