MODEL 1
REMARK VINA RESULT:      -5.9      0.000      0.000
REMARK  Name = 
REMARK  7 active torsions:
REMARK  status: ('A' for Active; 'I' for Inactive)
REMARK    1  A    between atoms: C_1  and  C_2
REMARK    2  A    between atoms: C_2  and  O_3
REMARK    3  A    between atoms: O_3  and  C_4
REMARK    4  A    between atoms: C_4  and  C_6
REMARK    5  A    between atoms: C_7  and  C_8
REMARK    6  A    between atoms: C_19  and  C_20
REMARK    7  A    between atoms: C_25  and  O_26
REMARK                            x       y       z     vdW  Elec       q    Type
REMARK                         _______ _______ _______ _____ _____    ______ ____
ROOT
ATOM      1  C   UNL     1      -0.827  13.044  21.409  0.00  0.00    +0.000 C 
ATOM      2  C   UNL     1      -1.051  14.325  21.802  0.00  0.00    +0.000 C 
ATOM      3  C   UNL     1      -0.608  14.772  23.166  0.00  0.00    +0.000 C 
ATOM      4  N   UNL     1      -1.117  15.354  20.903  0.00  0.00    +0.000 NA
ATOM      5  C   UNL     1      -0.130  15.277  20.098  0.00  0.00    +0.000 C 
ATOM      6  S   UNL     1       0.959  16.634  20.366  0.00  0.00    +0.000 S 
ATOM      7  C   UNL     1       2.344  15.468  20.138  0.00  0.00    +0.000 A 
ATOM      8  C   UNL     1       3.578  16.126  20.065  0.00  0.00    +0.000 A 
ATOM      9  C   UNL     1       4.256  16.019  18.876  0.00  0.00    +0.000 A 
ATOM     10  C   UNL     1       3.730  15.167  17.891  0.00  0.00    +0.000 A 
ATOM     11  C   UNL     1       2.576  14.331  18.118  0.00  0.00    +0.000 A 
ATOM     12  C   UNL     1       1.849  14.406  19.314  0.00  0.00    +0.000 A 
ATOM     13  N   UNL     1       0.447  14.133  19.466  0.00  0.00    +0.000 N 
ATOM     14  C   UNL     1      -0.385  12.769  19.950  0.00  0.00    +0.000 C 
ENDROOT
BRANCH  14  15
ATOM     15  C   UNL     1      -1.522  11.708  19.439  0.00  0.00    +0.000 A 
ATOM     16  C   UNL     1      -1.050  10.513  18.797  0.00  0.00    +0.000 A 
ATOM     17  C   UNL     1      -1.785   9.781  17.852  0.00  0.00    +0.000 A 
ATOM     18  C   UNL     1      -3.057  10.184  17.510  0.00  0.00    +0.000 A 
ATOM     19  C   UNL     1      -3.587  11.304  18.164  0.00  0.00    +0.000 A 
ATOM     20  C   UNL     1      -2.834  12.066  19.106  0.00  0.00    +0.000 A 
BRANCH  20  21
ATOM     21  O   UNL     1      -3.395  13.207  19.604  0.00  0.00    +0.000 OA
ATOM     22  H   UNL     1      -2.874  13.981  19.295  0.00  0.00    +0.000 HD
ENDBRANCH  20  21
ENDBRANCH  14  15
BRANCH   1  23
ATOM     23  C   UNL     1      -1.291  12.031  22.387  0.00  0.00    +0.000 C 
ATOM     24  O   UNL     1      -2.422  11.920  22.823  0.00  0.00    +0.000 OA
BRANCH  23  25
ATOM     25  O   UNL     1      -0.220  11.243  22.727  0.00  0.00    +0.000 OA
BRANCH  25  27
ATOM     26  C   UNL     1      -0.138   8.926  22.018  0.00  0.00    +0.000 C 
ATOM     27  C   UNL     1      -0.430   9.887  23.153  0.00  0.00    +0.000 C 
ENDBRANCH  25  27
ENDBRANCH  23  25
ENDBRANCH   1  23
TORSDOF 5
ENDMDL
MODEL 2
REMARK VINA RESULT:      -5.8      7.352     10.740
REMARK  Name = 
REMARK  7 active torsions:
REMARK  status: ('A' for Active; 'I' for Inactive)
REMARK    1  A    between atoms: C_1  and  C_2
REMARK    2  A    between atoms: C_2  and  O_3
REMARK    3  A    between atoms: O_3  and  C_4
REMARK    4  A    between atoms: C_4  and  C_6
REMARK    5  A    between atoms: C_7  and  C_8
REMARK    6  A    between atoms: C_19  and  C_20
REMARK    7  A    between atoms: C_25  and  O_26
REMARK                            x       y       z     vdW  Elec       q    Type
REMARK                         _______ _______ _______ _____ _____    ______ ____
ROOT
ATOM      1  C   UNL     1       9.488  15.427  19.541  0.00  0.00    +0.000 C 
ATOM      2  C   UNL     1       9.052  16.032  20.677  0.00  0.00    +0.000 C 
ATOM      3  C   UNL     1       9.225  17.515  20.841  0.00  0.00    +0.000 C 
ATOM      4  N   UNL     1       8.001  15.539  21.400  0.00  0.00    +0.000 NA
ATOM      5  C   UNL     1       7.034  15.270  20.611  0.00  0.00    +0.000 C 
ATOM      6  S   UNL     1       5.697  16.373  20.918  0.00  0.00    +0.000 S 
ATOM      7  C   UNL     1       5.450  16.454  19.112  0.00  0.00    +0.000 A 
ATOM      8  C   UNL     1       4.271  17.129  18.773  0.00  0.00    +0.000 A 
ATOM      9  C   UNL     1       3.308  16.389  18.132  0.00  0.00    +0.000 A 
ATOM     10  C   UNL     1       3.627  15.074  17.759  0.00  0.00    +0.000 A 
ATOM     11  C   UNL     1       4.946  14.513  17.927  0.00  0.00    +0.000 A 
ATOM     12  C   UNL     1       5.961  15.227  18.577  0.00  0.00    +0.000 A 
ATOM     13  N   UNL     1       7.050  14.657  19.321  0.00  0.00    +0.000 N 
ATOM     14  C   UNL     1       8.628  14.304  18.908  0.00  0.00    +0.000 C 
ENDROOT
BRANCH  14  15
ATOM     15  C   UNL     1       9.688  13.060  18.829  0.00  0.00    +0.000 A 
ATOM     16  C   UNL     1      10.051  12.437  20.072  0.00  0.00    +0.000 A 
ATOM     17  C   UNL     1      11.267  11.776  20.299  0.00  0.00    +0.000 A 
ATOM     18  C   UNL     1      12.190  11.669  19.283  0.00  0.00    +0.000 A 
ATOM     19  C   UNL     1      11.850  12.198  18.031  0.00  0.00    +0.000 A 
ATOM     20  C   UNL     1      10.626  12.893  17.802  0.00  0.00    +0.000 A 
BRANCH  20  21
ATOM     21  O   UNL     1      10.435  13.473  16.581  0.00  0.00    +0.000 OA
ATOM     22  H   UNL     1      10.460  14.451  16.683  0.00  0.00    +0.000 HD
ENDBRANCH  20  21
ENDBRANCH  14  15
BRANCH   1  23
ATOM     23  C   UNL     1      10.890  15.757  19.190  0.00  0.00    +0.000 C 
ATOM     24  O   UNL     1      11.861  15.622  19.911  0.00  0.00    +0.000 OA
BRANCH  23  25
ATOM     25  O   UNL     1      10.904  16.254  17.911  0.00  0.00    +0.000 OA
BRANCH  25  27
ATOM     26  C   UNL     1      10.910  18.625  17.401  0.00  0.00    +0.000 C 
ATOM     27  C   UNL     1      11.744  17.372  17.582  0.00  0.00    +0.000 C 
ENDBRANCH  25  27
ENDBRANCH  23  25
ENDBRANCH   1  23
TORSDOF 5
ENDMDL
MODEL 3
REMARK VINA RESULT:      -5.8      3.338      6.732
REMARK  Name = 
REMARK  7 active torsions:
REMARK  status: ('A' for Active; 'I' for Inactive)
REMARK    1  A    between atoms: C_1  and  C_2
REMARK    2  A    between atoms: C_2  and  O_3
REMARK    3  A    between atoms: O_3  and  C_4
REMARK    4  A    between atoms: C_4  and  C_6
REMARK    5  A    between atoms: C_7  and  C_8
REMARK    6  A    between atoms: C_19  and  C_20
REMARK    7  A    between atoms: C_25  and  O_26
REMARK                            x       y       z     vdW  Elec       q    Type
REMARK                         _______ _______ _______ _____ _____    ______ ____
ROOT
ATOM      1  C   UNL     1      -1.944  11.092  19.233  0.00  0.00    +0.000 C 
ATOM      2  C   UNL     1      -2.661  10.849  18.105  0.00  0.00    +0.000 C 
ATOM      3  C   UNL     1      -3.051   9.439  17.762  0.00  0.00    +0.000 C 
ATOM      4  N   UNL     1      -3.518  11.777  17.580  0.00  0.00    +0.000 NA
ATOM      5  C   UNL     1      -4.254  12.248  18.512  0.00  0.00    +0.000 C 
ATOM      6  S   UNL     1      -5.920  11.737  18.263  0.00  0.00    +0.000 S 
ATOM      7  C   UNL     1      -6.030  11.484  20.067  0.00  0.00    +0.000 A 
ATOM      8  C   UNL     1      -7.342  11.220  20.481  0.00  0.00    +0.000 A 
ATOM      9  C   UNL     1      -7.915  12.147  21.317  0.00  0.00    +0.000 A 
ATOM     10  C   UNL     1      -7.111  13.200  21.784  0.00  0.00    +0.000 A 
ATOM     11  C   UNL     1      -5.698  13.284  21.508  0.00  0.00    +0.000 A 
ATOM     12  C   UNL     1      -5.067  12.364  20.660  0.00  0.00    +0.000 A 
ATOM     13  N   UNL     1      -3.911  12.621  19.847  0.00  0.00    +0.000 N 
ATOM     14  C   UNL     1      -2.283  12.338  20.088  0.00  0.00    +0.000 C 
ENDROOT
BRANCH  14  15
ATOM     15  C   UNL     1      -0.842  13.109  20.163  0.00  0.00    +0.000 A 
ATOM     16  C   UNL     1      -0.392  13.760  18.963  0.00  0.00    +0.000 A 
ATOM     17  C   UNL     1       0.955  13.987  18.645  0.00  0.00    +0.000 A 
ATOM     18  C   UNL     1       1.941  13.604  19.526  0.00  0.00    +0.000 A 
ATOM     19  C   UNL     1       1.548  13.030  20.742  0.00  0.00    +0.000 A 
ATOM     20  C   UNL     1       0.181  12.774  21.058  0.00  0.00    +0.000 A 
BRANCH  20  21
ATOM     21  O   UNL     1      -0.096  12.107  22.217  0.00  0.00    +0.000 OA
ATOM     22  H   UNL     1      -1.063  12.147  22.387  0.00  0.00    +0.000 HD
ENDBRANCH  20  21
ENDBRANCH  14  15
BRANCH   1  23
ATOM     23  C   UNL     1      -0.734  10.246  19.363  0.00  0.00    +0.000 C 
ATOM     24  O   UNL     1      -0.446   9.547  20.318  0.00  0.00    +0.000 OA
BRANCH  23  25
ATOM     25  O   UNL     1       0.016  10.394  18.224  0.00  0.00    +0.000 OA
BRANCH  25  27
ATOM     26  C   UNL     1       1.782   8.786  17.804  0.00  0.00    +0.000 C 
ATOM     27  C   UNL     1       1.437  10.188  18.265  0.00  0.00    +0.000 C 
ENDBRANCH  25  27
ENDBRANCH  23  25
ENDBRANCH   1  23
TORSDOF 5
ENDMDL
MODEL 4
REMARK VINA RESULT:      -5.7      3.391      5.849
REMARK  Name = 
REMARK  7 active torsions:
REMARK  status: ('A' for Active; 'I' for Inactive)
REMARK    1  A    between atoms: C_1  and  C_2
REMARK    2  A    between atoms: C_2  and  O_3
REMARK    3  A    between atoms: O_3  and  C_4
REMARK    4  A    between atoms: C_4  and  C_6
REMARK    5  A    between atoms: C_7  and  C_8
REMARK    6  A    between atoms: C_19  and  C_20
REMARK    7  A    between atoms: C_25  and  O_26
REMARK                            x       y       z     vdW  Elec       q    Type
REMARK                         _______ _______ _______ _____ _____    ______ ____
ROOT
ATOM      1  C   UNL     1      -2.946  12.880  22.110  0.00  0.00    +0.000 C 
ATOM      2  C   UNL     1      -1.670  13.197  21.767  0.00  0.00    +0.000 C 
ATOM      3  C   UNL     1      -0.531  12.380  22.308  0.00  0.00    +0.000 C 
ATOM      4  N   UNL     1      -1.371  13.797  20.575  0.00  0.00    +0.000 NA
ATOM      5  C   UNL     1      -1.972  13.184  19.630  0.00  0.00    +0.000 C 
ATOM      6  S   UNL     1      -0.791  12.372  18.608  0.00  0.00    +0.000 S 
ATOM      7  C   UNL     1      -1.950  10.965  18.520  0.00  0.00    +0.000 A 
ATOM      8  C   UNL     1      -1.542  10.006  17.584  0.00  0.00    +0.000 A 
ATOM      9  C   UNL     1      -2.375   9.810  16.510  0.00  0.00    +0.000 A 
ATOM     10  C   UNL     1      -3.609  10.480  16.501  0.00  0.00    +0.000 A 
ATOM     11  C   UNL     1      -4.074  11.273  17.613  0.00  0.00    +0.000 A 
ATOM     12  C   UNL     1      -3.260  11.505  18.731  0.00  0.00    +0.000 A 
ATOM     13  N   UNL     1      -3.301  12.665  19.577  0.00  0.00    +0.000 N 
ATOM     14  C   UNL     1      -4.059  12.964  21.034  0.00  0.00    +0.000 C 
ENDROOT
BRANCH  14  15
ATOM     15  C   UNL     1      -5.142  13.970  21.737  0.00  0.00    +0.000 A 
ATOM     16  C   UNL     1      -4.765  15.351  21.853  0.00  0.00    +0.000 A 
ATOM     17  C   UNL     1      -5.249  16.222  22.840  0.00  0.00    +0.000 A 
ATOM     18  C   UNL     1      -6.170  15.772  23.760  0.00  0.00    +0.000 A 
ATOM     19  C   UNL     1      -6.622  14.452  23.642  0.00  0.00    +0.000 A 
ATOM     20  C   UNL     1      -6.114  13.555  22.656  0.00  0.00    +0.000 A 
BRANCH  20  21
ATOM     21  O   UNL     1      -6.532  12.256  22.692  0.00  0.00    +0.000 OA
ATOM     22  H   UNL     1      -5.977  11.759  23.334  0.00  0.00    +0.000 HD
ENDBRANCH  20  21
ENDBRANCH  14  15
BRANCH   1  23
ATOM     23  C   UNL     1      -3.152  12.734  23.570  0.00  0.00    +0.000 C 
ATOM     24  O   UNL     1      -3.792  11.855  24.120  0.00  0.00    +0.000 OA
BRANCH  23  25
ATOM     25  O   UNL     1      -2.505  13.768  24.199  0.00  0.00    +0.000 OA
BRANCH  25  27
ATOM     26  C   UNL     1      -2.618  15.883  25.380  0.00  0.00    +0.000 C 
ATOM     27  C   UNL     1      -3.142  14.463  25.282  0.00  0.00    +0.000 C 
ENDBRANCH  25  27
ENDBRANCH  23  25
ENDBRANCH   1  23
TORSDOF 5
ENDMDL
MODEL 5
REMARK VINA RESULT:      -5.7      3.418      6.123
REMARK  Name = 
REMARK  7 active torsions:
REMARK  status: ('A' for Active; 'I' for Inactive)
REMARK    1  A    between atoms: C_1  and  C_2
REMARK    2  A    between atoms: C_2  and  O_3
REMARK    3  A    between atoms: O_3  and  C_4
REMARK    4  A    between atoms: C_4  and  C_6
REMARK    5  A    between atoms: C_7  and  C_8
REMARK    6  A    between atoms: C_19  and  C_20
REMARK    7  A    between atoms: C_25  and  O_26
REMARK                            x       y       z     vdW  Elec       q    Type
REMARK                         _______ _______ _______ _____ _____    ______ ____
ROOT
ATOM      1  C   UNL     1      -1.776  13.605  21.167  0.00  0.00    +0.000 C 
ATOM      2  C   UNL     1      -1.523  13.498  22.498  0.00  0.00    +0.000 C 
ATOM      3  C   UNL     1      -1.263  14.737  23.306  0.00  0.00    +0.000 C 
ATOM      4  N   UNL     1      -2.030  12.473  23.249  0.00  0.00    +0.000 NA
ATOM      5  C   UNL     1      -3.274  12.338  22.996  0.00  0.00    +0.000 C 
ATOM      6  S   UNL     1      -4.218  12.785  24.412  0.00  0.00    +0.000 S 
ATOM      7  C   UNL     1      -5.395  13.596  23.277  0.00  0.00    +0.000 A 
ATOM      8  C   UNL     1      -6.560  14.009  23.935  0.00  0.00    +0.000 A 
ATOM      9  C   UNL     1      -7.728  13.406  23.540  0.00  0.00    +0.000 A 
ATOM     10  C   UNL     1      -7.682  12.535  22.440  0.00  0.00    +0.000 A 
ATOM     11  C   UNL     1      -6.490  12.333  21.654  0.00  0.00    +0.000 A 
ATOM     12  C   UNL     1      -5.271  12.924  22.018  0.00  0.00    +0.000 A 
ATOM     13  N   UNL     1      -3.964  12.395  21.746  0.00  0.00    +0.000 N 
ATOM     14  C   UNL     1      -2.860  12.699  20.531  0.00  0.00    +0.000 C 
ENDROOT
BRANCH  14  15
ATOM     15  C   UNL     1      -2.030  11.955  19.333  0.00  0.00    +0.000 A 
ATOM     16  C   UNL     1      -2.641  11.940  18.033  0.00  0.00    +0.000 A 
ATOM     17  C   UNL     1      -2.403  10.959  17.060  0.00  0.00    +0.000 A 
ATOM     18  C   UNL     1      -1.511   9.941  17.315  0.00  0.00    +0.000 A 
ATOM     19  C   UNL     1      -0.837   9.954  18.543  0.00  0.00    +0.000 A 
ATOM     20  C   UNL     1      -1.094  10.935  19.545  0.00  0.00    +0.000 A 
BRANCH  20  21
ATOM     21  O   UNL     1      -0.471  10.798  20.753  0.00  0.00    +0.000 OA
ATOM     22  H   UNL     1      -0.022   9.925  20.784  0.00  0.00    +0.000 HD
ENDBRANCH  20  21
ENDBRANCH  14  15
BRANCH   1  23
ATOM     23  C   UNL     1      -0.777  14.418  20.434  0.00  0.00    +0.000 C 
ATOM     24  O   UNL     1      -1.000  15.446  19.820  0.00  0.00    +0.000 OA
BRANCH  23  25
ATOM     25  O   UNL     1       0.446  13.808  20.559  0.00  0.00    +0.000 OA
BRANCH  25  27
ATOM     26  C   UNL     1       1.443  13.275  18.413  0.00  0.00    +0.000 C 
ATOM     27  C   UNL     1       1.512  14.141  19.655  0.00  0.00    +0.000 C 
ENDBRANCH  25  27
ENDBRANCH  23  25
ENDBRANCH   1  23
TORSDOF 5
ENDMDL
MODEL 6
REMARK VINA RESULT:      -5.7      3.420      6.781
REMARK  Name = 
REMARK  7 active torsions:
REMARK  status: ('A' for Active; 'I' for Inactive)
REMARK    1  A    between atoms: C_1  and  C_2
REMARK    2  A    between atoms: C_2  and  O_3
REMARK    3  A    between atoms: O_3  and  C_4
REMARK    4  A    between atoms: C_4  and  C_6
REMARK    5  A    between atoms: C_7  and  C_8
REMARK    6  A    between atoms: C_19  and  C_20
REMARK    7  A    between atoms: C_25  and  O_26
REMARK                            x       y       z     vdW  Elec       q    Type
REMARK                         _______ _______ _______ _____ _____    ______ ____
ROOT
ATOM      1  C   UNL     1      -2.024  11.075  19.180  0.00  0.00    +0.000 C 
ATOM      2  C   UNL     1      -2.778  10.773  18.092  0.00  0.00    +0.000 C 
ATOM      3  C   UNL     1      -3.191   9.350  17.846  0.00  0.00    +0.000 C 
ATOM      4  N   UNL     1      -3.642  11.678  17.539  0.00  0.00    +0.000 NA
ATOM      5  C   UNL     1      -4.344  12.211  18.462  0.00  0.00    +0.000 C 
ATOM      6  S   UNL     1      -6.022  11.705  18.296  0.00  0.00    +0.000 S 
ATOM      7  C   UNL     1      -6.078  11.562  20.114  0.00  0.00    +0.000 A 
ATOM      8  C   UNL     1      -7.378  11.337  20.584  0.00  0.00    +0.000 A 
ATOM      9  C   UNL     1      -7.916  12.319  21.379  0.00  0.00    +0.000 A 
ATOM     10  C   UNL     1      -7.089  13.389  21.757  0.00  0.00    +0.000 A 
ATOM     11  C   UNL     1      -5.684  13.441  21.434  0.00  0.00    +0.000 A 
ATOM     12  C   UNL     1      -5.088  12.464  20.623  0.00  0.00    +0.000 A 
ATOM     13  N   UNL     1      -3.956  12.660  19.761  0.00  0.00    +0.000 N 
ATOM     14  C   UNL     1      -2.325  12.374  19.969  0.00  0.00    +0.000 C 
ENDROOT
BRANCH  14  15
ATOM     15  C   UNL     1      -0.875  13.132  19.953  0.00  0.00    +0.000 A 
ATOM     16  C   UNL     1      -0.406  13.663  21.203  0.00  0.00    +0.000 A 
ATOM     17  C   UNL     1       0.469  14.753  21.320  0.00  0.00    +0.000 A 
ATOM     18  C   UNL     1       0.958  15.365  20.188  0.00  0.00    +0.000 A 
ATOM     19  C   UNL     1       0.585  14.837  18.945  0.00  0.00    +0.000 A 
ATOM     20  C   UNL     1      -0.324  13.745  18.820  0.00  0.00    +0.000 A 
BRANCH  20  21
ATOM     21  O   UNL     1      -0.716  13.376  17.565  0.00  0.00    +0.000 OA
ATOM     22  H   UNL     1      -0.194  13.883  16.905  0.00  0.00    +0.000 HD
ENDBRANCH  20  21
ENDBRANCH  14  15
BRANCH   1  23
ATOM     23  C   UNL     1      -0.817  10.225  19.324  0.00  0.00    +0.000 C 
ATOM     24  O   UNL     1      -0.528   9.549  20.295  0.00  0.00    +0.000 OA
BRANCH  23  25
ATOM     25  O   UNL     1      -0.074  10.339  18.176  0.00  0.00    +0.000 OA
BRANCH  25  27
ATOM     26  C   UNL     1       1.831   8.888  17.799  0.00  0.00    +0.000 C 
ATOM     27  C   UNL     1       1.359  10.260  18.235  0.00  0.00    +0.000 C 
ENDBRANCH  25  27
ENDBRANCH  23  25
ENDBRANCH   1  23
TORSDOF 5
ENDMDL
MODEL 7
REMARK VINA RESULT:      -5.7      3.258      6.641
REMARK  Name = 
REMARK  7 active torsions:
REMARK  status: ('A' for Active; 'I' for Inactive)
REMARK    1  A    between atoms: C_1  and  C_2
REMARK    2  A    between atoms: C_2  and  O_3
REMARK    3  A    between atoms: O_3  and  C_4
REMARK    4  A    between atoms: C_4  and  C_6
REMARK    5  A    between atoms: C_7  and  C_8
REMARK    6  A    between atoms: C_19  and  C_20
REMARK    7  A    between atoms: C_25  and  O_26
REMARK                            x       y       z     vdW  Elec       q    Type
REMARK                         _______ _______ _______ _____ _____    ______ ____
ROOT
ATOM      1  C   UNL     1      -1.958  11.118  19.119  0.00  0.00    +0.000 C 
ATOM      2  C   UNL     1      -2.708  10.885  18.011  0.00  0.00    +0.000 C 
ATOM      3  C   UNL     1      -3.071   9.475  17.643  0.00  0.00    +0.000 C 
ATOM      4  N   UNL     1      -3.608  11.803  17.542  0.00  0.00    +0.000 NA
ATOM      5  C   UNL     1      -4.323  12.227  18.512  0.00  0.00    +0.000 C 
ATOM      6  S   UNL     1      -5.982  11.677  18.308  0.00  0.00    +0.000 S 
ATOM      7  C   UNL     1      -6.020  11.373  20.107  0.00  0.00    +0.000 A 
ATOM      8  C   UNL     1      -7.308  11.061  20.559  0.00  0.00    +0.000 A 
ATOM      9  C   UNL     1      -7.876  11.949  21.440  0.00  0.00    +0.000 A 
ATOM     10  C   UNL     1      -7.085  13.011  21.907  0.00  0.00    +0.000 A 
ATOM     11  C   UNL     1      -5.685  13.143  21.585  0.00  0.00    +0.000 A 
ATOM     12  C   UNL     1      -5.061  12.263  20.689  0.00  0.00    +0.000 A 
ATOM     13  N   UNL     1      -3.942  12.575  19.844  0.00  0.00    +0.000 N 
ATOM     14  C   UNL     1      -2.300  12.332  20.020  0.00  0.00    +0.000 C 
ENDROOT
BRANCH  14  15
ATOM     15  C   UNL     1      -0.878  13.141  20.065  0.00  0.00    +0.000 A 
ATOM     16  C   UNL     1      -0.393  13.668  18.819  0.00  0.00    +0.000 A 
ATOM     17  C   UNL     1       0.961  13.892  18.530  0.00  0.00    +0.000 A 
ATOM     18  C   UNL     1       1.918  13.631  19.485  0.00  0.00    +0.000 A 
ATOM     19  C   UNL     1       1.487  13.183  20.740  0.00  0.00    +0.000 A 
ATOM     20  C   UNL     1       0.114  12.929  21.030  0.00  0.00    +0.000 A 
BRANCH  20  21
ATOM     21  O   UNL     1      -0.197  12.386  22.244  0.00  0.00    +0.000 OA
ATOM     22  H   UNL     1      -1.117  12.639  22.482  0.00  0.00    +0.000 HD
ENDBRANCH  20  21
ENDBRANCH  14  15
BRANCH   1  23
ATOM     23  C   UNL     1      -0.721  10.304  19.183  0.00  0.00    +0.000 C 
ATOM     24  O   UNL     1       0.097  10.170  18.291  0.00  0.00    +0.000 OA
BRANCH  23  25
ATOM     25  O   UNL     1      -0.660   9.716  20.421  0.00  0.00    +0.000 OA
BRANCH  25  27
ATOM     26  C   UNL     1       0.868   9.226  22.240  0.00  0.00    +0.000 C 
ATOM     27  C   UNL     1       0.494   8.947  20.798  0.00  0.00    +0.000 C 
ENDBRANCH  25  27
ENDBRANCH  23  25
ENDBRANCH   1  23
TORSDOF 5
ENDMDL
MODEL 8
REMARK VINA RESULT:      -5.7      3.274      6.677
REMARK  Name = 
REMARK  7 active torsions:
REMARK  status: ('A' for Active; 'I' for Inactive)
REMARK    1  A    between atoms: C_1  and  C_2
REMARK    2  A    between atoms: C_2  and  O_3
REMARK    3  A    between atoms: O_3  and  C_4
REMARK    4  A    between atoms: C_4  and  C_6
REMARK    5  A    between atoms: C_7  and  C_8
REMARK    6  A    between atoms: C_19  and  C_20
REMARK    7  A    between atoms: C_25  and  O_26
REMARK                            x       y       z     vdW  Elec       q    Type
REMARK                         _______ _______ _______ _____ _____    ______ ____
ROOT
ATOM      1  C   UNL     1      -1.942  11.118  19.224  0.00  0.00    +0.000 C 
ATOM      2  C   UNL     1      -2.672  10.898  18.100  0.00  0.00    +0.000 C 
ATOM      3  C   UNL     1      -3.039   9.493  17.716  0.00  0.00    +0.000 C 
ATOM      4  N   UNL     1      -3.554  11.826  17.619  0.00  0.00    +0.000 NA
ATOM      5  C   UNL     1      -4.285  12.251  18.576  0.00  0.00    +0.000 C 
ATOM      6  S   UNL     1      -5.944  11.715  18.336  0.00  0.00    +0.000 S 
ATOM      7  C   UNL     1      -6.021  11.401  20.132  0.00  0.00    +0.000 A 
ATOM      8  C   UNL     1      -7.321  11.097  20.557  0.00  0.00    +0.000 A 
ATOM      9  C   UNL     1      -7.899  11.984  21.431  0.00  0.00    +0.000 A 
ATOM     10  C   UNL     1      -7.109  13.036  21.921  0.00  0.00    +0.000 A 
ATOM     11  C   UNL     1      -5.702  13.159  21.627  0.00  0.00    +0.000 A 
ATOM     12  C   UNL     1      -5.067  12.279  20.739  0.00  0.00    +0.000 A 
ATOM     13  N   UNL     1      -3.929  12.587  19.918  0.00  0.00    +0.000 N 
ATOM     14  C   UNL     1      -2.293  12.329  20.125  0.00  0.00    +0.000 C 
ENDROOT
BRANCH  14  15
ATOM     15  C   UNL     1      -0.866  13.126  20.204  0.00  0.00    +0.000 A 
ATOM     16  C   UNL     1      -0.371  13.443  21.515  0.00  0.00    +0.000 A 
ATOM     17  C   UNL     1       0.477  14.524  21.799  0.00  0.00    +0.000 A 
ATOM     18  C   UNL     1       0.911  15.342  20.780  0.00  0.00    +0.000 A 
ATOM     19  C   UNL     1       0.512  15.030  19.474  0.00  0.00    +0.000 A 
ATOM     20  C   UNL     1      -0.370  13.948  19.183  0.00  0.00    +0.000 A 
BRANCH  20  21
ATOM     21  O   UNL     1      -0.792  13.792  17.894  0.00  0.00    +0.000 OA
ATOM     22  H   UNL     1      -1.151  14.648  17.569  0.00  0.00    +0.000 HD
ENDBRANCH  20  21
ENDBRANCH  14  15
BRANCH   1  23
ATOM     23  C   UNL     1      -0.713  10.293  19.308  0.00  0.00    +0.000 C 
ATOM     24  O   UNL     1       0.185  10.259  18.487  0.00  0.00    +0.000 OA
BRANCH  23  25
ATOM     25  O   UNL     1      -0.766   9.564  20.469  0.00  0.00    +0.000 OA
BRANCH  25  27
ATOM     26  C   UNL     1      -0.446   9.934  22.844  0.00  0.00    +0.000 C 
ATOM     27  C   UNL     1       0.221   9.767  21.493  0.00  0.00    +0.000 C 
ENDBRANCH  25  27
ENDBRANCH  23  25
ENDBRANCH   1  23
TORSDOF 5
ENDMDL
MODEL 9
REMARK VINA RESULT:      -5.7      0.908      1.529
REMARK  Name = 
REMARK  7 active torsions:
REMARK  status: ('A' for Active; 'I' for Inactive)
REMARK    1  A    between atoms: C_1  and  C_2
REMARK    2  A    between atoms: C_2  and  O_3
REMARK    3  A    between atoms: O_3  and  C_4
REMARK    4  A    between atoms: C_4  and  C_6
REMARK    5  A    between atoms: C_7  and  C_8
REMARK    6  A    between atoms: C_19  and  C_20
REMARK    7  A    between atoms: C_25  and  O_26
REMARK                            x       y       z     vdW  Elec       q    Type
REMARK                         _______ _______ _______ _____ _____    ______ ____
ROOT
ATOM      1  C   UNL     1      -0.569  13.109  21.170  0.00  0.00    +0.000 C 
ATOM      2  C   UNL     1      -0.918  14.371  21.532  0.00  0.00    +0.000 C 
ATOM      3  C   UNL     1      -0.544  14.883  22.894  0.00  0.00    +0.000 C 
ATOM      4  N   UNL     1      -1.062  15.373  20.611  0.00  0.00    +0.000 NA
ATOM      5  C   UNL     1      -0.056  15.372  19.825  0.00  0.00    +0.000 C 
ATOM      6  S   UNL     1       0.898  16.829  20.083  0.00  0.00    +0.000 S 
ATOM      7  C   UNL     1       2.388  15.792  19.903  0.00  0.00    +0.000 A 
ATOM      8  C   UNL     1       3.558  16.560  19.838  0.00  0.00    +0.000 A 
ATOM      9  C   UNL     1       4.265  16.494  18.663  0.00  0.00    +0.000 A 
ATOM     10  C   UNL     1       3.838  15.578  17.687  0.00  0.00    +0.000 A 
ATOM     11  C   UNL     1       2.763  14.644  17.911  0.00  0.00    +0.000 A 
ATOM     12  C   UNL     1       2.009  14.673  19.092  0.00  0.00    +0.000 A 
ATOM     13  N   UNL     1       0.635  14.275  19.226  0.00  0.00    +0.000 N 
ATOM     14  C   UNL     1      -0.076  12.849  19.724  0.00  0.00    +0.000 C 
ENDROOT
BRANCH  14  15
ATOM     15  C   UNL     1      -1.100  11.678  19.215  0.00  0.00    +0.000 A 
ATOM     16  C   UNL     1      -0.511  10.534  18.576  0.00  0.00    +0.000 A 
ATOM     17  C   UNL     1      -1.168   9.731  17.633  0.00  0.00    +0.000 A 
ATOM     18  C   UNL     1      -2.474  10.003  17.291  0.00  0.00    +0.000 A 
ATOM     19  C   UNL     1      -3.114  11.065  17.941  0.00  0.00    +0.000 A 
ATOM     20  C   UNL     1      -2.442  11.901  18.882  0.00  0.00    +0.000 A 
BRANCH  20  21
ATOM     21  O   UNL     1      -3.115  12.981  19.378  0.00  0.00    +0.000 OA
ATOM     22  H   UNL     1      -2.726  13.229  20.246  0.00  0.00    +0.000 HD
ENDBRANCH  20  21
ENDBRANCH  14  15
BRANCH   1  23
ATOM     23  C   UNL     1      -0.956  12.076  22.160  0.00  0.00    +0.000 C 
ATOM     24  O   UNL     1      -0.197  11.332  22.754  0.00  0.00    +0.000 OA
BRANCH  23  25
ATOM     25  O   UNL     1      -2.322  12.095  22.286  0.00  0.00    +0.000 OA
BRANCH  25  27
ATOM     26  C   UNL     1      -4.202  12.869  23.609  0.00  0.00    +0.000 C 
ATOM     27  C   UNL     1      -2.926  12.051  23.589  0.00  0.00    +0.000 C 
ENDBRANCH  25  27
ENDBRANCH  23  25
ENDBRANCH   1  23
TORSDOF 5
ENDMDL
