MODEL 1
REMARK VINA RESULT:      -8.9      0.000      0.000
REMARK  Name = 
REMARK  7 active torsions:
REMARK  status: ('A' for Active; 'I' for Inactive)
REMARK    1  A    between atoms: C_2  and  C_9
REMARK    2  A    between atoms: N_3  and  C_4
REMARK    3  A    between atoms: C_4  and  C_5
REMARK    4  A    between atoms: C_5  and  C_6
REMARK    5  A    between atoms: C_6  and  C_7
REMARK    6  A    between atoms: C_7  and  O_8
REMARK    7  A    between atoms: C_12  and  C_13
REMARK                            x       y       z     vdW  Elec       q    Type
REMARK                         _______ _______ _______ _____ _____    ______ ____
ROOT
ATOM      1  C   UNL     1       3.205   7.512  17.910  0.00  0.00    +0.000 A 
ATOM      2  C   UNL     1       3.087   8.762  17.287  0.00  0.00    +0.000 A 
ATOM      3  C   UNL     1       2.184   9.714  17.748  0.00  0.00    +0.000 A 
ATOM      4  C   UNL     1       1.391   9.504  18.889  0.00  0.00    +0.000 A 
ATOM      5  C   UNL     1       0.422  10.455  19.337  0.00  0.00    +0.000 A 
ATOM      6  C   UNL     1      -0.066  11.513  18.532  0.00  0.00    +0.000 A 
ATOM      7  C   UNL     1      -0.993  12.439  19.005  0.00  0.00    +0.000 A 
ATOM      8  C   UNL     1      -1.406  12.384  20.329  0.00  0.00    +0.000 A 
ATOM      9  C   UNL     1      -0.948  11.365  21.165  0.00  0.00    +0.000 A 
ATOM     10  C   UNL     1      -1.327  11.342  22.513  0.00  0.00    +0.000 A 
ATOM     11  C   UNL     1      -0.904  10.317  23.342  0.00  0.00    +0.000 A 
ATOM     12  C   UNL     1      -0.166   9.262  22.809  0.00  0.00    +0.000 A 
ATOM     13  C   UNL     1       0.227   9.229  21.449  0.00  0.00    +0.000 A 
ATOM     14  C   UNL     1       0.922   8.134  20.856  0.00  0.00    +0.000 A 
ATOM     15  C   UNL     1       0.953   6.866  21.465  0.00  0.00    +0.000 A 
ATOM     16  C   UNL     1       1.666   5.812  20.914  0.00  0.00    +0.000 A 
ATOM     17  C   UNL     1       2.430   6.029  19.775  0.00  0.00    +0.000 A 
ATOM     18  C   UNL     1       2.423   7.260  19.082  0.00  0.00    +0.000 A 
ATOM     19  C   UNL     1       1.584   8.299  19.603  0.00  0.00    +0.000 A 
ATOM     20  C   UNL     1      -0.094  10.347  20.649  0.00  0.00    +0.000 A 
ENDROOT
BRANCH   1  24
ATOM     21  C   UNL     1       5.670   5.308  15.745  0.00  0.00    +0.000 A 
ATOM     22  C   UNL     1       5.399   4.590  16.894  0.00  0.00    +0.000 A 
ATOM     23  C   UNL     1       4.478   5.255  17.752  0.00  0.00    +0.000 A 
ATOM     24  C   UNL     1       4.127   6.514  17.302  0.00  0.00    +0.000 A 
ATOM     25  S   UNL     1       4.917   6.841  15.797  0.00  0.00    +0.000 S 
BRANCH  21  27
ATOM     26  O   UNL     1       7.644   5.207  14.466  0.00  0.00    +0.000 OA
ATOM     27  C   UNL     1       6.481   4.838  14.631  0.00  0.00    +0.000 C 
ATOM     28  N   UNL     1       5.889   3.941  13.762  0.00  0.00    +0.000 N 
ATOM     29  H   UNL     1       4.939   3.654  13.944  0.00  0.00    +0.000 HD
BRANCH  28  30
ATOM     30  C   UNL     1       6.599   3.401  12.620  0.00  0.00    +0.000 C 
BRANCH  30  31
ATOM     31  C   UNL     1       5.648   2.826  11.571  0.00  0.00    +0.000 C 
BRANCH  31  32
ATOM     32  C   UNL     1       4.263   3.462  11.683  0.00  0.00    +0.000 C 
BRANCH  32  33
ATOM     33  C   UNL     1       3.387   3.148  10.479  0.00  0.00    +0.000 C 
BRANCH  33  34
ATOM     34  O   UNL     1       3.005   4.356   9.834  0.00  0.00    +0.000 OA
ATOM     35  H   UNL     1       3.817   4.851   9.628  0.00  0.00    +0.000 HD
ENDBRANCH  33  34
ENDBRANCH  32  33
ENDBRANCH  31  32
ENDBRANCH  30  31
ENDBRANCH  28  30
ENDBRANCH  21  27
ENDBRANCH   1  24
TORSDOF 7
ENDMDL
MODEL 2
REMARK VINA RESULT:      -8.8      3.323      5.751
REMARK  Name = 
REMARK  7 active torsions:
REMARK  status: ('A' for Active; 'I' for Inactive)
REMARK    1  A    between atoms: C_2  and  C_9
REMARK    2  A    between atoms: N_3  and  C_4
REMARK    3  A    between atoms: C_4  and  C_5
REMARK    4  A    between atoms: C_5  and  C_6
REMARK    5  A    between atoms: C_6  and  C_7
REMARK    6  A    between atoms: C_7  and  O_8
REMARK    7  A    between atoms: C_12  and  C_13
REMARK                            x       y       z     vdW  Elec       q    Type
REMARK                         _______ _______ _______ _____ _____    ______ ____
ROOT
ATOM      1  C   UNL     1       0.380  10.037  19.982  0.00  0.00    +0.000 A 
ATOM      2  C   UNL     1       0.694  10.336  21.314  0.00  0.00    +0.000 A 
ATOM      3  C   UNL     1      -0.048  11.263  22.039  0.00  0.00    +0.000 A 
ATOM      4  C   UNL     1      -1.180  11.901  21.502  0.00  0.00    +0.000 A 
ATOM      5  C   UNL     1      -1.915  12.893  22.220  0.00  0.00    +0.000 A 
ATOM      6  C   UNL     1      -1.416  13.563  23.365  0.00  0.00    +0.000 A 
ATOM      7  C   UNL     1      -2.166  14.510  24.058  0.00  0.00    +0.000 A 
ATOM      8  C   UNL     1      -3.475  14.764  23.675  0.00  0.00    +0.000 A 
ATOM      9  C   UNL     1      -4.017  14.124  22.559  0.00  0.00    +0.000 A 
ATOM     10  C   UNL     1      -5.354  14.345  22.207  0.00  0.00    +0.000 A 
ATOM     11  C   UNL     1      -5.891  13.741  21.082  0.00  0.00    +0.000 A 
ATOM     12  C   UNL     1      -5.070  12.977  20.255  0.00  0.00    +0.000 A 
ATOM     13  C   UNL     1      -3.707  12.739  20.558  0.00  0.00    +0.000 A 
ATOM     14  C   UNL     1      -2.824  12.020  19.700  0.00  0.00    +0.000 A 
ATOM     15  C   UNL     1      -3.128  11.806  18.342  0.00  0.00    +0.000 A 
ATOM     16  C   UNL     1      -2.293  11.069  17.518  0.00  0.00    +0.000 A 
ATOM     17  C   UNL     1      -1.167  10.460  18.057  0.00  0.00    +0.000 A 
ATOM     18  C   UNL     1      -0.771  10.656  19.399  0.00  0.00    +0.000 A 
ATOM     19  C   UNL     1      -1.586  11.521  20.202  0.00  0.00    +0.000 A 
ATOM     20  C   UNL     1      -3.210  13.246  21.777  0.00  0.00    +0.000 A 
ENDROOT
BRANCH   1  24
ATOM     21  C   UNL     1       2.836   7.238  18.657  0.00  0.00    +0.000 A 
ATOM     22  C   UNL     1       2.592   8.089  17.596  0.00  0.00    +0.000 A 
ATOM     23  C   UNL     1       1.750   9.180  17.950  0.00  0.00    +0.000 A 
ATOM     24  C   UNL     1       1.278   9.104  19.247  0.00  0.00    +0.000 A 
ATOM     25  S   UNL     1       1.920   7.697  20.024  0.00  0.00    +0.000 S 
BRANCH  21  27
ATOM     26  O   UNL     1       4.159   5.571  19.665  0.00  0.00    +0.000 OA
ATOM     27  C   UNL     1       3.748   6.103  18.634  0.00  0.00    +0.000 C 
ATOM     28  N   UNL     1       4.128   5.632  17.391  0.00  0.00    +0.000 N 
ATOM     29  H   UNL     1       3.754   6.088  16.571  0.00  0.00    +0.000 HD
BRANCH  28  30
ATOM     30  C   UNL     1       5.028   4.506  17.243  0.00  0.00    +0.000 C 
BRANCH  30  31
ATOM     31  C   UNL     1       6.395   4.930  16.704  0.00  0.00    +0.000 C 
BRANCH  31  32
ATOM     32  C   UNL     1       7.502   4.590  17.700  0.00  0.00    +0.000 C 
BRANCH  32  33
ATOM     33  C   UNL     1       7.714   5.696  18.724  0.00  0.00    +0.000 C 
BRANCH  33  34
ATOM     34  O   UNL     1       6.987   5.398  19.909  0.00  0.00    +0.000 OA
ATOM     35  H   UNL     1       6.255   4.806  19.666  0.00  0.00    +0.000 HD
ENDBRANCH  33  34
ENDBRANCH  32  33
ENDBRANCH  31  32
ENDBRANCH  30  31
ENDBRANCH  28  30
ENDBRANCH  21  27
ENDBRANCH   1  24
TORSDOF 7
ENDMDL
MODEL 3
REMARK VINA RESULT:      -8.7      3.439      5.477
REMARK  Name = 
REMARK  7 active torsions:
REMARK  status: ('A' for Active; 'I' for Inactive)
REMARK    1  A    between atoms: C_2  and  C_9
REMARK    2  A    between atoms: N_3  and  C_4
REMARK    3  A    between atoms: C_4  and  C_5
REMARK    4  A    between atoms: C_5  and  C_6
REMARK    5  A    between atoms: C_6  and  C_7
REMARK    6  A    between atoms: C_7  and  O_8
REMARK    7  A    between atoms: C_12  and  C_13
REMARK                            x       y       z     vdW  Elec       q    Type
REMARK                         _______ _______ _______ _____ _____    ______ ____
ROOT
ATOM      1  C   UNL     1       0.584   9.792  19.882  0.00  0.00    +0.000 A 
ATOM      2  C   UNL     1       0.862  10.124  21.215  0.00  0.00    +0.000 A 
ATOM      3  C   UNL     1       0.113  11.083  21.890  0.00  0.00    +0.000 A 
ATOM      4  C   UNL     1      -0.991  11.723  21.300  0.00  0.00    +0.000 A 
ATOM      5  C   UNL     1      -1.731  12.748  21.966  0.00  0.00    +0.000 A 
ATOM      6  C   UNL     1      -1.256  13.441  23.107  0.00  0.00    +0.000 A 
ATOM      7  C   UNL     1      -2.011  14.419  23.750  0.00  0.00    +0.000 A 
ATOM      8  C   UNL     1      -3.304  14.683  23.319  0.00  0.00    +0.000 A 
ATOM      9  C   UNL     1      -3.822  14.021  22.205  0.00  0.00    +0.000 A 
ATOM     10  C   UNL     1      -5.143  14.253  21.805  0.00  0.00    +0.000 A 
ATOM     11  C   UNL     1      -5.655  13.625  20.681  0.00  0.00    +0.000 A 
ATOM     12  C   UNL     1      -4.822  12.825  19.901  0.00  0.00    +0.000 A 
ATOM     13  C   UNL     1      -3.473  12.574  20.254  0.00  0.00    +0.000 A 
ATOM     14  C   UNL     1      -2.576  11.817  19.444  0.00  0.00    +0.000 A 
ATOM     15  C   UNL     1      -2.842  11.569  18.085  0.00  0.00    +0.000 A 
ATOM     16  C   UNL     1      -1.994  10.796  17.308  0.00  0.00    +0.000 A 
ATOM     17  C   UNL     1      -0.896  10.185  17.898  0.00  0.00    +0.000 A 
ATOM     18  C   UNL     1      -0.538  10.412  19.246  0.00  0.00    +0.000 A 
ATOM     19  C   UNL     1      -1.363  11.313  19.999  0.00  0.00    +0.000 A 
ATOM     20  C   UNL     1      -3.006  13.108  21.473  0.00  0.00    +0.000 A 
ENDROOT
BRANCH   1  24
ATOM     21  C   UNL     1       2.956   6.865  18.687  0.00  0.00    +0.000 A 
ATOM     22  C   UNL     1       2.908   7.785  17.657  0.00  0.00    +0.000 A 
ATOM     23  C   UNL     1       2.117   8.925  17.975  0.00  0.00    +0.000 A 
ATOM     24  C   UNL     1       1.488   8.824  19.203  0.00  0.00    +0.000 A 
ATOM     25  S   UNL     1       1.920   7.332  19.964  0.00  0.00    +0.000 S 
BRANCH  21  27
ATOM     26  O   UNL     1       4.651   5.475  19.545  0.00  0.00    +0.000 OA
ATOM     27  C   UNL     1       3.773   5.660  18.702  0.00  0.00    +0.000 C 
ATOM     28  N   UNL     1       3.510   4.715  17.729  0.00  0.00    +0.000 N 
ATOM     29  H   UNL     1       2.769   4.901  17.068  0.00  0.00    +0.000 HD
BRANCH  28  30
ATOM     30  C   UNL     1       4.255   3.474  17.647  0.00  0.00    +0.000 C 
BRANCH  30  31
ATOM     31  C   UNL     1       3.344   2.250  17.725  0.00  0.00    +0.000 C 
BRANCH  31  32
ATOM     32  C   UNL     1       2.678   2.152  19.097  0.00  0.00    +0.000 C 
BRANCH  32  33
ATOM     33  C   UNL     1       1.178   2.397  19.027  0.00  0.00    +0.000 C 
BRANCH  33  34
ATOM     34  O   UNL     1       0.885   3.277  17.950  0.00  0.00    +0.000 OA
ATOM     35  H   UNL     1       1.580   3.958  17.926  0.00  0.00    +0.000 HD
ENDBRANCH  33  34
ENDBRANCH  32  33
ENDBRANCH  31  32
ENDBRANCH  30  31
ENDBRANCH  28  30
ENDBRANCH  21  27
ENDBRANCH   1  24
TORSDOF 7
ENDMDL
MODEL 4
REMARK VINA RESULT:      -8.7      3.442      5.604
REMARK  Name = 
REMARK  7 active torsions:
REMARK  status: ('A' for Active; 'I' for Inactive)
REMARK    1  A    between atoms: C_2  and  C_9
REMARK    2  A    between atoms: N_3  and  C_4
REMARK    3  A    between atoms: C_4  and  C_5
REMARK    4  A    between atoms: C_5  and  C_6
REMARK    5  A    between atoms: C_6  and  C_7
REMARK    6  A    between atoms: C_7  and  O_8
REMARK    7  A    between atoms: C_12  and  C_13
REMARK                            x       y       z     vdW  Elec       q    Type
REMARK                         _______ _______ _______ _____ _____    ______ ____
ROOT
ATOM      1  C   UNL     1       0.509   9.872  19.562  0.00  0.00    +0.000 A 
ATOM      2  C   UNL     1       0.754  10.443  20.818  0.00  0.00    +0.000 A 
ATOM      3  C   UNL     1      -0.077  11.433  21.333  0.00  0.00    +0.000 A 
ATOM      4  C   UNL     1      -1.231  11.869  20.659  0.00  0.00    +0.000 A 
ATOM      5  C   UNL     1      -2.059  12.922  21.155  0.00  0.00    +0.000 A 
ATOM      6  C   UNL     1      -1.649  13.834  22.159  0.00  0.00    +0.000 A 
ATOM      7  C   UNL     1      -2.487  14.837  22.640  0.00  0.00    +0.000 A 
ATOM      8  C   UNL     1      -3.797  14.913  22.187  0.00  0.00    +0.000 A 
ATOM      9  C   UNL     1      -4.253  14.033  21.205  0.00  0.00    +0.000 A 
ATOM     10  C   UNL     1      -5.588  14.080  20.788  0.00  0.00    +0.000 A 
ATOM     11  C   UNL     1      -6.041  13.233  19.791  0.00  0.00    +0.000 A 
ATOM     12  C   UNL     1      -5.140  12.389  19.144  0.00  0.00    +0.000 A 
ATOM     13  C   UNL     1      -3.776  12.317  19.516  0.00  0.00    +0.000 A 
ATOM     14  C   UNL     1      -2.814  11.516  18.833  0.00  0.00    +0.000 A 
ATOM     15  C   UNL     1      -3.054  11.023  17.537  0.00  0.00    +0.000 A 
ATOM     16  C   UNL     1      -2.141  10.207  16.888  0.00  0.00    +0.000 A 
ATOM     17  C   UNL     1      -0.995   9.800  17.559  0.00  0.00    +0.000 A 
ATOM     18  C   UNL     1      -0.661  10.279  18.846  0.00  0.00    +0.000 A 
ATOM     19  C   UNL     1      -1.563  11.217  19.449  0.00  0.00    +0.000 A 
ATOM     20  C   UNL     1      -3.359  13.085  20.625  0.00  0.00    +0.000 A 
ENDROOT
BRANCH   1  24
ATOM     21  C   UNL     1       3.047   6.938  18.807  0.00  0.00    +0.000 A 
ATOM     22  C   UNL     1       3.081   7.785  17.715  0.00  0.00    +0.000 A 
ATOM     23  C   UNL     1       2.238   8.920  17.876  0.00  0.00    +0.000 A 
ATOM     24  C   UNL     1       1.495   8.886  19.041  0.00  0.00    +0.000 A 
ATOM     25  S   UNL     1       1.883   7.461  19.943  0.00  0.00    +0.000 S 
BRANCH  21  27
ATOM     26  O   UNL     1       3.744   4.993  19.937  0.00  0.00    +0.000 OA
ATOM     27  C   UNL     1       3.884   5.760  18.984  0.00  0.00    +0.000 C 
ATOM     28  N   UNL     1       4.847   5.526  18.020  0.00  0.00    +0.000 N 
ATOM     29  H   UNL     1       4.917   6.172  17.247  0.00  0.00    +0.000 HD
BRANCH  28  30
ATOM     30  C   UNL     1       5.736   4.383  18.089  0.00  0.00    +0.000 C 
BRANCH  30  31
ATOM     31  C   UNL     1       7.198   4.780  17.887  0.00  0.00    +0.000 C 
BRANCH  31  32
ATOM     32  C   UNL     1       7.585   5.928  18.817  0.00  0.00    +0.000 C 
BRANCH  32  33
ATOM     33  C   UNL     1       7.899   7.206  18.052  0.00  0.00    +0.000 C 
BRANCH  33  34
ATOM     34  O   UNL     1       7.612   7.023  16.672  0.00  0.00    +0.000 OA
ATOM     35  H   UNL     1       7.344   6.096  16.546  0.00  0.00    +0.000 HD
ENDBRANCH  33  34
ENDBRANCH  32  33
ENDBRANCH  31  32
ENDBRANCH  30  31
ENDBRANCH  28  30
ENDBRANCH  21  27
ENDBRANCH   1  24
TORSDOF 7
ENDMDL
MODEL 5
REMARK VINA RESULT:      -8.5      2.816      5.234
REMARK  Name = 
REMARK  7 active torsions:
REMARK  status: ('A' for Active; 'I' for Inactive)
REMARK    1  A    between atoms: C_2  and  C_9
REMARK    2  A    between atoms: N_3  and  C_4
REMARK    3  A    between atoms: C_4  and  C_5
REMARK    4  A    between atoms: C_5  and  C_6
REMARK    5  A    between atoms: C_6  and  C_7
REMARK    6  A    between atoms: C_7  and  O_8
REMARK    7  A    between atoms: C_12  and  C_13
REMARK                            x       y       z     vdW  Elec       q    Type
REMARK                         _______ _______ _______ _____ _____    ______ ____
ROOT
ATOM      1  C   UNL     1       0.468   9.953  19.647  0.00  0.00    +0.000 A 
ATOM      2  C   UNL     1       0.733  10.502  20.909  0.00  0.00    +0.000 A 
ATOM      3  C   UNL     1      -0.071  11.505  21.441  0.00  0.00    +0.000 A 
ATOM      4  C   UNL     1      -1.218  11.977  20.779  0.00  0.00    +0.000 A 
ATOM      5  C   UNL     1      -2.018  13.044  21.292  0.00  0.00    +0.000 A 
ATOM      6  C   UNL     1      -1.580  13.932  22.305  0.00  0.00    +0.000 A 
ATOM      7  C   UNL     1      -2.392  14.949  22.803  0.00  0.00    +0.000 A 
ATOM      8  C   UNL     1      -3.702  15.063  22.358  0.00  0.00    +0.000 A 
ATOM      9  C   UNL     1      -4.184  14.206  21.367  0.00  0.00    +0.000 A 
ATOM     10  C   UNL     1      -5.519  14.291  20.958  0.00  0.00    +0.000 A 
ATOM     11  C   UNL     1      -5.998  13.468  19.952  0.00  0.00    +0.000 A 
ATOM     12  C   UNL     1      -5.120  12.610  19.291  0.00  0.00    +0.000 A 
ATOM     13  C   UNL     1      -3.756  12.501  19.655  0.00  0.00    +0.000 A 
ATOM     14  C   UNL     1      -2.818  11.685  18.957  0.00  0.00    +0.000 A 
ATOM     15  C   UNL     1      -3.076  11.216  17.655  0.00  0.00    +0.000 A 
ATOM     16  C   UNL     1      -2.186  10.386  16.992  0.00  0.00    +0.000 A 
ATOM     17  C   UNL     1      -1.047   9.943  17.651  0.00  0.00    +0.000 A 
ATOM     18  C   UNL     1      -0.696  10.397  18.942  0.00  0.00    +0.000 A 
ATOM     19  C   UNL     1      -1.571  11.349  19.562  0.00  0.00    +0.000 A 
ATOM     20  C   UNL     1      -3.316  13.244  20.771  0.00  0.00    +0.000 A 
ENDROOT
BRANCH   1  24
ATOM     21  C   UNL     1       2.958   6.988  18.855  0.00  0.00    +0.000 A 
ATOM     22  C   UNL     1       2.954   7.812  17.745  0.00  0.00    +0.000 A 
ATOM     23  C   UNL     1       2.125   8.956  17.915  0.00  0.00    +0.000 A 
ATOM     24  C   UNL     1       1.428   8.950  19.109  0.00  0.00    +0.000 A 
ATOM     25  S   UNL     1       1.842   7.541  20.024  0.00  0.00    +0.000 S 
BRANCH  21  27
ATOM     26  O   UNL     1       3.573   4.967  19.894  0.00  0.00    +0.000 OA
ATOM     27  C   UNL     1       3.795   5.808  19.024  0.00  0.00    +0.000 C 
ATOM     28  N   UNL     1       4.854   5.663  18.148  0.00  0.00    +0.000 N 
ATOM     29  H   UNL     1       4.990   6.369  17.439  0.00  0.00    +0.000 HD
BRANCH  28  30
ATOM     30  C   UNL     1       5.753   4.527  18.217  0.00  0.00    +0.000 C 
BRANCH  30  31
ATOM     31  C   UNL     1       6.814   4.567  17.118  0.00  0.00    +0.000 C 
BRANCH  31  32
ATOM     32  C   UNL     1       6.257   4.022  15.803  0.00  0.00    +0.000 C 
BRANCH  32  33
ATOM     33  C   UNL     1       6.215   5.083  14.713  0.00  0.00    +0.000 C 
BRANCH  33  34
ATOM     34  O   UNL     1       5.605   6.265  15.216  0.00  0.00    +0.000 OA
ATOM     35  H   UNL     1       4.678   6.055  15.422  0.00  0.00    +0.000 HD
ENDBRANCH  33  34
ENDBRANCH  32  33
ENDBRANCH  31  32
ENDBRANCH  30  31
ENDBRANCH  28  30
ENDBRANCH  21  27
ENDBRANCH   1  24
TORSDOF 7
ENDMDL
MODEL 6
REMARK VINA RESULT:      -8.5      1.199      1.304
REMARK  Name = 
REMARK  7 active torsions:
REMARK  status: ('A' for Active; 'I' for Inactive)
REMARK    1  A    between atoms: C_2  and  C_9
REMARK    2  A    between atoms: N_3  and  C_4
REMARK    3  A    between atoms: C_4  and  C_5
REMARK    4  A    between atoms: C_5  and  C_6
REMARK    5  A    between atoms: C_6  and  C_7
REMARK    6  A    between atoms: C_7  and  O_8
REMARK    7  A    between atoms: C_12  and  C_13
REMARK                            x       y       z     vdW  Elec       q    Type
REMARK                         _______ _______ _______ _____ _____    ______ ____
ROOT
ATOM      1  C   UNL     1       3.067   7.554  17.931  0.00  0.00    +0.000 A 
ATOM      2  C   UNL     1       2.957   8.795  17.289  0.00  0.00    +0.000 A 
ATOM      3  C   UNL     1       2.074   9.767  17.747  0.00  0.00    +0.000 A 
ATOM      4  C   UNL     1       1.294   9.587  18.903  0.00  0.00    +0.000 A 
ATOM      5  C   UNL     1       0.345  10.558  19.348  0.00  0.00    +0.000 A 
ATOM      6  C   UNL     1      -0.141  11.610  18.533  0.00  0.00    +0.000 A 
ATOM      7  C   UNL     1      -1.048  12.556  19.003  0.00  0.00    +0.000 A 
ATOM      8  C   UNL     1      -1.443  12.528  20.334  0.00  0.00    +0.000 A 
ATOM      9  C   UNL     1      -0.986  11.517  21.180  0.00  0.00    +0.000 A 
ATOM     10  C   UNL     1      -1.346  11.521  22.533  0.00  0.00    +0.000 A 
ATOM     11  C   UNL     1      -0.925  10.504  23.373  0.00  0.00    +0.000 A 
ATOM     12  C   UNL     1      -0.209   9.430  22.847  0.00  0.00    +0.000 A 
ATOM     13  C   UNL     1       0.163   9.370  21.482  0.00  0.00    +0.000 A 
ATOM     14  C   UNL     1       0.835   8.256  20.898  0.00  0.00    +0.000 A 
ATOM     15  C   UNL     1       0.858   6.997  21.528  0.00  0.00    +0.000 A 
ATOM     16  C   UNL     1       1.548   5.925  20.984  0.00  0.00    +0.000 A 
ATOM     17  C   UNL     1       2.299   6.112  19.831  0.00  0.00    +0.000 A 
ATOM     18  C   UNL     1       2.299   7.332  19.118  0.00  0.00    +0.000 A 
ATOM     19  C   UNL     1       1.481   8.391  19.634  0.00  0.00    +0.000 A 
ATOM     20  C   UNL     1      -0.153  10.478  20.669  0.00  0.00    +0.000 A 
ENDROOT
BRANCH   1  24
ATOM     21  C   UNL     1       5.619   5.356  15.863  0.00  0.00    +0.000 A 
ATOM     22  C   UNL     1       5.070   4.530  16.825  0.00  0.00    +0.000 A 
ATOM     23  C   UNL     1       4.090   5.188  17.620  0.00  0.00    +0.000 A 
ATOM     24  C   UNL     1       3.967   6.534  17.326  0.00  0.00    +0.000 A 
ATOM     25  S   UNL     1       5.042   6.955  16.038  0.00  0.00    +0.000 S 
BRANCH  21  27
ATOM     26  O   UNL     1       7.737   5.293  14.836  0.00  0.00    +0.000 OA
ATOM     27  C   UNL     1       6.558   4.938  14.831  0.00  0.00    +0.000 C 
ATOM     28  N   UNL     1       6.069   4.107  13.841  0.00  0.00    +0.000 N 
ATOM     29  H   UNL     1       5.100   3.828  13.885  0.00  0.00    +0.000 HD
BRANCH  28  30
ATOM     30  C   UNL     1       6.911   3.624  12.765  0.00  0.00    +0.000 C 
BRANCH  30  31
ATOM     31  C   UNL     1       6.115   3.362  11.486  0.00  0.00    +0.000 C 
BRANCH  31  32
ATOM     32  C   UNL     1       5.533   1.950  11.486  0.00  0.00    +0.000 C 
BRANCH  32  33
ATOM     33  C   UNL     1       6.548   0.910  11.035  0.00  0.00    +0.000 C 
BRANCH  33  34
ATOM     34  O   UNL     1       6.150  -0.378  11.487  0.00  0.00    +0.000 OA
ATOM     35  H   UNL     1       6.237  -0.994  10.739  0.00  0.00    +0.000 HD
ENDBRANCH  33  34
ENDBRANCH  32  33
ENDBRANCH  31  32
ENDBRANCH  30  31
ENDBRANCH  28  30
ENDBRANCH  21  27
ENDBRANCH   1  24
TORSDOF 7
ENDMDL
MODEL 7
REMARK VINA RESULT:      -8.4      4.697      9.414
REMARK  Name = 
REMARK  7 active torsions:
REMARK  status: ('A' for Active; 'I' for Inactive)
REMARK    1  A    between atoms: C_2  and  C_9
REMARK    2  A    between atoms: N_3  and  C_4
REMARK    3  A    between atoms: C_4  and  C_5
REMARK    4  A    between atoms: C_5  and  C_6
REMARK    5  A    between atoms: C_6  and  C_7
REMARK    6  A    between atoms: C_7  and  O_8
REMARK    7  A    between atoms: C_12  and  C_13
REMARK                            x       y       z     vdW  Elec       q    Type
REMARK                         _______ _______ _______ _____ _____    ______ ____
ROOT
ATOM      1  C   UNL     1       1.486   9.321  19.084  0.00  0.00    +0.000 A 
ATOM      2  C   UNL     1       2.111   9.589  17.858  0.00  0.00    +0.000 A 
ATOM      3  C   UNL     1       2.914   8.639  17.236  0.00  0.00    +0.000 A 
ATOM      4  C   UNL     1       3.095   7.349  17.764  0.00  0.00    +0.000 A 
ATOM      5  C   UNL     1       3.961   6.386  17.160  0.00  0.00    +0.000 A 
ATOM      6  C   UNL     1       4.950   6.715  16.200  0.00  0.00    +0.000 A 
ATOM      7  C   UNL     1       5.764   5.751  15.611  0.00  0.00    +0.000 A 
ATOM      8  C   UNL     1       5.564   4.409  15.905  0.00  0.00    +0.000 A 
ATOM      9  C   UNL     1       4.597   4.032  16.838  0.00  0.00    +0.000 A 
ATOM     10  C   UNL     1       4.363   2.676  17.094  0.00  0.00    +0.000 A 
ATOM     11  C   UNL     1       3.429   2.293  18.042  0.00  0.00    +0.000 A 
ATOM     12  C   UNL     1       2.781   3.266  18.801  0.00  0.00    +0.000 A 
ATOM     13  C   UNL     1       2.996   4.650  18.593  0.00  0.00    +0.000 A 
ATOM     14  C   UNL     1       2.402   5.668  19.395  0.00  0.00    +0.000 A 
ATOM     15  C   UNL     1       1.856   5.383  20.660  0.00  0.00    +0.000 A 
ATOM     16  C   UNL     1       1.238   6.363  21.422  0.00  0.00    +0.000 A 
ATOM     17  C   UNL     1       1.083   7.639  20.896  0.00  0.00    +0.000 A 
ATOM     18  C   UNL     1       1.635   8.016  19.652  0.00  0.00    +0.000 A 
ATOM     19  C   UNL     1       2.375   7.018  18.935  0.00  0.00    +0.000 A 
ATOM     20  C   UNL     1       3.846   5.027  17.531  0.00  0.00    +0.000 A 
ENDROOT
BRANCH   1  24
ATOM     21  C   UNL     1      -1.017  12.137  20.277  0.00  0.00    +0.000 A 
ATOM     22  C   UNL     1       0.073  12.188  21.123  0.00  0.00    +0.000 A 
ATOM     23  C   UNL     1       1.083  11.248  20.776  0.00  0.00    +0.000 A 
ATOM     24  C   UNL     1       0.719  10.421  19.730  0.00  0.00    +0.000 A 
ATOM     25  S   UNL     1      -0.860  10.848  19.165  0.00  0.00    +0.000 S 
BRANCH  21  27
ATOM     26  O   UNL     1      -2.011  14.268  20.392  0.00  0.00    +0.000 OA
ATOM     27  C   UNL     1      -2.152  13.048  20.309  0.00  0.00    +0.000 C 
ATOM     28  N   UNL     1      -3.411  12.483  20.228  0.00  0.00    +0.000 N 
ATOM     29  H   UNL     1      -3.480  11.479  20.145  0.00  0.00    +0.000 HD
BRANCH  28  30
ATOM     30  C   UNL     1      -4.614  13.290  20.247  0.00  0.00    +0.000 C 
BRANCH  30  31
ATOM     31  C   UNL     1      -5.650  12.801  19.234  0.00  0.00    +0.000 C 
BRANCH  31  32
ATOM     32  C   UNL     1      -5.215  11.479  18.605  0.00  0.00    +0.000 C 
BRANCH  32  33
ATOM     33  C   UNL     1      -4.835  11.637  17.140  0.00  0.00    +0.000 C 
BRANCH  33  34
ATOM     34  O   UNL     1      -3.446  11.919  17.031  0.00  0.00    +0.000 OA
ATOM     35  H   UNL     1      -3.226  11.962  16.084  0.00  0.00    +0.000 HD
ENDBRANCH  33  34
ENDBRANCH  32  33
ENDBRANCH  31  32
ENDBRANCH  30  31
ENDBRANCH  28  30
ENDBRANCH  21  27
ENDBRANCH   1  24
TORSDOF 7
ENDMDL
MODEL 8
REMARK VINA RESULT:      -8.3      3.818      5.980
REMARK  Name = 
REMARK  7 active torsions:
REMARK  status: ('A' for Active; 'I' for Inactive)
REMARK    1  A    between atoms: C_2  and  C_9
REMARK    2  A    between atoms: N_3  and  C_4
REMARK    3  A    between atoms: C_4  and  C_5
REMARK    4  A    between atoms: C_5  and  C_6
REMARK    5  A    between atoms: C_6  and  C_7
REMARK    6  A    between atoms: C_7  and  O_8
REMARK    7  A    between atoms: C_12  and  C_13
REMARK                            x       y       z     vdW  Elec       q    Type
REMARK                         _______ _______ _______ _____ _____    ______ ____
ROOT
ATOM      1  C   UNL     1       0.284  10.324  19.762  0.00  0.00    +0.000 A 
ATOM      2  C   UNL     1       0.663  10.905  20.980  0.00  0.00    +0.000 A 
ATOM      3  C   UNL     1      -0.093  11.917  21.562  0.00  0.00    +0.000 A 
ATOM      4  C   UNL     1      -1.300  12.369  20.999  0.00  0.00    +0.000 A 
ATOM      5  C   UNL     1      -2.053  13.445  21.561  0.00  0.00    +0.000 A 
ATOM      6  C   UNL     1      -1.528  14.360  22.507  0.00  0.00    +0.000 A 
ATOM      7  C   UNL     1      -2.294  15.385  23.055  0.00  0.00    +0.000 A 
ATOM      8  C   UNL     1      -3.641  15.483  22.733  0.00  0.00    +0.000 A 
ATOM      9  C   UNL     1      -4.209  14.601  21.812  0.00  0.00    +0.000 A 
ATOM     10  C   UNL     1      -5.578  14.672  21.529  0.00  0.00    +0.000 A 
ATOM     11  C   UNL     1      -6.144  13.823  20.593  0.00  0.00    +0.000 A 
ATOM     12  C   UNL     1      -5.329  12.953  19.872  0.00  0.00    +0.000 A 
ATOM     13  C   UNL     1      -3.936  12.857  20.108  0.00  0.00    +0.000 A 
ATOM     14  C   UNL     1      -3.062  12.028  19.344  0.00  0.00    +0.000 A 
ATOM     15  C   UNL     1      -3.440  11.527  18.084  0.00  0.00    +0.000 A 
ATOM     16  C   UNL     1      -2.611  10.684  17.360  0.00  0.00    +0.000 A 
ATOM     17  C   UNL     1      -1.412  10.261  17.919  0.00  0.00    +0.000 A 
ATOM     18  C   UNL     1      -0.943  10.747  19.160  0.00  0.00    +0.000 A 
ATOM     19  C   UNL     1      -1.762  11.711  19.836  0.00  0.00    +0.000 A 
ATOM     20  C   UNL     1      -3.396  13.629  21.160  0.00  0.00    +0.000 A 
ENDROOT
BRANCH   1  24
ATOM     21  C   UNL     1       2.609   7.286  18.769  0.00  0.00    +0.000 A 
ATOM     22  C   UNL     1       2.683   8.200  17.735  0.00  0.00    +0.000 A 
ATOM     23  C   UNL     1       1.921   9.375  17.985  0.00  0.00    +0.000 A 
ATOM     24  C   UNL     1       1.194   9.312  19.159  0.00  0.00    +0.000 A 
ATOM     25  S   UNL     1       1.498   7.808  19.958  0.00  0.00    +0.000 S 
BRANCH  21  27
ATOM     26  O   UNL     1       4.317   5.807  18.106  0.00  0.00    +0.000 OA
ATOM     27  C   UNL     1       3.367   6.046  18.853  0.00  0.00    +0.000 C 
ATOM     28  N   UNL     1       2.983   5.143  19.826  0.00  0.00    +0.000 N 
ATOM     29  H   UNL     1       2.209   5.387  20.427  0.00  0.00    +0.000 HD
BRANCH  28  30
ATOM     30  C   UNL     1       3.665   3.877  20.007  0.00  0.00    +0.000 C 
BRANCH  30  31
ATOM     31  C   UNL     1       2.697   2.747  20.354  0.00  0.00    +0.000 C 
BRANCH  31  32
ATOM     32  C   UNL     1       2.206   2.042  19.090  0.00  0.00    +0.000 C 
BRANCH  32  33
ATOM     33  C   UNL     1       3.314   1.869  18.062  0.00  0.00    +0.000 C 
BRANCH  33  34
ATOM     34  O   UNL     1       4.031   0.669  18.325  0.00  0.00    +0.000 OA
ATOM     35  H   UNL     1       4.787   0.636  17.714  0.00  0.00    +0.000 HD
ENDBRANCH  33  34
ENDBRANCH  32  33
ENDBRANCH  31  32
ENDBRANCH  30  31
ENDBRANCH  28  30
ENDBRANCH  21  27
ENDBRANCH   1  24
TORSDOF 7
ENDMDL
MODEL 9
REMARK VINA RESULT:      -8.3      5.221     10.158
REMARK  Name = 
REMARK  7 active torsions:
REMARK  status: ('A' for Active; 'I' for Inactive)
REMARK    1  A    between atoms: C_2  and  C_9
REMARK    2  A    between atoms: N_3  and  C_4
REMARK    3  A    between atoms: C_4  and  C_5
REMARK    4  A    between atoms: C_5  and  C_6
REMARK    5  A    between atoms: C_6  and  C_7
REMARK    6  A    between atoms: C_7  and  O_8
REMARK    7  A    between atoms: C_12  and  C_13
REMARK                            x       y       z     vdW  Elec       q    Type
REMARK                         _______ _______ _______ _____ _____    ______ ____
ROOT
ATOM      1  C   UNL     1       1.508   9.542  19.122  0.00  0.00    +0.000 A 
ATOM      2  C   UNL     1       2.127   9.773  17.887  0.00  0.00    +0.000 A 
ATOM      3  C   UNL     1       2.886   8.787  17.265  0.00  0.00    +0.000 A 
ATOM      4  C   UNL     1       3.025   7.496  17.805  0.00  0.00    +0.000 A 
ATOM      5  C   UNL     1       3.846   6.495  17.202  0.00  0.00    +0.000 A 
ATOM      6  C   UNL     1       4.835   6.776  16.227  0.00  0.00    +0.000 A 
ATOM      7  C   UNL     1       5.604   5.776  15.638  0.00  0.00    +0.000 A 
ATOM      8  C   UNL     1       5.357   4.446  15.950  0.00  0.00    +0.000 A 
ATOM      9  C   UNL     1       4.388   4.115  16.899  0.00  0.00    +0.000 A 
ATOM     10  C   UNL     1       4.106   2.772  17.173  0.00  0.00    +0.000 A 
ATOM     11  C   UNL     1       3.171   2.435  18.136  0.00  0.00    +0.000 A 
ATOM     12  C   UNL     1       2.569   3.439  18.891  0.00  0.00    +0.000 A 
ATOM     13  C   UNL     1       2.834   4.812  18.666  0.00  0.00    +0.000 A 
ATOM     14  C   UNL     1       2.289   5.861  19.463  0.00  0.00    +0.000 A 
ATOM     15  C   UNL     1       1.748   5.611  20.738  0.00  0.00    +0.000 A 
ATOM     16  C   UNL     1       1.177   6.621  21.496  0.00  0.00    +0.000 A 
ATOM     17  C   UNL     1       1.064   7.896  20.959  0.00  0.00    +0.000 A 
ATOM     18  C   UNL     1       1.615   8.238  19.703  0.00  0.00    +0.000 A 
ATOM     19  C   UNL     1       2.307   7.206  18.989  0.00  0.00    +0.000 A 
ATOM     20  C   UNL     1       3.685   5.145  17.590  0.00  0.00    +0.000 A 
ENDROOT
BRANCH   1  24
ATOM     21  C   UNL     1      -0.955  12.328  20.460  0.00  0.00    +0.000 A 
ATOM     22  C   UNL     1       0.289  12.607  20.993  0.00  0.00    +0.000 A 
ATOM     23  C   UNL     1       1.291  11.698  20.552  0.00  0.00    +0.000 A 
ATOM     24  C   UNL     1       0.791  10.677  19.765  0.00  0.00    +0.000 A 
ATOM     25  S   UNL     1      -0.914  10.882  19.551  0.00  0.00    +0.000 S 
BRANCH  21  27
ATOM     26  O   UNL     1      -2.094  14.306  21.039  0.00  0.00    +0.000 OA
ATOM     27  C   UNL     1      -2.148  13.144  20.635  0.00  0.00    +0.000 C 
ATOM     28  N   UNL     1      -3.358  12.560  20.312  0.00  0.00    +0.000 N 
ATOM     29  H   UNL     1      -3.355  11.610  19.969  0.00  0.00    +0.000 HD
BRANCH  28  30
ATOM     30  C   UNL     1      -4.612  13.276  20.441  0.00  0.00    +0.000 C 
BRANCH  30  31
ATOM     31  C   UNL     1      -5.533  12.639  21.482  0.00  0.00    +0.000 C 
BRANCH  31  32
ATOM     32  C   UNL     1      -5.402  13.346  22.830  0.00  0.00    +0.000 C 
BRANCH  32  33
ATOM     33  C   UNL     1      -4.354  12.694  23.721  0.00  0.00    +0.000 C 
BRANCH  33  34
ATOM     34  O   UNL     1      -4.992  11.899  24.711  0.00  0.00    +0.000 OA
ATOM     35  H   UNL     1      -4.975  12.397  25.547  0.00  0.00    +0.000 HD
ENDBRANCH  33  34
ENDBRANCH  32  33
ENDBRANCH  31  32
ENDBRANCH  30  31
ENDBRANCH  28  30
ENDBRANCH  21  27
ENDBRANCH   1  24
TORSDOF 7
ENDMDL
