MODEL 1
REMARK VINA RESULT:      -8.5      0.000      0.000
REMARK  Name = 
REMARK  4 active torsions:
REMARK  status: ('A' for Active; 'I' for Inactive)
REMARK    1  A    between atoms: C_1  and  N_2
REMARK    2  A    between atoms: C_8  and  C_9
REMARK    3  A    between atoms: N_11  and  C_12
REMARK    4  A    between atoms: C_12  and  C_13
REMARK                            x       y       z     vdW  Elec       q    Type
REMARK                         _______ _______ _______ _____ _____    ______ ____
ROOT
ATOM      1  C   UNL     1       3.988   6.746  17.634  0.00  0.00    +0.000 C 
ATOM      2  O   UNL     1       4.459   7.096  16.556  0.00  0.00    +0.000 OA
ATOM      3  N   UNL     1       2.971   7.425  18.258  0.00  0.00    +0.000 N 
ATOM      4  H   UNL     1       2.570   6.971  19.074  0.00  0.00    +0.000 HD
ENDROOT
BRANCH   1  12
ATOM      5  C   UNL     1       0.733   2.531  18.768  0.00  0.00    +0.000 C 
ATOM      6  N   UNL     1       2.051   2.547  18.161  0.00  0.00    +0.000 NA
ATOM      7  C   UNL     1       3.008   1.586  18.732  0.00  0.00    +0.000 C 
ATOM      8  C   UNL     1       4.306   2.066  19.440  0.00  0.00    +0.000 C 
ATOM      9  C   UNL     1       4.577   3.477  19.124  0.00  0.00    +0.000 A 
ATOM     10  N   UNL     1       5.643   4.225  19.511  0.00  0.00    +0.000 N 
ATOM     11  N   UNL     1       5.587   5.496  19.062  0.00  0.00    +0.000 NA
ATOM     12  C   UNL     1       4.442   5.541  18.343  0.00  0.00    +0.000 A 
ATOM     13  C   UNL     1       3.769   4.290  18.379  0.00  0.00    +0.000 A 
ATOM     14  C   UNL     1       2.489   3.890  17.754  0.00  0.00    +0.000 C 
ATOM     15  H   UNL     1       6.442   3.947  20.073  0.00  0.00    +0.000 HD
ENDBRANCH   1  12
BRANCH   3  16
ATOM     16  C   UNL     1       2.296   8.542  17.632  0.00  0.00    +0.000 C 
BRANCH  16  17
ATOM     17  C   UNL     1       1.549   9.447  18.628  0.00  0.00    +0.000 C 
ATOM     18  C   UNL     1       0.169   9.889  18.140  0.00  0.00    +0.000 C 
ATOM     19  C   UNL     1      -0.426  10.860  19.153  0.00  0.00    +0.000 C 
ATOM     20  C   UNL     1      -0.213  10.366  20.555  0.00  0.00    +0.000 A 
ATOM     21  C   UNL     1      -0.917  10.947  21.619  0.00  0.00    +0.000 A 
ATOM     22  C   UNL     1      -0.728  10.489  22.924  0.00  0.00    +0.000 A 
ATOM     23  C   UNL     1       0.160   9.446  23.177  0.00  0.00    +0.000 A 
ATOM     24  C   UNL     1       0.872   8.871  22.127  0.00  0.00    +0.000 A 
ATOM     25  C   UNL     1       0.701   9.343  20.827  0.00  0.00    +0.000 A 
ATOM     26  O   UNL     1       1.455   8.726  19.868  0.00  0.00    +0.000 OA
ENDBRANCH  16  17
ENDBRANCH   3  16
TORSDOF 3
ENDMDL
MODEL 2
REMARK VINA RESULT:      -7.8      3.161      7.575
REMARK  Name = 
REMARK  4 active torsions:
REMARK  status: ('A' for Active; 'I' for Inactive)
REMARK    1  A    between atoms: C_1  and  N_2
REMARK    2  A    between atoms: C_8  and  C_9
REMARK    3  A    between atoms: N_11  and  C_12
REMARK    4  A    between atoms: C_12  and  C_13
REMARK                            x       y       z     vdW  Elec       q    Type
REMARK                         _______ _______ _______ _____ _____    ______ ____
ROOT
ATOM      1  C   UNL     1       1.355  10.499  18.346  0.00  0.00    +0.000 C 
ATOM      2  O   UNL     1       2.287  11.199  17.964  0.00  0.00    +0.000 OA
ATOM      3  N   UNL     1       1.437   9.131  18.429  0.00  0.00    +0.000 N 
ATOM      4  H   UNL     1       0.657   8.665  18.884  0.00  0.00    +0.000 HD
ENDROOT
BRANCH   1  12
ATOM      5  C   UNL     1      -3.125  10.547  15.252  0.00  0.00    +0.000 C 
ATOM      6  N   UNL     1      -2.953  10.117  16.628  0.00  0.00    +0.000 NA
ATOM      7  C   UNL     1      -3.952  10.645  17.571  0.00  0.00    +0.000 C 
ATOM      8  C   UNL     1      -3.539  11.574  18.746  0.00  0.00    +0.000 C 
ATOM      9  C   UNL     1      -2.084  11.519  18.963  0.00  0.00    +0.000 A 
ATOM     10  N   UNL     1      -1.365  12.147  19.929  0.00  0.00    +0.000 N 
ATOM     11  N   UNL     1      -0.040  11.899  19.846  0.00  0.00    +0.000 NA
ATOM     12  C   UNL     1       0.071  11.060  18.790  0.00  0.00    +0.000 A 
ATOM     13  C   UNL     1      -1.196  10.817  18.197  0.00  0.00    +0.000 A 
ATOM     14  C   UNL     1      -1.544   9.984  17.025  0.00  0.00    +0.000 C 
ATOM     15  H   UNL     1      -1.695  12.754  20.674  0.00  0.00    +0.000 HD
ENDBRANCH   1  12
BRANCH   3  16
ATOM     16  C   UNL     1       2.673   8.419  18.182  0.00  0.00    +0.000 C 
BRANCH  16  17
ATOM     17  C   UNL     1       2.501   6.892  18.099  0.00  0.00    +0.000 C 
ATOM     18  C   UNL     1       3.746   6.159  17.602  0.00  0.00    +0.000 C 
ATOM     19  C   UNL     1       3.425   4.676  17.461  0.00  0.00    +0.000 C 
ATOM     20  C   UNL     1       2.649   4.183  18.649  0.00  0.00    +0.000 A 
ATOM     21  C   UNL     1       2.495   2.807  18.864  0.00  0.00    +0.000 A 
ATOM     22  C   UNL     1       1.779   2.341  19.969  0.00  0.00    +0.000 A 
ATOM     23  C   UNL     1       1.217   3.244  20.869  0.00  0.00    +0.000 A 
ATOM     24  C   UNL     1       1.357   4.613  20.656  0.00  0.00    +0.000 A 
ATOM     25  C   UNL     1       2.050   5.079  19.541  0.00  0.00    +0.000 A 
ATOM     26  O   UNL     1       2.119   6.438  19.409  0.00  0.00    +0.000 OA
ENDBRANCH  16  17
ENDBRANCH   3  16
TORSDOF 3
ENDMDL
MODEL 3
REMARK VINA RESULT:      -7.8      5.823      7.513
REMARK  Name = 
REMARK  4 active torsions:
REMARK  status: ('A' for Active; 'I' for Inactive)
REMARK    1  A    between atoms: C_1  and  N_2
REMARK    2  A    between atoms: C_8  and  C_9
REMARK    3  A    between atoms: N_11  and  C_12
REMARK    4  A    between atoms: C_12  and  C_13
REMARK                            x       y       z     vdW  Elec       q    Type
REMARK                         _______ _______ _______ _____ _____    ______ ____
ROOT
ATOM      1  C   UNL     1       7.406   6.870  17.398  0.00  0.00    +0.000 C 
ATOM      2  O   UNL     1       7.761   6.622  16.250  0.00  0.00    +0.000 OA
ATOM      3  N   UNL     1       7.726   8.041  18.040  0.00  0.00    +0.000 N 
ATOM      4  H   UNL     1       7.267   8.198  18.933  0.00  0.00    +0.000 HD
ENDROOT
BRANCH   1  12
ATOM      5  C   UNL     1       2.192   7.865  18.613  0.00  0.00    +0.000 C 
ATOM      6  N   UNL     1       2.803   6.672  18.059  0.00  0.00    +0.000 NA
ATOM      7  C   UNL     1       2.413   5.414  18.716  0.00  0.00    +0.000 C 
ATOM      8  C   UNL     1       3.459   4.530  19.450  0.00  0.00    +0.000 C 
ATOM      9  C   UNL     1       4.826   4.925  19.074  0.00  0.00    +0.000 A 
ATOM     10  N   UNL     1       5.993   4.351  19.465  0.00  0.00    +0.000 N 
ATOM     11  N   UNL     1       7.081   4.962  18.950  0.00  0.00    +0.000 NA
ATOM     12  C   UNL     1       6.569   5.953  18.185  0.00  0.00    +0.000 A 
ATOM     13  C   UNL     1       5.151   5.971  18.257  0.00  0.00    +0.000 A 
ATOM     14  C   UNL     1       4.185   6.881  17.603  0.00  0.00    +0.000 C 
ATOM     15  H   UNL     1       6.134   3.549  20.072  0.00  0.00    +0.000 HD
ENDBRANCH   1  12
BRANCH   3  16
ATOM     16  C   UNL     1       8.409   9.125  17.365  0.00  0.00    +0.000 C 
BRANCH  16  17
ATOM     17  C   UNL     1       8.787  10.290  18.296  0.00  0.00    +0.000 C 
ATOM     18  C   UNL     1       9.166   9.849  19.710  0.00  0.00    +0.000 C 
ATOM     19  C   UNL     1       9.415  11.086  20.565  0.00  0.00    +0.000 C 
ATOM     20  C   UNL     1      10.235  12.097  19.815  0.00  0.00    +0.000 A 
ATOM     21  C   UNL     1      10.818  13.173  20.497  0.00  0.00    +0.000 A 
ATOM     22  C   UNL     1      11.585  14.114  19.807  0.00  0.00    +0.000 A 
ATOM     23  C   UNL     1      11.781  13.984  18.433  0.00  0.00    +0.000 A 
ATOM     24  C   UNL     1      11.196  12.923  17.747  0.00  0.00    +0.000 A 
ATOM     25  C   UNL     1      10.410  11.997  18.430  0.00  0.00    +0.000 A 
ATOM     26  O   UNL     1       9.866  11.001  17.668  0.00  0.00    +0.000 OA
ENDBRANCH  16  17
ENDBRANCH   3  16
TORSDOF 3
ENDMDL
MODEL 4
REMARK VINA RESULT:      -7.8      2.783      7.686
REMARK  Name = 
REMARK  4 active torsions:
REMARK  status: ('A' for Active; 'I' for Inactive)
REMARK    1  A    between atoms: C_1  and  N_2
REMARK    2  A    between atoms: C_8  and  C_9
REMARK    3  A    between atoms: N_11  and  C_12
REMARK    4  A    between atoms: C_12  and  C_13
REMARK                            x       y       z     vdW  Elec       q    Type
REMARK                         _______ _______ _______ _____ _____    ______ ____
ROOT
ATOM      1  C   UNL     1       1.433  10.448  18.373  0.00  0.00    +0.000 C 
ATOM      2  O   UNL     1       2.387  11.090  17.943  0.00  0.00    +0.000 OA
ATOM      3  N   UNL     1       1.405   9.075  18.386  0.00  0.00    +0.000 N 
ATOM      4  H   UNL     1       0.628   8.652  18.885  0.00  0.00    +0.000 HD
ENDROOT
BRANCH   1  12
ATOM      5  C   UNL     1      -0.296   9.529  23.453  0.00  0.00    +0.000 C 
ATOM      6  N   UNL     1      -0.081  10.786  22.760  0.00  0.00    +0.000 NA
ATOM      7  C   UNL     1      -1.187  11.750  22.870  0.00  0.00    +0.000 C 
ATOM      8  C   UNL     1      -1.975  12.218  21.615  0.00  0.00    +0.000 C 
ATOM      9  C   UNL     1      -1.245  11.871  20.385  0.00  0.00    +0.000 A 
ATOM     10  N   UNL     1      -1.589  12.164  19.105  0.00  0.00    +0.000 N 
ATOM     11  N   UNL     1      -0.708  11.689  18.199  0.00  0.00    +0.000 NA
ATOM     12  C   UNL     1       0.243  11.088  18.950  0.00  0.00    +0.000 A 
ATOM     13  C   UNL     1      -0.076  11.165  20.332  0.00  0.00    +0.000 A 
ATOM     14  C   UNL     1       0.663  10.638  21.501  0.00  0.00    +0.000 C 
ATOM     15  H   UNL     1      -2.397  12.678  18.766  0.00  0.00    +0.000 HD
ENDBRANCH   1  12
BRANCH   3  16
ATOM     16  C   UNL     1       2.552   8.280  18.002  0.00  0.00    +0.000 C 
BRANCH  16  17
ATOM     17  C   UNL     1       2.658   6.944  18.760  0.00  0.00    +0.000 C 
ATOM     18  C   UNL     1       1.810   6.890  20.030  0.00  0.00    +0.000 C 
ATOM     19  C   UNL     1       2.076   5.572  20.747  0.00  0.00    +0.000 C 
ATOM     20  C   UNL     1       2.097   4.429  19.772  0.00  0.00    +0.000 A 
ATOM     21  C   UNL     1       2.041   3.108  20.237  0.00  0.00    +0.000 A 
ATOM     22  C   UNL     1       2.056   2.042  19.336  0.00  0.00    +0.000 A 
ATOM     23  C   UNL     1       2.121   2.285  17.966  0.00  0.00    +0.000 A 
ATOM     24  C   UNL     1       2.188   3.595  17.497  0.00  0.00    +0.000 A 
ATOM     25  C   UNL     1       2.197   4.659  18.396  0.00  0.00    +0.000 A 
ATOM     26  O   UNL     1       2.282   5.905  17.840  0.00  0.00    +0.000 OA
ENDBRANCH  16  17
ENDBRANCH   3  16
TORSDOF 3
ENDMDL
MODEL 5
REMARK VINA RESULT:      -7.8      2.464      3.891
REMARK  Name = 
REMARK  4 active torsions:
REMARK  status: ('A' for Active; 'I' for Inactive)
REMARK    1  A    between atoms: C_1  and  N_2
REMARK    2  A    between atoms: C_8  and  C_9
REMARK    3  A    between atoms: N_11  and  C_12
REMARK    4  A    between atoms: C_12  and  C_13
REMARK                            x       y       z     vdW  Elec       q    Type
REMARK                         _______ _______ _______ _____ _____    ______ ____
ROOT
ATOM      1  C   UNL     1       1.853   7.756  19.787  0.00  0.00    +0.000 C 
ATOM      2  O   UNL     1       1.652   7.744  20.998  0.00  0.00    +0.000 OA
ATOM      3  N   UNL     1       1.578   8.845  18.998  0.00  0.00    +0.000 N 
ATOM      4  H   UNL     1       1.908   8.792  18.038  0.00  0.00    +0.000 HD
ENDROOT
BRANCH   1  12
ATOM      5  C   UNL     1       1.614   2.627  21.599  0.00  0.00    +0.000 C 
ATOM      6  N   UNL     1       1.304   3.162  20.286  0.00  0.00    +0.000 NA
ATOM      7  C   UNL     1       1.904   2.427  19.161  0.00  0.00    +0.000 C 
ATOM      8  C   UNL     1       2.932   3.106  18.213  0.00  0.00    +0.000 C 
ATOM      9  C   UNL     1       2.904   4.568  18.379  0.00  0.00    +0.000 A 
ATOM     10  N   UNL     1       3.615   5.496  17.688  0.00  0.00    +0.000 N 
ATOM     11  N   UNL     1       3.368   6.760  18.093  0.00  0.00    +0.000 NA
ATOM     12  C   UNL     1       2.444   6.616  19.070  0.00  0.00    +0.000 A 
ATOM     13  C   UNL     1       2.144   5.246  19.291  0.00  0.00    +0.000 A 
ATOM     14  C   UNL     1       1.212   4.628  20.260  0.00  0.00    +0.000 C 
ATOM     15  H   UNL     1       4.281   5.353  16.934  0.00  0.00    +0.000 HD
ENDBRANCH   1  12
BRANCH   3  16
ATOM     16  C   UNL     1       1.140  10.107  19.556  0.00  0.00    +0.000 C 
BRANCH  16  17
ATOM     17  C   UNL     1      -0.351  10.404  19.314  0.00  0.00    +0.000 C 
ATOM     18  C   UNL     1      -0.768  11.819  19.716  0.00  0.00    +0.000 C 
ATOM     19  C   UNL     1      -2.274  11.961  19.532  0.00  0.00    +0.000 C 
ATOM     20  C   UNL     1      -2.713  11.357  18.230  0.00  0.00    +0.000 A 
ATOM     21  C   UNL     1      -3.994  11.623  17.729  0.00  0.00    +0.000 A 
ATOM     22  C   UNL     1      -4.407  11.069  16.515  0.00  0.00    +0.000 A 
ATOM     23  C   UNL     1      -3.543  10.250  15.791  0.00  0.00    +0.000 A 
ATOM     24  C   UNL     1      -2.272   9.972  16.288  0.00  0.00    +0.000 A 
ATOM     25  C   UNL     1      -1.868  10.505  17.510  0.00  0.00    +0.000 A 
ATOM     26  O   UNL     1      -0.610  10.162  17.921  0.00  0.00    +0.000 OA
ENDBRANCH  16  17
ENDBRANCH   3  16
TORSDOF 3
ENDMDL
MODEL 6
REMARK VINA RESULT:      -7.8      3.097      7.693
REMARK  Name = 
REMARK  4 active torsions:
REMARK  status: ('A' for Active; 'I' for Inactive)
REMARK    1  A    between atoms: C_1  and  N_2
REMARK    2  A    between atoms: C_8  and  C_9
REMARK    3  A    between atoms: N_11  and  C_12
REMARK    4  A    between atoms: C_12  and  C_13
REMARK                            x       y       z     vdW  Elec       q    Type
REMARK                         _______ _______ _______ _____ _____    ______ ____
ROOT
ATOM      1  C   UNL     1       1.398  10.265  18.244  0.00  0.00    +0.000 C 
ATOM      2  O   UNL     1       2.282  10.863  17.639  0.00  0.00    +0.000 OA
ATOM      3  N   UNL     1       1.467   8.924  18.531  0.00  0.00    +0.000 N 
ATOM      4  H   UNL     1       0.746   8.565  19.152  0.00  0.00    +0.000 HD
ENDROOT
BRANCH   1  12
ATOM      5  C   UNL     1      -3.230  10.689  15.407  0.00  0.00    +0.000 C 
ATOM      6  N   UNL     1      -3.018  10.251  16.774  0.00  0.00    +0.000 NA
ATOM      7  C   UNL     1      -3.913  10.865  17.767  0.00  0.00    +0.000 C 
ATOM      8  C   UNL     1      -3.355  11.759  18.910  0.00  0.00    +0.000 C 
ATOM      9  C   UNL     1      -1.901  11.580  19.046  0.00  0.00    +0.000 A 
ATOM     10  N   UNL     1      -1.076  12.147  19.964  0.00  0.00    +0.000 N 
ATOM     11  N   UNL     1       0.215  11.786  19.809  0.00  0.00    +0.000 NA
ATOM     12  C   UNL     1       0.194  10.937  18.756  0.00  0.00    +0.000 A 
ATOM     13  C   UNL     1      -1.121  10.802  18.237  0.00  0.00    +0.000 A 
ATOM     14  C   UNL     1      -1.605   9.998  17.093  0.00  0.00    +0.000 C 
ATOM     15  H   UNL     1      -1.311  12.782  20.721  0.00  0.00    +0.000 HD
ENDBRANCH   1  12
BRANCH   3  16
ATOM     16  C   UNL     1       2.647   8.137  18.243  0.00  0.00    +0.000 C 
BRANCH  16  17
ATOM     17  C   UNL     1       2.672   6.777  18.963  0.00  0.00    +0.000 C 
ATOM     18  C   UNL     1       1.743   6.706  20.175  0.00  0.00    +0.000 C 
ATOM     19  C   UNL     1       1.931   5.360  20.864  0.00  0.00    +0.000 C 
ATOM     20  C   UNL     1       1.988   4.248  19.857  0.00  0.00    +0.000 A 
ATOM     21  C   UNL     1       1.871   2.915  20.274  0.00  0.00    +0.000 A 
ATOM     22  C   UNL     1       1.919   1.876  19.343  0.00  0.00    +0.000 A 
ATOM     23  C   UNL     1       2.078   2.160  17.987  0.00  0.00    +0.000 A 
ATOM     24  C   UNL     1       2.206   3.481  17.566  0.00  0.00    +0.000 A 
ATOM     25  C   UNL     1       2.183   4.517  18.498  0.00  0.00    +0.000 A 
ATOM     26  O   UNL     1       2.332   5.777  17.989  0.00  0.00    +0.000 OA
ENDBRANCH  16  17
ENDBRANCH   3  16
TORSDOF 3
ENDMDL
MODEL 7
REMARK VINA RESULT:      -7.7      2.782      7.535
REMARK  Name = 
REMARK  4 active torsions:
REMARK  status: ('A' for Active; 'I' for Inactive)
REMARK    1  A    between atoms: C_1  and  N_2
REMARK    2  A    between atoms: C_8  and  C_9
REMARK    3  A    between atoms: N_11  and  C_12
REMARK    4  A    between atoms: C_12  and  C_13
REMARK                            x       y       z     vdW  Elec       q    Type
REMARK                         _______ _______ _______ _____ _____    ______ ____
ROOT
ATOM      1  C   UNL     1       1.523  10.715  18.364  0.00  0.00    +0.000 C 
ATOM      2  O   UNL     1       2.438  11.424  17.955  0.00  0.00    +0.000 OA
ATOM      3  N   UNL     1       1.578   9.343  18.345  0.00  0.00    +0.000 N 
ATOM      4  H   UNL     1       0.826   8.862  18.830  0.00  0.00    +0.000 HD
ENDROOT
BRANCH   1  12
ATOM      5  C   UNL     1      -0.215   9.501  23.379  0.00  0.00    +0.000 C 
ATOM      6  N   UNL     1      -0.059  10.795  22.740  0.00  0.00    +0.000 NA
ATOM      7  C   UNL     1      -1.215  11.695  22.873  0.00  0.00    +0.000 C 
ATOM      8  C   UNL     1      -2.012  12.172  21.627  0.00  0.00    +0.000 C 
ATOM      9  C   UNL     1      -1.251  11.913  20.394  0.00  0.00    +0.000 A 
ATOM     10  N   UNL     1      -1.595  12.240  19.122  0.00  0.00    +0.000 N 
ATOM     11  N   UNL     1      -0.679  11.849  18.210  0.00  0.00    +0.000 NA
ATOM     12  C   UNL     1       0.293  11.268  18.950  0.00  0.00    +0.000 A 
ATOM     13  C   UNL     1      -0.045  11.272  20.329  0.00  0.00    +0.000 A 
ATOM     14  C   UNL     1       0.706  10.737  21.486  0.00  0.00    +0.000 C 
ATOM     15  H   UNL     1      -2.425  12.724  18.793  0.00  0.00    +0.000 HD
ENDBRANCH   1  12
BRANCH   3  16
ATOM     16  C   UNL     1       2.772   8.628  17.949  0.00  0.00    +0.000 C 
BRANCH  16  17
ATOM     17  C   UNL     1       2.611   7.098  17.970  0.00  0.00    +0.000 C 
ATOM     18  C   UNL     1       3.853   6.342  17.499  0.00  0.00    +0.000 C 
ATOM     19  C   UNL     1       3.542   4.851  17.463  0.00  0.00    +0.000 C 
ATOM     20  C   UNL     1       2.793   4.432  18.695  0.00  0.00    +0.000 A 
ATOM     21  C   UNL     1       2.654   3.072  19.004  0.00  0.00    +0.000 A 
ATOM     22  C   UNL     1       1.963   2.675  20.151  0.00  0.00    +0.000 A 
ATOM     23  C   UNL     1       1.410   3.632  21.000  0.00  0.00    +0.000 A 
ATOM     24  C   UNL     1       1.534   4.985  20.693  0.00  0.00    +0.000 A 
ATOM     25  C   UNL     1       2.203   5.381  19.537  0.00  0.00    +0.000 A 
ATOM     26  O   UNL     1       2.258   6.729  19.314  0.00  0.00    +0.000 OA
ENDBRANCH  16  17
ENDBRANCH   3  16
TORSDOF 3
ENDMDL
MODEL 8
REMARK VINA RESULT:      -7.7      3.433      7.915
REMARK  Name = 
REMARK  4 active torsions:
REMARK  status: ('A' for Active; 'I' for Inactive)
REMARK    1  A    between atoms: C_1  and  N_2
REMARK    2  A    between atoms: C_8  and  C_9
REMARK    3  A    between atoms: N_11  and  C_12
REMARK    4  A    between atoms: C_12  and  C_13
REMARK                            x       y       z     vdW  Elec       q    Type
REMARK                         _______ _______ _______ _____ _____    ______ ____
ROOT
ATOM      1  C   UNL     1       0.361  10.166  19.388  0.00  0.00    +0.000 C 
ATOM      2  O   UNL     1       1.304  10.414  18.642  0.00  0.00    +0.000 OA
ATOM      3  N   UNL     1       0.393   9.159  20.320  0.00  0.00    +0.000 N 
ATOM      4  H   UNL     1      -0.386   9.131  20.971  0.00  0.00    +0.000 HD
ENDROOT
BRANCH   1  12
ATOM      5  C   UNL     1      -2.950  10.495  15.078  0.00  0.00    +0.000 C 
ATOM      6  N   UNL     1      -3.260  10.205  16.466  0.00  0.00    +0.000 NA
ATOM      7  C   UNL     1      -4.386  10.972  17.021  0.00  0.00    +0.000 C 
ATOM      8  C   UNL     1      -4.182  11.961  18.203  0.00  0.00    +0.000 C 
ATOM      9  C   UNL     1      -2.884  11.727  18.856  0.00  0.00    +0.000 A 
ATOM     10  N   UNL     1      -2.381  12.353  19.952  0.00  0.00    +0.000 N 
ATOM     11  N   UNL     1      -1.152  11.912  20.294  0.00  0.00    +0.000 NA
ATOM     12  C   UNL     1      -0.882  10.951  19.381  0.00  0.00    +0.000 A 
ATOM     13  C   UNL     1      -1.944  10.823  18.447  0.00  0.00    +0.000 A 
ATOM     14  C   UNL     1      -2.072   9.919  17.282  0.00  0.00    +0.000 C 
ATOM     15  H   UNL     1      -2.807  13.081  20.518  0.00  0.00    +0.000 HD
ENDBRANCH   1  12
BRANCH   3  16
ATOM     16  C   UNL     1       1.591   8.387  20.575  0.00  0.00    +0.000 C 
BRANCH  16  17
ATOM     17  C   UNL     1       1.656   7.070  19.782  0.00  0.00    +0.000 C 
ATOM     18  C   UNL     1       2.858   6.978  18.842  0.00  0.00    +0.000 C 
ATOM     19  C   UNL     1       2.760   5.687  18.037  0.00  0.00    +0.000 C 
ATOM     20  C   UNL     1       2.368   4.537  18.919  0.00  0.00    +0.000 A 
ATOM     21  C   UNL     1       2.495   3.221  18.455  0.00  0.00    +0.000 A 
ATOM     22  C   UNL     1       2.137   2.146  19.272  0.00  0.00    +0.000 A 
ATOM     23  C   UNL     1       1.655   2.376  20.559  0.00  0.00    +0.000 A 
ATOM     24  C   UNL     1       1.516   3.682  21.023  0.00  0.00    +0.000 A 
ATOM     25  C   UNL     1       1.851   4.756  20.200  0.00  0.00    +0.000 A 
ATOM     26  O   UNL     1       1.664   5.998  20.740  0.00  0.00    +0.000 OA
ENDBRANCH  16  17
ENDBRANCH   3  16
TORSDOF 3
ENDMDL
MODEL 9
REMARK VINA RESULT:      -7.5      1.447      2.021
REMARK  Name = 
REMARK  4 active torsions:
REMARK  status: ('A' for Active; 'I' for Inactive)
REMARK    1  A    between atoms: C_1  and  N_2
REMARK    2  A    between atoms: C_8  and  C_9
REMARK    3  A    between atoms: N_11  and  C_12
REMARK    4  A    between atoms: C_12  and  C_13
REMARK                            x       y       z     vdW  Elec       q    Type
REMARK                         _______ _______ _______ _____ _____    ______ ____
ROOT
ATOM      1  C   UNL     1       3.756   6.728  17.762  0.00  0.00    +0.000 C 
ATOM      2  O   UNL     1       4.633   7.513  17.415  0.00  0.00    +0.000 OA
ATOM      3  N   UNL     1       2.540   7.138  18.251  0.00  0.00    +0.000 N 
ATOM      4  H   UNL     1       1.844   6.408  18.378  0.00  0.00    +0.000 HD
ENDROOT
BRANCH   1  12
ATOM      5  C   UNL     1       1.438   3.200  21.202  0.00  0.00    +0.000 C 
ATOM      6  N   UNL     1       1.447   3.211  19.750  0.00  0.00    +0.000 NA
ATOM      7  C   UNL     1       1.792   1.924  19.125  0.00  0.00    +0.000 C 
ATOM      8  C   UNL     1       3.062   1.773  18.243  0.00  0.00    +0.000 C 
ATOM      9  C   UNL     1       3.589   3.093  17.861  0.00  0.00    +0.000 A 
ATOM     10  N   UNL     1       4.647   3.363  17.054  0.00  0.00    +0.000 N 
ATOM     11  N   UNL     1       4.880   4.685  16.913  0.00  0.00    +0.000 NA
ATOM     12  C   UNL     1       3.908   5.270  17.650  0.00  0.00    +0.000 A 
ATOM     13  C   UNL     1       3.089   4.295  18.279  0.00  0.00    +0.000 A 
ATOM     14  C   UNL     1       1.929   4.476  19.179  0.00  0.00    +0.000 C 
ATOM     15  H   UNL     1       5.255   2.712  16.566  0.00  0.00    +0.000 HD
ENDBRANCH   1  12
BRANCH   3  16
ATOM     16  C   UNL     1       2.156   8.533  18.284  0.00  0.00    +0.000 C 
BRANCH  16  17
ATOM     17  C   UNL     1       1.168   8.875  19.413  0.00  0.00    +0.000 C 
ATOM     18  C   UNL     1       1.434   8.115  20.713  0.00  0.00    +0.000 C 
ATOM     19  C   UNL     1       0.337   8.452  21.716  0.00  0.00    +0.000 C 
ATOM     20  C   UNL     1       0.049   9.926  21.717  0.00  0.00    +0.000 A 
ATOM     21  C   UNL     1      -0.711  10.492  22.749  0.00  0.00    +0.000 A 
ATOM     22  C   UNL     1      -0.978  11.862  22.760  0.00  0.00    +0.000 A 
ATOM     23  C   UNL     1      -0.485  12.678  21.743  0.00  0.00    +0.000 A 
ATOM     24  C   UNL     1       0.261  12.121  20.707  0.00  0.00    +0.000 A 
ATOM     25  C   UNL     1       0.509  10.750  20.684  0.00  0.00    +0.000 A 
ATOM     26  O   UNL     1       1.236  10.296  19.620  0.00  0.00    +0.000 OA
ENDBRANCH  16  17
ENDBRANCH   3  16
TORSDOF 3
ENDMDL
