MODEL 1
REMARK VINA RESULT:      -7.3      0.000      0.000
REMARK  Name = 
REMARK  5 active torsions:
REMARK  status: ('A' for Active; 'I' for Inactive)
REMARK    1  A    between atoms: C_1  and  O_2
REMARK    2  A    between atoms: O_2  and  C_3
REMARK    3  A    between atoms: C_7  and  N_8
REMARK    4  A    between atoms: C_12  and  C_13
REMARK    5  A    between atoms: C_19  and  N_20
REMARK                            x       y       z     vdW  Elec       q    Type
REMARK                         _______ _______ _______ _____ _____    ______ ____
ROOT
ATOM      1  N   UNL     1       6.020   4.939  16.208  0.00  0.00    +0.000 N 
ATOM      2  C   UNL     1       7.084   5.352  17.126  0.00  0.00    +0.000 C 
ATOM      3  C   UNL     1       6.458   4.996  18.454  0.00  0.00    +0.000 C 
ATOM      4  O   UNL     1       7.009   5.141  19.540  0.00  0.00    +0.000 OA
ATOM      5  C   UNL     1       5.075   4.469  18.254  0.00  0.00    +0.000 C 
ATOM      6  C   UNL     1       4.893   4.498  16.909  0.00  0.00    +0.000 C 
ENDROOT
BRANCH   1  11
ATOM      7  C   UNL     1       6.030   3.520  12.734  0.00  0.00    +0.000 A 
ATOM      8  C   UNL     1       7.126   4.179  12.184  0.00  0.00    +0.000 A 
ATOM      9  C   UNL     1       7.855   5.082  12.950  0.00  0.00    +0.000 A 
ATOM     10  C   UNL     1       7.480   5.338  14.273  0.00  0.00    +0.000 A 
ATOM     11  C   UNL     1       6.383   4.692  14.867  0.00  0.00    +0.000 A 
ATOM     12  C   UNL     1       5.677   3.775  14.063  0.00  0.00    +0.000 A 
BRANCH   7  14
ATOM     13  C   UNL     1       4.199   3.111  11.276  0.00  0.00    +0.000 C 
ATOM     14  O   UNL     1       5.396   2.646  11.891  0.00  0.00    +0.000 OA
ENDBRANCH   7  14
ENDBRANCH   1  11
BRANCH   5  15
ATOM     15  C   UNL     1       4.148   4.069  19.323  0.00  0.00    +0.000 A 
ATOM     16  C   UNL     1       4.158   2.765  19.845  0.00  0.00    +0.000 A 
ATOM     17  C   UNL     1       3.258   2.378  20.843  0.00  0.00    +0.000 A 
ATOM     18  C   UNL     1       2.353   3.301  21.357  0.00  0.00    +0.000 A 
ATOM     19  C   UNL     1       2.351   4.608  20.879  0.00  0.00    +0.000 A 
ATOM     20  C   UNL     1       3.239   4.987  19.868  0.00  0.00    +0.000 A 
ENDBRANCH   5  15
BRANCH   6  21
ATOM     21  N   UNL     1       3.698   4.212  16.284  0.00  0.00    +0.000 N 
ATOM     22  H   UNL     1       3.818   3.955  15.307  0.00  0.00    +0.000 HD
ATOM     23  H   UNL     1       3.203   3.484  16.795  0.00  0.00    +0.000 HD
ENDBRANCH   6  21
TORSDOF 4
ENDMDL
MODEL 2
REMARK VINA RESULT:      -7.3      0.131      1.058
REMARK  Name = 
REMARK  5 active torsions:
REMARK  status: ('A' for Active; 'I' for Inactive)
REMARK    1  A    between atoms: C_1  and  O_2
REMARK    2  A    between atoms: O_2  and  C_3
REMARK    3  A    between atoms: C_7  and  N_8
REMARK    4  A    between atoms: C_12  and  C_13
REMARK    5  A    between atoms: C_19  and  N_20
REMARK                            x       y       z     vdW  Elec       q    Type
REMARK                         _______ _______ _______ _____ _____    ______ ____
ROOT
ATOM      1  N   UNL     1       5.998   4.963  16.330  0.00  0.00    +0.000 N 
ATOM      2  C   UNL     1       7.036   5.398  17.267  0.00  0.00    +0.000 C 
ATOM      3  C   UNL     1       6.392   5.034  18.583  0.00  0.00    +0.000 C 
ATOM      4  O   UNL     1       6.920   5.191  19.679  0.00  0.00    +0.000 OA
ATOM      5  C   UNL     1       5.023   4.480  18.359  0.00  0.00    +0.000 C 
ATOM      6  C   UNL     1       4.866   4.503  17.011  0.00  0.00    +0.000 C 
ENDROOT
BRANCH   1  11
ATOM      7  C   UNL     1       6.085   3.553  12.853  0.00  0.00    +0.000 A 
ATOM      8  C   UNL     1       7.193   4.213  12.329  0.00  0.00    +0.000 A 
ATOM      9  C   UNL     1       7.905   5.114  13.114  0.00  0.00    +0.000 A 
ATOM     10  C   UNL     1       7.501   5.367  14.429  0.00  0.00    +0.000 A 
ATOM     11  C   UNL     1       6.390   4.719  14.997  0.00  0.00    +0.000 A 
ATOM     12  C   UNL     1       5.702   3.805  14.175  0.00  0.00    +0.000 A 
BRANCH   7  14
ATOM     13  C   UNL     1       4.282   3.147  11.360  0.00  0.00    +0.000 C 
ATOM     14  O   UNL     1       5.469   2.683  11.994  0.00  0.00    +0.000 OA
ENDBRANCH   7  14
ENDBRANCH   1  11
BRANCH   5  15
ATOM     15  C   UNL     1       4.083   4.066  19.411  0.00  0.00    +0.000 A 
ATOM     16  C   UNL     1       3.141   4.965  19.941  0.00  0.00    +0.000 A 
ATOM     17  C   UNL     1       2.266   4.578  20.959  0.00  0.00    +0.000 A 
ATOM     18  C   UNL     1       2.296   3.273  21.442  0.00  0.00    +0.000 A 
ATOM     19  C   UNL     1       3.196   2.358  20.906  0.00  0.00    +0.000 A 
ATOM     20  C   UNL     1       4.084   2.752  19.901  0.00  0.00    +0.000 A 
ENDBRANCH   5  15
BRANCH   6  21
ATOM     21  N   UNL     1       3.688   4.194  16.364  0.00  0.00    +0.000 N 
ATOM     22  H   UNL     1       3.223   3.382  16.763  0.00  0.00    +0.000 HD
ATOM     23  H   UNL     1       3.071   5.003  16.360  0.00  0.00    +0.000 HD
ENDBRANCH   6  21
TORSDOF 4
ENDMDL
MODEL 3
REMARK VINA RESULT:      -7.3      1.936      6.978
REMARK  Name = 
REMARK  5 active torsions:
REMARK  status: ('A' for Active; 'I' for Inactive)
REMARK    1  A    between atoms: C_1  and  O_2
REMARK    2  A    between atoms: O_2  and  C_3
REMARK    3  A    between atoms: C_7  and  N_8
REMARK    4  A    between atoms: C_12  and  C_13
REMARK    5  A    between atoms: C_19  and  N_20
REMARK                            x       y       z     vdW  Elec       q    Type
REMARK                         _______ _______ _______ _____ _____    ______ ____
ROOT
ATOM      1  N   UNL     1       4.979   5.253  17.965  0.00  0.00    +0.000 N 
ATOM      2  C   UNL     1       6.145   6.128  18.116  0.00  0.00    +0.000 C 
ATOM      3  C   UNL     1       6.751   6.022  16.737  0.00  0.00    +0.000 C 
ATOM      4  O   UNL     1       7.756   6.624  16.375  0.00  0.00    +0.000 OA
ATOM      5  C   UNL     1       5.969   5.069  15.894  0.00  0.00    +0.000 C 
ATOM      6  C   UNL     1       4.966   4.646  16.705  0.00  0.00    +0.000 C 
ENDROOT
BRANCH   1  11
ATOM      7  C   UNL     1       2.546   4.623  20.752  0.00  0.00    +0.000 A 
ATOM      8  C   UNL     1       1.767   5.774  20.686  0.00  0.00    +0.000 A 
ATOM      9  C   UNL     1       2.040   6.750  19.733  0.00  0.00    +0.000 A 
ATOM     10  C   UNL     1       3.107   6.579  18.844  0.00  0.00    +0.000 A 
ATOM     11  C   UNL     1       3.916   5.430  18.875  0.00  0.00    +0.000 A 
ATOM     12  C   UNL     1       3.601   4.459  19.847  0.00  0.00    +0.000 A 
BRANCH   7  14
ATOM     13  C   UNL     1       1.325   2.664  21.317  0.00  0.00    +0.000 C 
ATOM     14  O   UNL     1       2.179   3.729  21.722  0.00  0.00    +0.000 OA
ENDBRANCH   7  14
ENDBRANCH   1  11
BRANCH   5  15
ATOM     15  C   UNL     1       6.294   4.680  14.514  0.00  0.00    +0.000 A 
ATOM     16  C   UNL     1       5.475   3.792  13.797  0.00  0.00    +0.000 A 
ATOM     17  C   UNL     1       5.798   3.402  12.494  0.00  0.00    +0.000 A 
ATOM     18  C   UNL     1       6.932   3.920  11.875  0.00  0.00    +0.000 A 
ATOM     19  C   UNL     1       7.736   4.829  12.555  0.00  0.00    +0.000 A 
ATOM     20  C   UNL     1       7.421   5.203  13.865  0.00  0.00    +0.000 A 
ENDBRANCH   5  15
BRANCH   6  21
ATOM     21  N   UNL     1       4.069   3.652  16.373  0.00  0.00    +0.000 N 
ATOM     22  H   UNL     1       3.295   3.588  17.029  0.00  0.00    +0.000 HD
ATOM     23  H   UNL     1       3.732   3.792  15.423  0.00  0.00    +0.000 HD
ENDBRANCH   6  21
TORSDOF 4
ENDMDL
MODEL 4
REMARK VINA RESULT:      -7.2      1.925      6.982
REMARK  Name = 
REMARK  5 active torsions:
REMARK  status: ('A' for Active; 'I' for Inactive)
REMARK    1  A    between atoms: C_1  and  O_2
REMARK    2  A    between atoms: O_2  and  C_3
REMARK    3  A    between atoms: C_7  and  N_8
REMARK    4  A    between atoms: C_12  and  C_13
REMARK    5  A    between atoms: C_19  and  N_20
REMARK                            x       y       z     vdW  Elec       q    Type
REMARK                         _______ _______ _______ _____ _____    ______ ____
ROOT
ATOM      1  N   UNL     1       4.975   5.297  17.968  0.00  0.00    +0.000 N 
ATOM      2  C   UNL     1       6.166   6.133  18.138  0.00  0.00    +0.000 C 
ATOM      3  C   UNL     1       6.785   6.017  16.766  0.00  0.00    +0.000 C 
ATOM      4  O   UNL     1       7.813   6.589  16.420  0.00  0.00    +0.000 OA
ATOM      5  C   UNL     1       5.983   5.095  15.908  0.00  0.00    +0.000 C 
ATOM      6  C   UNL     1       4.957   4.698  16.704  0.00  0.00    +0.000 C 
ENDROOT
BRANCH   1  11
ATOM      7  C   UNL     1       2.481   4.720  20.712  0.00  0.00    +0.000 A 
ATOM      8  C   UNL     1       1.748   5.903  20.654  0.00  0.00    +0.000 A 
ATOM      9  C   UNL     1       2.072   6.881  19.720  0.00  0.00    +0.000 A 
ATOM     10  C   UNL     1       3.144   6.682  18.843  0.00  0.00    +0.000 A 
ATOM     11  C   UNL     1       3.907   5.501  18.867  0.00  0.00    +0.000 A 
ATOM     12  C   UNL     1       3.540   4.529  19.818  0.00  0.00    +0.000 A 
BRANCH   7  14
ATOM     13  C   UNL     1       1.565   2.581  21.191  0.00  0.00    +0.000 C 
ATOM     14  O   UNL     1       2.065   3.827  21.663  0.00  0.00    +0.000 OA
ENDBRANCH   7  14
ENDBRANCH   1  11
BRANCH   5  15
ATOM     15  C   UNL     1       6.312   4.704  14.529  0.00  0.00    +0.000 A 
ATOM     16  C   UNL     1       7.427   5.242  13.866  0.00  0.00    +0.000 A 
ATOM     17  C   UNL     1       7.724   4.890  12.546  0.00  0.00    +0.000 A 
ATOM     18  C   UNL     1       6.925   3.967  11.878  0.00  0.00    +0.000 A 
ATOM     19  C   UNL     1       5.837   3.395  12.528  0.00  0.00    +0.000 A 
ATOM     20  C   UNL     1       5.531   3.763  13.843  0.00  0.00    +0.000 A 
ENDBRANCH   5  15
BRANCH   6  21
ATOM     21  N   UNL     1       4.033   3.736  16.354  0.00  0.00    +0.000 N 
ATOM     22  H   UNL     1       4.067   2.921  16.961  0.00  0.00    +0.000 HD
ATOM     23  H   UNL     1       3.100   4.141  16.336  0.00  0.00    +0.000 HD
ENDBRANCH   6  21
TORSDOF 4
ENDMDL
MODEL 5
REMARK VINA RESULT:      -7.1      1.854      7.015
REMARK  Name = 
REMARK  5 active torsions:
REMARK  status: ('A' for Active; 'I' for Inactive)
REMARK    1  A    between atoms: C_1  and  O_2
REMARK    2  A    between atoms: O_2  and  C_3
REMARK    3  A    between atoms: C_7  and  N_8
REMARK    4  A    between atoms: C_12  and  C_13
REMARK    5  A    between atoms: C_19  and  N_20
REMARK                            x       y       z     vdW  Elec       q    Type
REMARK                         _______ _______ _______ _____ _____    ______ ____
ROOT
ATOM      1  N   UNL     1       5.227   4.588  18.166  0.00  0.00    +0.000 N 
ATOM      2  C   UNL     1       6.154   5.708  18.341  0.00  0.00    +0.000 C 
ATOM      3  C   UNL     1       6.693   5.844  16.937  0.00  0.00    +0.000 C 
ATOM      4  O   UNL     1       7.502   6.696  16.586  0.00  0.00    +0.000 OA
ATOM      5  C   UNL     1       6.120   4.786  16.053  0.00  0.00    +0.000 C 
ATOM      6  C   UNL     1       5.293   4.079  16.865  0.00  0.00    +0.000 C 
ENDROOT
BRANCH   1  11
ATOM      7  C   UNL     1       2.337   5.370  20.428  0.00  0.00    +0.000 A 
ATOM      8  C   UNL     1       2.163   4.146  21.067  0.00  0.00    +0.000 A 
ATOM      9  C   UNL     1       2.991   3.072  20.755  0.00  0.00    +0.000 A 
ATOM     10  C   UNL     1       3.993   3.219  19.791  0.00  0.00    +0.000 A 
ATOM     11  C   UNL     1       4.203   4.439  19.125  0.00  0.00    +0.000 A 
ATOM     12  C   UNL     1       3.353   5.506  19.476  0.00  0.00    +0.000 A 
BRANCH   7  14
ATOM     13  C   UNL     1       1.773   7.678  20.387  0.00  0.00    +0.000 C 
ATOM     14  O   UNL     1       1.472   6.357  20.821  0.00  0.00    +0.000 OA
ENDBRANCH   7  14
ENDBRANCH   1  11
BRANCH   5  15
ATOM     15  C   UNL     1       6.454   4.579  14.636  0.00  0.00    +0.000 A 
ATOM     16  C   UNL     1       5.689   3.725  13.825  0.00  0.00    +0.000 A 
ATOM     17  C   UNL     1       6.023   3.508  12.485  0.00  0.00    +0.000 A 
ATOM     18  C   UNL     1       7.112   4.169  11.926  0.00  0.00    +0.000 A 
ATOM     19  C   UNL     1       7.862   5.047  12.702  0.00  0.00    +0.000 A 
ATOM     20  C   UNL     1       7.537   5.248  14.047  0.00  0.00    +0.000 A 
ENDBRANCH   5  15
BRANCH   6  21
ATOM     21  N   UNL     1       4.646   2.920  16.490  0.00  0.00    +0.000 N 
ATOM     22  H   UNL     1       5.189   2.085  16.693  0.00  0.00    +0.000 HD
ATOM     23  H   UNL     1       3.729   2.876  16.929  0.00  0.00    +0.000 HD
ENDBRANCH   6  21
TORSDOF 4
ENDMDL
MODEL 6
REMARK VINA RESULT:      -7.1      1.857      7.038
REMARK  Name = 
REMARK  5 active torsions:
REMARK  status: ('A' for Active; 'I' for Inactive)
REMARK    1  A    between atoms: C_1  and  O_2
REMARK    2  A    between atoms: O_2  and  C_3
REMARK    3  A    between atoms: C_7  and  N_8
REMARK    4  A    between atoms: C_12  and  C_13
REMARK    5  A    between atoms: C_19  and  N_20
REMARK                            x       y       z     vdW  Elec       q    Type
REMARK                         _______ _______ _______ _____ _____    ______ ____
ROOT
ATOM      1  N   UNL     1       5.236   4.582  18.175  0.00  0.00    +0.000 N 
ATOM      2  C   UNL     1       6.170   5.695  18.363  0.00  0.00    +0.000 C 
ATOM      3  C   UNL     1       6.715   5.839  16.962  0.00  0.00    +0.000 C 
ATOM      4  O   UNL     1       7.531   6.688  16.621  0.00  0.00    +0.000 OA
ATOM      5  C   UNL     1       6.137   4.792  16.067  0.00  0.00    +0.000 C 
ATOM      6  C   UNL     1       5.303   4.084  16.870  0.00  0.00    +0.000 C 
ENDROOT
BRANCH   1  11
ATOM      7  C   UNL     1       2.343   5.366  20.433  0.00  0.00    +0.000 A 
ATOM      8  C   UNL     1       2.159   4.138  21.062  0.00  0.00    +0.000 A 
ATOM      9  C   UNL     1       2.981   3.061  20.745  0.00  0.00    +0.000 A 
ATOM     10  C   UNL     1       3.988   3.209  19.785  0.00  0.00    +0.000 A 
ATOM     11  C   UNL     1       4.207   4.433  19.129  0.00  0.00    +0.000 A 
ATOM     12  C   UNL     1       3.363   5.503  19.485  0.00  0.00    +0.000 A 
BRANCH   7  14
ATOM     13  C   UNL     1       1.782   7.675  20.391  0.00  0.00    +0.000 C 
ATOM     14  O   UNL     1       1.482   6.355  20.831  0.00  0.00    +0.000 OA
ENDBRANCH   7  14
ENDBRANCH   1  11
BRANCH   5  15
ATOM     15  C   UNL     1       6.475   4.595  14.650  0.00  0.00    +0.000 A 
ATOM     16  C   UNL     1       7.563   5.259  14.061  0.00  0.00    +0.000 A 
ATOM     17  C   UNL     1       7.868   5.091  12.707  0.00  0.00    +0.000 A 
ATOM     18  C   UNL     1       7.105   4.228  11.926  0.00  0.00    +0.000 A 
ATOM     19  C   UNL     1       6.045   3.533  12.498  0.00  0.00    +0.000 A 
ATOM     20  C   UNL     1       5.730   3.717  13.848  0.00  0.00    +0.000 A 
ENDBRANCH   5  15
BRANCH   6  21
ATOM     21  N   UNL     1       4.648   2.933  16.483  0.00  0.00    +0.000 N 
ATOM     22  H   UNL     1       3.805   3.124  15.948  0.00  0.00    +0.000 HD
ATOM     23  H   UNL     1       5.283   2.331  15.963  0.00  0.00    +0.000 HD
ENDBRANCH   6  21
TORSDOF 4
ENDMDL
MODEL 7
REMARK VINA RESULT:      -7.1      1.870      7.057
REMARK  Name = 
REMARK  5 active torsions:
REMARK  status: ('A' for Active; 'I' for Inactive)
REMARK    1  A    between atoms: C_1  and  O_2
REMARK    2  A    between atoms: O_2  and  C_3
REMARK    3  A    between atoms: C_7  and  N_8
REMARK    4  A    between atoms: C_12  and  C_13
REMARK    5  A    between atoms: C_19  and  N_20
REMARK                            x       y       z     vdW  Elec       q    Type
REMARK                         _______ _______ _______ _____ _____    ______ ____
ROOT
ATOM      1  N   UNL     1       4.802   4.415  18.059  0.00  0.00    +0.000 N 
ATOM      2  C   UNL     1       6.184   4.460  18.542  0.00  0.00    +0.000 C 
ATOM      3  C   UNL     1       6.936   4.477  17.233  0.00  0.00    +0.000 C 
ATOM      4  O   UNL     1       8.156   4.545  17.136  0.00  0.00    +0.000 OA
ATOM      5  C   UNL     1       5.986   4.378  16.084  0.00  0.00    +0.000 C 
ATOM      6  C   UNL     1       4.760   4.318  16.664  0.00  0.00    +0.000 C 
ENDROOT
BRANCH   1  11
ATOM      7  C   UNL     1       2.342   6.596  19.869  0.00  0.00    +0.000 A 
ATOM      8  C   UNL     1       1.779   5.680  20.753  0.00  0.00    +0.000 A 
ATOM      9  C   UNL     1       2.205   4.356  20.752  0.00  0.00    +0.000 A 
ATOM     10  C   UNL     1       3.194   3.940  19.855  0.00  0.00    +0.000 A 
ATOM     11  C   UNL     1       3.791   4.834  18.949  0.00  0.00    +0.000 A 
ATOM     12  C   UNL     1       3.342   6.169  18.988  0.00  0.00    +0.000 A 
BRANCH   7  14
ATOM     13  C   UNL     1       1.171   8.202  21.171  0.00  0.00    +0.000 C 
ATOM     14  O   UNL     1       1.853   7.871  19.966  0.00  0.00    +0.000 OA
ENDBRANCH   7  14
ENDBRANCH   1  11
BRANCH   5  15
ATOM     15  C   UNL     1       6.361   4.315  14.664  0.00  0.00    +0.000 A 
ATOM     16  C   UNL     1       5.724   3.428  13.781  0.00  0.00    +0.000 A 
ATOM     17  C   UNL     1       6.099   3.350  12.437  0.00  0.00    +0.000 A 
ATOM     18  C   UNL     1       7.099   4.185  11.946  0.00  0.00    +0.000 A 
ATOM     19  C   UNL     1       7.717   5.096  12.796  0.00  0.00    +0.000 A 
ATOM     20  C   UNL     1       7.353   5.159  14.144  0.00  0.00    +0.000 A 
ENDBRANCH   5  15
BRANCH   6  21
ATOM     21  N   UNL     1       3.587   4.092  15.973  0.00  0.00    +0.000 N 
ATOM     22  H   UNL     1       3.744   3.917  14.984  0.00  0.00    +0.000 HD
ATOM     23  H   UNL     1       3.073   3.327  16.403  0.00  0.00    +0.000 HD
ENDBRANCH   6  21
TORSDOF 4
ENDMDL
MODEL 8
REMARK VINA RESULT:      -7.1      4.157      8.104
REMARK  Name = 
REMARK  5 active torsions:
REMARK  status: ('A' for Active; 'I' for Inactive)
REMARK    1  A    between atoms: C_1  and  O_2
REMARK    2  A    between atoms: O_2  and  C_3
REMARK    3  A    between atoms: C_7  and  N_8
REMARK    4  A    between atoms: C_12  and  C_13
REMARK    5  A    between atoms: C_19  and  N_20
REMARK                            x       y       z     vdW  Elec       q    Type
REMARK                         _______ _______ _______ _____ _____    ______ ____
ROOT
ATOM      1  N   UNL     1       2.139   7.147  19.456  0.00  0.00    +0.000 N 
ATOM      2  C   UNL     1       2.014   5.956  20.299  0.00  0.00    +0.000 C 
ATOM      3  C   UNL     1       3.157   5.122  19.772  0.00  0.00    +0.000 C 
ATOM      4  O   UNL     1       3.468   4.019  20.209  0.00  0.00    +0.000 OA
ATOM      5  C   UNL     1       3.833   5.820  18.638  0.00  0.00    +0.000 C 
ATOM      6  C   UNL     1       3.151   6.986  18.504  0.00  0.00    +0.000 C 
ENDROOT
BRANCH   1  11
ATOM      7  C   UNL     1       0.643   9.701  21.763  0.00  0.00    +0.000 A 
ATOM      8  C   UNL     1       0.335  10.719  20.865  0.00  0.00    +0.000 A 
ATOM      9  C   UNL     1       0.617  10.566  19.512  0.00  0.00    +0.000 A 
ATOM     10  C   UNL     1       1.222   9.391  19.052  0.00  0.00    +0.000 A 
ATOM     11  C   UNL     1       1.546   8.338  19.926  0.00  0.00    +0.000 A 
ATOM     12  C   UNL     1       1.234   8.526  21.287  0.00  0.00    +0.000 A 
BRANCH   7  14
ATOM     13  C   UNL     1      -0.975  10.524  23.296  0.00  0.00    +0.000 C 
ATOM     14  O   UNL     1       0.310   9.958  23.066  0.00  0.00    +0.000 OA
ENDBRANCH   7  14
ENDBRANCH   1  11
BRANCH   5  15
ATOM     15  C   UNL     1       4.953   5.286  17.848  0.00  0.00    +0.000 A 
ATOM     16  C   UNL     1       6.279   5.402  18.297  0.00  0.00    +0.000 A 
ATOM     17  C   UNL     1       7.345   4.918  17.533  0.00  0.00    +0.000 A 
ATOM     18  C   UNL     1       7.099   4.280  16.321  0.00  0.00    +0.000 A 
ATOM     19  C   UNL     1       5.790   4.124  15.876  0.00  0.00    +0.000 A 
ATOM     20  C   UNL     1       4.726   4.625  16.633  0.00  0.00    +0.000 A 
ENDBRANCH   5  15
BRANCH   6  21
ATOM     21  N   UNL     1       3.360   7.892  17.485  0.00  0.00    +0.000 N 
ATOM     22  H   UNL     1       3.092   8.839  17.742  0.00  0.00    +0.000 HD
ATOM     23  H   UNL     1       4.331   7.856  17.182  0.00  0.00    +0.000 HD
ENDBRANCH   6  21
TORSDOF 4
ENDMDL
MODEL 9
REMARK VINA RESULT:      -7.1      5.086      7.269
REMARK  Name = 
REMARK  5 active torsions:
REMARK  status: ('A' for Active; 'I' for Inactive)
REMARK    1  A    between atoms: C_1  and  O_2
REMARK    2  A    between atoms: O_2  and  C_3
REMARK    3  A    between atoms: C_7  and  N_8
REMARK    4  A    between atoms: C_12  and  C_13
REMARK    5  A    between atoms: C_19  and  N_20
REMARK                            x       y       z     vdW  Elec       q    Type
REMARK                         _______ _______ _______ _____ _____    ______ ____
ROOT
ATOM      1  N   UNL     1       2.374   7.236  19.432  0.00  0.00    +0.000 N 
ATOM      2  C   UNL     1       1.803   7.210  20.781  0.00  0.00    +0.000 C 
ATOM      3  C   UNL     1       0.935   8.446  20.737  0.00  0.00    +0.000 C 
ATOM      4  O   UNL     1       0.222   8.823  21.661  0.00  0.00    +0.000 OA
ATOM      5  C   UNL     1       1.089   9.146  19.427  0.00  0.00    +0.000 C 
ATOM      6  C   UNL     1       1.973   8.381  18.737  0.00  0.00    +0.000 C 
ENDROOT
BRANCH   1  11
ATOM      7  C   UNL     1       4.751   4.457  18.589  0.00  0.00    +0.000 A 
ATOM      8  C   UNL     1       3.914   3.600  17.880  0.00  0.00    +0.000 A 
ATOM      9  C   UNL     1       2.578   3.934  17.682  0.00  0.00    +0.000 A 
ATOM     10  C   UNL     1       2.072   5.129  18.205  0.00  0.00    +0.000 A 
ATOM     11  C   UNL     1       2.885   6.023  18.923  0.00  0.00    +0.000 A 
ATOM     12  C   UNL     1       4.234   5.655  19.093  0.00  0.00    +0.000 A 
BRANCH   7  14
ATOM     13  C   UNL     1       7.026   4.742  17.966  0.00  0.00    +0.000 C 
ATOM     14  O   UNL     1       6.047   4.030  18.712  0.00  0.00    +0.000 OA
ENDBRANCH   7  14
ENDBRANCH   1  11
BRANCH   5  15
ATOM     15  C   UNL     1       0.437  10.408  19.048  0.00  0.00    +0.000 A 
ATOM     16  C   UNL     1       1.094  11.640  19.197  0.00  0.00    +0.000 A 
ATOM     17  C   UNL     1       0.464  12.841  18.860  0.00  0.00    +0.000 A 
ATOM     18  C   UNL     1      -0.826  12.827  18.338  0.00  0.00    +0.000 A 
ATOM     19  C   UNL     1      -1.481  11.614  18.149  0.00  0.00    +0.000 A 
ATOM     20  C   UNL     1      -0.856  10.415  18.504  0.00  0.00    +0.000 A 
ENDBRANCH   5  15
BRANCH   6  21
ATOM     21  N   UNL     1       2.503   8.726  17.512  0.00  0.00    +0.000 N 
ATOM     22  H   UNL     1       2.042   8.255  16.738  0.00  0.00    +0.000 HD
ATOM     23  H   UNL     1       2.475   9.737  17.393  0.00  0.00    +0.000 HD
ENDBRANCH   6  21
TORSDOF 4
ENDMDL
