MODEL 1
REMARK VINA RESULT:      -7.3      0.000      0.000
REMARK  Name = 
REMARK  8 active torsions:
REMARK  status: ('A' for Active; 'I' for Inactive)
REMARK    1  A    between atoms: C_1  and  O_2
REMARK    2  A    between atoms: O_2  and  C_3
REMARK    3  A    between atoms: C_5  and  O_6
REMARK    4  A    between atoms: O_6  and  C_7
REMARK    5  A    between atoms: C_13  and  O_14
REMARK    6  A    between atoms: C_15  and  C_16
REMARK    7  A    between atoms: C_16  and  C_17
REMARK    8  A    between atoms: C_17  and  C_18
REMARK                            x       y       z     vdW  Elec       q    Type
REMARK                         _______ _______ _______ _____ _____    ______ ____
ROOT
ATOM      1  C   UNL     1       5.963   4.049  14.940  0.00  0.00    +0.000 A 
ATOM      2  C   UNL     1       6.498   5.250  15.394  0.00  0.00    +0.000 A 
ATOM      3  C   UNL     1       5.964   5.946  16.501  0.00  0.00    +0.000 A 
ATOM      4  C   UNL     1       4.856   5.401  17.171  0.00  0.00    +0.000 A 
ATOM      5  C   UNL     1       4.281   4.222  16.667  0.00  0.00    +0.000 A 
ATOM      6  C   UNL     1       4.837   3.543  15.574  0.00  0.00    +0.000 A 
ATOM      7  C   UNL     1       3.052   3.675  17.278  0.00  0.00    +0.000 C 
ATOM      8  O   UNL     1       2.586   2.583  16.978  0.00  0.00    +0.000 OA
ATOM      9  C   UNL     1       2.311   4.545  18.233  0.00  0.00    +0.000 C 
ATOM     10  C   UNL     1       2.864   5.642  18.762  0.00  0.00    +0.000 C 
ATOM     11  C   UNL     1       4.300   5.887  18.457  0.00  0.00    +0.000 C 
ATOM     12  O   UNL     1       5.020   6.382  19.313  0.00  0.00    +0.000 OA
ENDROOT
BRANCH   1  14
ATOM     13  C   UNL     1       5.885   3.566  12.615  0.00  0.00    +0.000 C 
ATOM     14  O   UNL     1       6.443   3.304  13.900  0.00  0.00    +0.000 OA
ENDBRANCH   1  14
BRANCH   3  15
ATOM     15  O   UNL     1       6.679   7.093  16.691  0.00  0.00    +0.000 OA
ATOM     16  C   UNL     1       7.701   7.210  17.660  0.00  0.00    +0.000 C 
ENDBRANCH   3  15
BRANCH   9  17
ATOM     17  O   UNL     1       1.053   4.103  18.611  0.00  0.00    +0.000 OA
ATOM     18  H   UNL     1       0.453   4.374  17.881  0.00  0.00    +0.000 HD
ENDBRANCH   9  17
BRANCH  10  19
ATOM     19  C   UNL     1       2.173   6.525  19.786  0.00  0.00    +0.000 C 
BRANCH  19  20
ATOM     20  C   UNL     1       2.056   8.010  19.400  0.00  0.00    +0.000 C 
BRANCH  20  21
ATOM     21  C   UNL     1       1.122   8.803  20.291  0.00  0.00    +0.000 A 
ATOM     22  C   UNL     1       1.094   8.562  21.674  0.00  0.00    +0.000 A 
ATOM     23  C   UNL     1       0.295   9.342  22.517  0.00  0.00    +0.000 A 
ATOM     24  C   UNL     1      -0.491  10.358  21.977  0.00  0.00    +0.000 A 
ATOM     25 BR   UNL     1      -1.542  11.438  23.116  0.00  0.00    +0.000 Br
ATOM     26  C   UNL     1      -0.493  10.592  20.603  0.00  0.00    +0.000 A 
ATOM     27  C   UNL     1       0.309   9.814  19.762  0.00  0.00    +0.000 A 
ENDBRANCH  20  21
ENDBRANCH  19  20
ENDBRANCH  10  19
TORSDOF 6
ENDMDL
MODEL 2
REMARK VINA RESULT:      -7.2      3.979      6.894
REMARK  Name = 
REMARK  8 active torsions:
REMARK  status: ('A' for Active; 'I' for Inactive)
REMARK    1  A    between atoms: C_1  and  O_2
REMARK    2  A    between atoms: O_2  and  C_3
REMARK    3  A    between atoms: C_5  and  O_6
REMARK    4  A    between atoms: O_6  and  C_7
REMARK    5  A    between atoms: C_13  and  O_14
REMARK    6  A    between atoms: C_15  and  C_16
REMARK    7  A    between atoms: C_16  and  C_17
REMARK    8  A    between atoms: C_17  and  C_18
REMARK                            x       y       z     vdW  Elec       q    Type
REMARK                         _______ _______ _______ _____ _____    ______ ____
ROOT
ATOM      1  C   UNL     1       2.312   4.853  18.545  0.00  0.00    +0.000 A 
ATOM      2  C   UNL     1       2.176   6.073  17.892  0.00  0.00    +0.000 A 
ATOM      3  C   UNL     1       3.286   6.874  17.546  0.00  0.00    +0.000 A 
ATOM      4  C   UNL     1       4.575   6.419  17.869  0.00  0.00    +0.000 A 
ATOM      5  C   UNL     1       4.701   5.217  18.586  0.00  0.00    +0.000 A 
ATOM      6  C   UNL     1       3.584   4.433  18.908  0.00  0.00    +0.000 A 
ATOM      7  C   UNL     1       6.030   4.757  19.037  0.00  0.00    +0.000 C 
ATOM      8  O   UNL     1       6.222   3.656  19.539  0.00  0.00    +0.000 OA
ATOM      9  C   UNL     1       7.159   5.724  18.952  0.00  0.00    +0.000 C 
ATOM     10  C   UNL     1       7.073   6.847  18.230  0.00  0.00    +0.000 C 
ATOM     11  C   UNL     1       5.846   7.027  17.407  0.00  0.00    +0.000 C 
ATOM     12  O   UNL     1       5.929   7.573  16.316  0.00  0.00    +0.000 OA
ENDROOT
BRANCH   1  14
ATOM     13  C   UNL     1       0.928   3.963  20.261  0.00  0.00    +0.000 C 
ATOM     14  O   UNL     1       1.291   4.010  18.883  0.00  0.00    +0.000 OA
ENDBRANCH   1  14
BRANCH   3  15
ATOM     15  O   UNL     1       2.839   8.014  16.941  0.00  0.00    +0.000 OA
ATOM     16  C   UNL     1       2.232   9.073  17.653  0.00  0.00    +0.000 C 
ENDBRANCH   3  15
BRANCH   9  17
ATOM     17  O   UNL     1       8.332   5.350  19.588  0.00  0.00    +0.000 OA
ATOM     18  H   UNL     1       8.162   5.485  20.547  0.00  0.00    +0.000 HD
ENDBRANCH   9  17
BRANCH  10  19
ATOM     19  C   UNL     1       8.217   7.832  18.062  0.00  0.00    +0.000 C 
BRANCH  19  20
ATOM     20  C   UNL     1       7.801   9.256  17.653  0.00  0.00    +0.000 C 
BRANCH  20  21
ATOM     21  C   UNL     1       8.636  10.345  18.294  0.00  0.00    +0.000 A 
ATOM     22  C   UNL     1       8.696  11.622  17.712  0.00  0.00    +0.000 A 
ATOM     23  C   UNL     1       9.399  12.657  18.337  0.00  0.00    +0.000 A 
ATOM     24  C   UNL     1      10.057  12.416  19.541  0.00  0.00    +0.000 A 
ATOM     25 BR   UNL     1      10.975  13.822  20.408  0.00  0.00    +0.000 Br
ATOM     26  C   UNL     1      10.028  11.148  20.118  0.00  0.00    +0.000 A 
ATOM     27  C   UNL     1       9.321  10.114  19.494  0.00  0.00    +0.000 A 
ENDBRANCH  20  21
ENDBRANCH  19  20
ENDBRANCH  10  19
TORSDOF 6
ENDMDL
MODEL 3
REMARK VINA RESULT:      -7.2      1.359      1.826
REMARK  Name = 
REMARK  8 active torsions:
REMARK  status: ('A' for Active; 'I' for Inactive)
REMARK    1  A    between atoms: C_1  and  O_2
REMARK    2  A    between atoms: O_2  and  C_3
REMARK    3  A    between atoms: C_5  and  O_6
REMARK    4  A    between atoms: O_6  and  C_7
REMARK    5  A    between atoms: C_13  and  O_14
REMARK    6  A    between atoms: C_15  and  C_16
REMARK    7  A    between atoms: C_16  and  C_17
REMARK    8  A    between atoms: C_17  and  C_18
REMARK                            x       y       z     vdW  Elec       q    Type
REMARK                         _______ _______ _______ _____ _____    ______ ____
ROOT
ATOM      1  C   UNL     1       6.289   4.217  14.701  0.00  0.00    +0.000 A 
ATOM      2  C   UNL     1       7.090   5.059  15.466  0.00  0.00    +0.000 A 
ATOM      3  C   UNL     1       6.745   5.442  16.781  0.00  0.00    +0.000 A 
ATOM      4  C   UNL     1       5.553   4.950  17.338  0.00  0.00    +0.000 A 
ATOM      5  C   UNL     1       4.718   4.153  16.536  0.00  0.00    +0.000 A 
ATOM      6  C   UNL     1       5.088   3.776  15.238  0.00  0.00    +0.000 A 
ATOM      7  C   UNL     1       3.407   3.704  17.047  0.00  0.00    +0.000 C 
ATOM      8  O   UNL     1       2.700   2.896  16.456  0.00  0.00    +0.000 OA
ATOM      9  C   UNL     1       2.898   4.341  18.293  0.00  0.00    +0.000 C 
ATOM     10  C   UNL     1       3.693   5.059  19.094  0.00  0.00    +0.000 C 
ATOM     11  C   UNL     1       5.142   5.085  18.756  0.00  0.00    +0.000 C 
ATOM     12  O   UNL     1       5.969   5.106  19.658  0.00  0.00    +0.000 OA
ENDROOT
BRANCH   1  14
ATOM     13  C   UNL     1       5.458   3.488  12.598  0.00  0.00    +0.000 C 
ATOM     14  O   UNL     1       6.572   3.777  13.439  0.00  0.00    +0.000 OA
ENDBRANCH   1  14
BRANCH   3  15
ATOM     15  O   UNL     1       7.705   6.285  17.263  0.00  0.00    +0.000 OA
ATOM     16  C   UNL     1       7.482   7.665  17.469  0.00  0.00    +0.000 C 
ENDBRANCH   3  15
BRANCH   9  17
ATOM     17  O   UNL     1       1.578   4.072  18.621  0.00  0.00    +0.000 OA
ATOM     18  H   UNL     1       1.469   3.104  18.487  0.00  0.00    +0.000 HD
ENDBRANCH   9  17
BRANCH  10  19
ATOM     19  C   UNL     1       3.236   5.674  20.405  0.00  0.00    +0.000 C 
BRANCH  19  20
ATOM     20  C   UNL     1       1.772   6.147  20.433  0.00  0.00    +0.000 C 
BRANCH  20  21
ATOM     21  C   UNL     1       1.596   7.614  20.100  0.00  0.00    +0.000 A 
ATOM     22  C   UNL     1       1.929   8.092  18.822  0.00  0.00    +0.000 A 
ATOM     23  C   UNL     1       1.696   9.428  18.478  0.00  0.00    +0.000 A 
ATOM     24  C   UNL     1       1.141  10.295  19.416  0.00  0.00    +0.000 A 
ATOM     25 BR   UNL     1       0.789  12.090  18.942  0.00  0.00    +0.000 Br
ATOM     26  C   UNL     1       0.829   9.842  20.697  0.00  0.00    +0.000 A 
ATOM     27  C   UNL     1       1.059   8.505  21.038  0.00  0.00    +0.000 A 
ENDBRANCH  20  21
ENDBRANCH  19  20
ENDBRANCH  10  19
TORSDOF 6
ENDMDL
MODEL 4
REMARK VINA RESULT:      -7.2      3.373      6.545
REMARK  Name = 
REMARK  8 active torsions:
REMARK  status: ('A' for Active; 'I' for Inactive)
REMARK    1  A    between atoms: C_1  and  O_2
REMARK    2  A    between atoms: O_2  and  C_3
REMARK    3  A    between atoms: C_5  and  O_6
REMARK    4  A    between atoms: O_6  and  C_7
REMARK    5  A    between atoms: C_13  and  O_14
REMARK    6  A    between atoms: C_15  and  C_16
REMARK    7  A    between atoms: C_16  and  C_17
REMARK    8  A    between atoms: C_17  and  C_18
REMARK                            x       y       z     vdW  Elec       q    Type
REMARK                         _______ _______ _______ _____ _____    ______ ____
ROOT
ATOM      1  C   UNL     1       2.555   3.341  17.943  0.00  0.00    +0.000 A 
ATOM      2  C   UNL     1       2.435   4.459  18.762  0.00  0.00    +0.000 A 
ATOM      3  C   UNL     1       3.311   5.562  18.669  0.00  0.00    +0.000 A 
ATOM      4  C   UNL     1       4.337   5.532  17.711  0.00  0.00    +0.000 A 
ATOM      5  C   UNL     1       4.493   4.373  16.932  0.00  0.00    +0.000 A 
ATOM      6  C   UNL     1       3.603   3.294  17.034  0.00  0.00    +0.000 A 
ATOM      7  C   UNL     1       5.623   4.258  15.988  0.00  0.00    +0.000 C 
ATOM      8  O   UNL     1       5.732   3.340  15.184  0.00  0.00    +0.000 OA
ATOM      9  C   UNL     1       6.715   5.265  16.095  0.00  0.00    +0.000 C 
ATOM     10  C   UNL     1       6.564   6.398  16.789  0.00  0.00    +0.000 C 
ATOM     11  C   UNL     1       5.210   6.673  17.344  0.00  0.00    +0.000 C 
ATOM     12  O   UNL     1       4.799   7.825  17.383  0.00  0.00    +0.000 OA
ENDROOT
BRANCH   1  14
ATOM     13  C   UNL     1       0.636   2.286  18.867  0.00  0.00    +0.000 C 
ATOM     14  O   UNL     1       1.729   2.253  17.952  0.00  0.00    +0.000 OA
ENDBRANCH   1  14
BRANCH   3  15
ATOM     15  O   UNL     1       2.961   6.487  19.611  0.00  0.00    +0.000 OA
ATOM     16  C   UNL     1       1.812   6.357  20.424  0.00  0.00    +0.000 C 
ENDBRANCH   3  15
BRANCH   9  17
ATOM     17  O   UNL     1       7.861   5.003  15.361  0.00  0.00    +0.000 OA
ATOM     18  H   UNL     1       7.566   4.440  14.612  0.00  0.00    +0.000 HD
ENDBRANCH   9  17
BRANCH  10  19
ATOM     19  C   UNL     1       7.624   7.482  16.877  0.00  0.00    +0.000 C 
BRANCH  19  20
ATOM     20  C   UNL     1       8.003   7.916  18.304  0.00  0.00    +0.000 C 
BRANCH  20  21
ATOM     21  C   UNL     1       8.457   9.357  18.405  0.00  0.00    +0.000 A 
ATOM     22  C   UNL     1       9.498   9.709  19.279  0.00  0.00    +0.000 A 
ATOM     23  C   UNL     1       9.979  11.021  19.323  0.00  0.00    +0.000 A 
ATOM     24  C   UNL     1       9.411  11.992  18.502  0.00  0.00    +0.000 A 
ATOM     25 BR   UNL     1      10.084  13.758  18.530  0.00  0.00    +0.000 Br
ATOM     26  C   UNL     1       8.360  11.665  17.647  0.00  0.00    +0.000 A 
ATOM     27  C   UNL     1       7.882  10.351  17.602  0.00  0.00    +0.000 A 
ENDBRANCH  20  21
ENDBRANCH  19  20
ENDBRANCH  10  19
TORSDOF 6
ENDMDL
MODEL 5
REMARK VINA RESULT:      -7.2      3.379      6.541
REMARK  Name = 
REMARK  8 active torsions:
REMARK  status: ('A' for Active; 'I' for Inactive)
REMARK    1  A    between atoms: C_1  and  O_2
REMARK    2  A    between atoms: O_2  and  C_3
REMARK    3  A    between atoms: C_5  and  O_6
REMARK    4  A    between atoms: O_6  and  C_7
REMARK    5  A    between atoms: C_13  and  O_14
REMARK    6  A    between atoms: C_15  and  C_16
REMARK    7  A    between atoms: C_16  and  C_17
REMARK    8  A    between atoms: C_17  and  C_18
REMARK                            x       y       z     vdW  Elec       q    Type
REMARK                         _______ _______ _______ _____ _____    ______ ____
ROOT
ATOM      1  C   UNL     1       2.100   3.750  17.938  0.00  0.00    +0.000 A 
ATOM      2  C   UNL     1       1.956   4.903  18.702  0.00  0.00    +0.000 A 
ATOM      3  C   UNL     1       2.976   5.875  18.804  0.00  0.00    +0.000 A 
ATOM      4  C   UNL     1       4.176   5.671  18.104  0.00  0.00    +0.000 A 
ATOM      5  C   UNL     1       4.338   4.474  17.387  0.00  0.00    +0.000 A 
ATOM      6  C   UNL     1       3.307   3.529  17.290  0.00  0.00    +0.000 A 
ATOM      7  C   UNL     1       5.624   4.174  16.724  0.00  0.00    +0.000 C 
ATOM      8  O   UNL     1       5.782   3.220  15.971  0.00  0.00    +0.000 OA
ATOM      9  C   UNL     1       6.794   5.028  17.071  0.00  0.00    +0.000 C 
ATOM     10  C   UNL     1       6.651   6.196  17.707  0.00  0.00    +0.000 C 
ATOM     11  C   UNL     1       5.259   6.670  17.938  0.00  0.00    +0.000 C 
ATOM     12  O   UNL     1       5.015   7.868  17.877  0.00  0.00    +0.000 OA
ENDROOT
BRANCH   1  14
ATOM     13  C   UNL     1       0.554   2.252  18.946  0.00  0.00    +0.000 C 
ATOM     14  O   UNL     1       1.149   2.784  17.765  0.00  0.00    +0.000 OA
ENDBRANCH   1  14
BRANCH   3  15
ATOM     15  O   UNL     1       2.556   6.872  19.637  0.00  0.00    +0.000 OA
ATOM     16  C   UNL     1       1.888   8.028  19.174  0.00  0.00    +0.000 C 
ENDBRANCH   3  15
BRANCH   9  17
ATOM     17  O   UNL     1       8.027   4.587  16.617  0.00  0.00    +0.000 OA
ATOM     18  H   UNL     1       7.855   3.710  16.208  0.00  0.00    +0.000 HD
ENDBRANCH   9  17
BRANCH  10  19
ATOM     19  C   UNL     1       7.804   7.130  18.026  0.00  0.00    +0.000 C 
BRANCH  19  20
ATOM     20  C   UNL     1       7.767   8.489  17.306  0.00  0.00    +0.000 C 
BRANCH  20  21
ATOM     21  C   UNL     1       8.440   9.607  18.073  0.00  0.00    +0.000 A 
ATOM     22  C   UNL     1       8.432  10.916  17.565  0.00  0.00    +0.000 A 
ATOM     23  C   UNL     1       8.981  11.971  18.302  0.00  0.00    +0.000 A 
ATOM     24  C   UNL     1       9.554  11.718  19.546  0.00  0.00    +0.000 A 
ATOM     25 BR   UNL     1      10.262  13.145  20.562  0.00  0.00    +0.000 Br
ATOM     26  C   UNL     1       9.593  10.420  20.053  0.00  0.00    +0.000 A 
ATOM     27  C   UNL     1       9.040   9.367  19.316  0.00  0.00    +0.000 A 
ENDBRANCH  20  21
ENDBRANCH  19  20
ENDBRANCH  10  19
TORSDOF 6
ENDMDL
MODEL 6
REMARK VINA RESULT:      -7.1      3.743      6.770
REMARK  Name = 
REMARK  8 active torsions:
REMARK  status: ('A' for Active; 'I' for Inactive)
REMARK    1  A    between atoms: C_1  and  O_2
REMARK    2  A    between atoms: O_2  and  C_3
REMARK    3  A    between atoms: C_5  and  O_6
REMARK    4  A    between atoms: O_6  and  C_7
REMARK    5  A    between atoms: C_13  and  O_14
REMARK    6  A    between atoms: C_15  and  C_16
REMARK    7  A    between atoms: C_16  and  C_17
REMARK    8  A    between atoms: C_17  and  C_18
REMARK                            x       y       z     vdW  Elec       q    Type
REMARK                         _______ _______ _______ _____ _____    ______ ____
ROOT
ATOM      1  C   UNL     1       1.936   4.967  19.123  0.00  0.00    +0.000 A 
ATOM      2  C   UNL     1       1.765   6.189  18.483  0.00  0.00    +0.000 A 
ATOM      3  C   UNL     1       2.847   6.914  17.936  0.00  0.00    +0.000 A 
ATOM      4  C   UNL     1       4.141   6.377  18.038  0.00  0.00    +0.000 A 
ATOM      5  C   UNL     1       4.314   5.174  18.743  0.00  0.00    +0.000 A 
ATOM      6  C   UNL     1       3.223   4.467  19.267  0.00  0.00    +0.000 A 
ATOM      7  C   UNL     1       5.669   4.632  18.964  0.00  0.00    +0.000 C 
ATOM      8  O   UNL     1       5.876   3.524  19.444  0.00  0.00    +0.000 OA
ATOM      9  C   UNL     1       6.825   5.523  18.668  0.00  0.00    +0.000 C 
ATOM     10  C   UNL     1       6.686   6.645  17.953  0.00  0.00    +0.000 C 
ATOM     11  C   UNL     1       5.348   6.899  17.353  0.00  0.00    +0.000 C 
ATOM     12  O   UNL     1       5.274   7.432  16.254  0.00  0.00    +0.000 OA
ENDROOT
BRANCH   1  14
ATOM     13  C   UNL     1       1.211   2.801  19.781  0.00  0.00    +0.000 C 
ATOM     14  O   UNL     1       0.938   4.194  19.647  0.00  0.00    +0.000 OA
ENDBRANCH   1  14
BRANCH   3  15
ATOM     15  O   UNL     1       2.374   8.077  17.399  0.00  0.00    +0.000 OA
ATOM     16  C   UNL     1       1.578   8.990  18.125  0.00  0.00    +0.000 C 
ENDBRANCH   3  15
BRANCH   9  17
ATOM     17  O   UNL     1       8.065   5.077  19.098  0.00  0.00    +0.000 OA
ATOM     18  H   UNL     1       8.157   5.411  20.017  0.00  0.00    +0.000 HD
ENDBRANCH   9  17
BRANCH  10  19
ATOM     19  C   UNL     1       7.843   7.552  17.573  0.00  0.00    +0.000 C 
BRANCH  19  20
ATOM     20  C   UNL     1       8.598   8.183  18.755  0.00  0.00    +0.000 C 
BRANCH  20  21
ATOM     21  C   UNL     1       8.808   9.677  18.621  0.00  0.00    +0.000 A 
ATOM     22  C   UNL     1       8.144  10.394  17.613  0.00  0.00    +0.000 A 
ATOM     23  C   UNL     1       8.267  11.785  17.528  0.00  0.00    +0.000 A 
ATOM     24  C   UNL     1       9.067  12.464  18.444  0.00  0.00    +0.000 A 
ATOM     25 BR   UNL     1       9.206  14.346  18.357  0.00  0.00    +0.000 Br
ATOM     26  C   UNL     1       9.754  11.763  19.435  0.00  0.00    +0.000 A 
ATOM     27  C   UNL     1       9.626  10.373  19.520  0.00  0.00    +0.000 A 
ENDBRANCH  20  21
ENDBRANCH  19  20
ENDBRANCH  10  19
TORSDOF 6
ENDMDL
MODEL 7
REMARK VINA RESULT:      -7.1      1.874      3.307
REMARK  Name = 
REMARK  8 active torsions:
REMARK  status: ('A' for Active; 'I' for Inactive)
REMARK    1  A    between atoms: C_1  and  O_2
REMARK    2  A    between atoms: O_2  and  C_3
REMARK    3  A    between atoms: C_5  and  O_6
REMARK    4  A    between atoms: O_6  and  C_7
REMARK    5  A    between atoms: C_13  and  O_14
REMARK    6  A    between atoms: C_15  and  C_16
REMARK    7  A    between atoms: C_16  and  C_17
REMARK    8  A    between atoms: C_17  and  C_18
REMARK                            x       y       z     vdW  Elec       q    Type
REMARK                         _______ _______ _______ _____ _____    ______ ____
ROOT
ATOM      1  C   UNL     1       6.062   5.271  17.010  0.00  0.00    +0.000 A 
ATOM      2  C   UNL     1       5.923   4.435  18.113  0.00  0.00    +0.000 A 
ATOM      3  C   UNL     1       4.878   4.589  19.051  0.00  0.00    +0.000 A 
ATOM      4  C   UNL     1       3.944   5.619  18.859  0.00  0.00    +0.000 A 
ATOM      5  C   UNL     1       4.129   6.499  17.779  0.00  0.00    +0.000 A 
ATOM      6  C   UNL     1       5.167   6.319  16.855  0.00  0.00    +0.000 A 
ATOM      7  C   UNL     1       3.230   7.658  17.604  0.00  0.00    +0.000 C 
ATOM      8  O   UNL     1       3.251   8.376  16.611  0.00  0.00    +0.000 OA
ATOM      9  C   UNL     1       2.327   8.008  18.735  0.00  0.00    +0.000 C 
ATOM     10  C   UNL     1       2.100   7.160  19.744  0.00  0.00    +0.000 C 
ATOM     11  C   UNL     1       2.685   5.797  19.623  0.00  0.00    +0.000 C 
ATOM     12  O   UNL     1       2.065   4.836  20.057  0.00  0.00    +0.000 OA
ENDROOT
BRANCH   1  14
ATOM     13  C   UNL     1       6.669   4.454  14.862  0.00  0.00    +0.000 C 
ATOM     14  O   UNL     1       7.024   5.165  16.045  0.00  0.00    +0.000 OA
ENDBRANCH   1  14
BRANCH   3  15
ATOM     15  O   UNL     1       5.017   3.644  20.027  0.00  0.00    +0.000 OA
ATOM     16  C   UNL     1       4.452   2.352  19.931  0.00  0.00    +0.000 C 
ENDBRANCH   3  15
BRANCH   9  17
ATOM     17  O   UNL     1       1.668   9.223  18.637  0.00  0.00    +0.000 OA
ATOM     18  H   UNL     1       1.916   9.583  17.757  0.00  0.00    +0.000 HD
ENDBRANCH   9  17
BRANCH  10  19
ATOM     19  C   UNL     1       1.141   7.445  20.887  0.00  0.00    +0.000 C 
BRANCH  19  20
ATOM     20  C   UNL     1       1.621   8.502  21.898  0.00  0.00    +0.000 C 
BRANCH  20  21
ATOM     21  C   UNL     1       0.651   9.648  22.091  0.00  0.00    +0.000 A 
ATOM     22  C   UNL     1       0.657  10.735  21.202  0.00  0.00    +0.000 A 
ATOM     23  C   UNL     1      -0.286  11.761  21.323  0.00  0.00    +0.000 A 
ATOM     24  C   UNL     1      -1.232  11.711  22.345  0.00  0.00    +0.000 A 
ATOM     25 BR   UNL     1      -2.532  13.075  22.489  0.00  0.00    +0.000 Br
ATOM     26  C   UNL     1      -1.235  10.652  23.251  0.00  0.00    +0.000 A 
ATOM     27  C   UNL     1      -0.293   9.625  23.126  0.00  0.00    +0.000 A 
ENDBRANCH  20  21
ENDBRANCH  19  20
ENDBRANCH  10  19
TORSDOF 6
ENDMDL
MODEL 8
REMARK VINA RESULT:      -7.0      1.224      1.505
REMARK  Name = 
REMARK  8 active torsions:
REMARK  status: ('A' for Active; 'I' for Inactive)
REMARK    1  A    between atoms: C_1  and  O_2
REMARK    2  A    between atoms: O_2  and  C_3
REMARK    3  A    between atoms: C_5  and  O_6
REMARK    4  A    between atoms: O_6  and  C_7
REMARK    5  A    between atoms: C_13  and  O_14
REMARK    6  A    between atoms: C_15  and  C_16
REMARK    7  A    between atoms: C_16  and  C_17
REMARK    8  A    between atoms: C_17  and  C_18
REMARK                            x       y       z     vdW  Elec       q    Type
REMARK                         _______ _______ _______ _____ _____    ______ ____
ROOT
ATOM      1  C   UNL     1       6.157   4.508  15.190  0.00  0.00    +0.000 A 
ATOM      2  C   UNL     1       6.632   5.537  15.997  0.00  0.00    +0.000 A 
ATOM      3  C   UNL     1       5.975   5.933  17.183  0.00  0.00    +0.000 A 
ATOM      4  C   UNL     1       4.805   5.257  17.565  0.00  0.00    +0.000 A 
ATOM      5  C   UNL     1       4.296   4.263  16.713  0.00  0.00    +0.000 A 
ATOM      6  C   UNL     1       4.972   3.880  15.545  0.00  0.00    +0.000 A 
ATOM      7  C   UNL     1       3.011   3.604  17.024  0.00  0.00    +0.000 C 
ATOM      8  O   UNL     1       2.588   2.637  16.401  0.00  0.00    +0.000 OA
ATOM      9  C   UNL     1       2.165   4.211  18.088  0.00  0.00    +0.000 C 
ATOM     10  C   UNL     1       2.649   5.120  18.942  0.00  0.00    +0.000 C 
ATOM     11  C   UNL     1       4.109   5.404  18.867  0.00  0.00    +0.000 C 
ATOM     12  O   UNL     1       4.728   5.644  19.894  0.00  0.00    +0.000 OA
ENDROOT
BRANCH   1  14
ATOM     13  C   UNL     1       5.885   3.641  12.994  0.00  0.00    +0.000 C 
ATOM     14  O   UNL     1       6.752   4.049  14.050  0.00  0.00    +0.000 OA
ENDBRANCH   1  14
BRANCH   3  15
ATOM     15  O   UNL     1       6.658   6.975  17.741  0.00  0.00    +0.000 OA
ATOM     16  C   UNL     1       7.952   6.838  18.293  0.00  0.00    +0.000 C 
ENDBRANCH   3  15
BRANCH   9  17
ATOM     17  O   UNL     1       0.876   3.714  18.201  0.00  0.00    +0.000 OA
ATOM     18  H   UNL     1       0.299   4.506  18.282  0.00  0.00    +0.000 HD
ENDBRANCH   9  17
BRANCH  10  19
ATOM     19  C   UNL     1       1.845   5.721  20.081  0.00  0.00    +0.000 C 
BRANCH  19  20
ATOM     20  C   UNL     1       2.294   7.122  20.533  0.00  0.00    +0.000 C 
BRANCH  20  21
ATOM     21  C   UNL     1       1.425   8.244  20.004  0.00  0.00    +0.000 A 
ATOM     22  C   UNL     1       0.489   8.867  20.846  0.00  0.00    +0.000 A 
ATOM     23  C   UNL     1      -0.263   9.956  20.392  0.00  0.00    +0.000 A 
ATOM     24  C   UNL     1      -0.092  10.418  19.090  0.00  0.00    +0.000 A 
ATOM     25 BR   UNL     1      -1.077  11.913  18.485  0.00  0.00    +0.000 Br
ATOM     26  C   UNL     1       0.815   9.794  18.234  0.00  0.00    +0.000 A 
ATOM     27  C   UNL     1       1.569   8.707  18.690  0.00  0.00    +0.000 A 
ENDBRANCH  20  21
ENDBRANCH  19  20
ENDBRANCH  10  19
TORSDOF 6
ENDMDL
MODEL 9
REMARK VINA RESULT:      -6.9      1.565      1.977
REMARK  Name = 
REMARK  8 active torsions:
REMARK  status: ('A' for Active; 'I' for Inactive)
REMARK    1  A    between atoms: C_1  and  O_2
REMARK    2  A    between atoms: O_2  and  C_3
REMARK    3  A    between atoms: C_5  and  O_6
REMARK    4  A    between atoms: O_6  and  C_7
REMARK    5  A    between atoms: C_13  and  O_14
REMARK    6  A    between atoms: C_15  and  C_16
REMARK    7  A    between atoms: C_16  and  C_17
REMARK    8  A    between atoms: C_17  and  C_18
REMARK                            x       y       z     vdW  Elec       q    Type
REMARK                         _______ _______ _______ _____ _____    ______ ____
ROOT
ATOM      1  C   UNL     1       6.098   4.387  14.891  0.00  0.00    +0.000 A 
ATOM      2  C   UNL     1       6.378   5.633  15.443  0.00  0.00    +0.000 A 
ATOM      3  C   UNL     1       5.947   6.001  16.737  0.00  0.00    +0.000 A 
ATOM      4  C   UNL     1       5.216   5.072  17.495  0.00  0.00    +0.000 A 
ATOM      5  C   UNL     1       4.882   3.840  16.907  0.00  0.00    +0.000 A 
ATOM      6  C   UNL     1       5.331   3.493  15.625  0.00  0.00    +0.000 A 
ATOM      7  C   UNL     1       4.024   2.880  17.631  0.00  0.00    +0.000 C 
ATOM      8  O   UNL     1       3.816   1.740  17.234  0.00  0.00    +0.000 OA
ATOM      9  C   UNL     1       3.318   3.367  18.848  0.00  0.00    +0.000 C 
ATOM     10  C   UNL     1       3.659   4.511  19.450  0.00  0.00    +0.000 C 
ATOM     11  C   UNL     1       4.863   5.214  18.929  0.00  0.00    +0.000 C 
ATOM     12  O   UNL     1       5.600   5.803  19.708  0.00  0.00    +0.000 OA
ENDROOT
BRANCH   1  14
ATOM     13  C   UNL     1       5.488   3.511  12.768  0.00  0.00    +0.000 C 
ATOM     14  O   UNL     1       6.507   3.948  13.664  0.00  0.00    +0.000 OA
ENDBRANCH   1  14
BRANCH   3  15
ATOM     15  O   UNL     1       6.348   7.281  16.990  0.00  0.00    +0.000 OA
ATOM     16  C   UNL     1       7.639   7.601  17.466  0.00  0.00    +0.000 C 
ENDBRANCH   3  15
BRANCH   9  17
ATOM     17  O   UNL     1       2.351   2.524  19.371  0.00  0.00    +0.000 OA
ATOM     18  H   UNL     1       2.130   2.897  20.253  0.00  0.00    +0.000 HD
ENDBRANCH   9  17
BRANCH  10  19
ATOM     19  C   UNL     1       3.012   5.019  20.727  0.00  0.00    +0.000 C 
BRANCH  19  20
ATOM     20  C   UNL     1       1.574   5.544  20.570  0.00  0.00    +0.000 C 
BRANCH  20  21
ATOM     21  C   UNL     1       1.495   6.982  20.105  0.00  0.00    +0.000 A 
ATOM     22  C   UNL     1       0.990   7.974  20.961  0.00  0.00    +0.000 A 
ATOM     23  C   UNL     1       0.985   9.318  20.572  0.00  0.00    +0.000 A 
ATOM     24  C   UNL     1       1.475   9.674  19.318  0.00  0.00    +0.000 A 
ATOM     25 BR   UNL     1       1.507  11.492  18.803  0.00  0.00    +0.000 Br
ATOM     26  C   UNL     1       1.956   8.698  18.446  0.00  0.00    +0.000 A 
ATOM     27  C   UNL     1       1.963   7.355  18.838  0.00  0.00    +0.000 A 
ENDBRANCH  20  21
ENDBRANCH  19  20
ENDBRANCH  10  19
TORSDOF 6
ENDMDL
