MODEL 1
REMARK VINA RESULT:      -7.0      0.000      0.000
REMARK  Name = 
REMARK  1 active torsions:
REMARK  status: ('A' for Active; 'I' for Inactive)
REMARK    1  A    between atoms: C_1  and  N_2
REMARK                            x       y       z     vdW  Elec       q    Type
REMARK                         _______ _______ _______ _____ _____    ______ ____
ROOT
ATOM      1  C   UNL     1      -1.496  11.514  23.678  0.00  0.00    +0.000 C 
ATOM      2  N   UNL     1      -0.974  10.398  22.713  0.00  0.00    +0.000 N 
ATOM      3  C   UNL     1       0.041   9.425  22.616  0.00  0.00    +0.000 C 
ATOM      4  O   UNL     1       0.850   9.207  23.520  0.00  0.00    +0.000 OA
ATOM      5  C   UNL     1       0.456   8.875  20.947  0.00  0.00    +0.000 C 
ATOM      6  C   UNL     1       0.154  10.578  20.757  0.00  0.00    +0.000 C 
ATOM      7  C   UNL     1      -1.172  10.788  21.451  0.00  0.00    +0.000 C 
ATOM      8  O   UNL     1      -2.034  11.534  21.063  0.00  0.00    +0.000 OA
ATOM      9  C   UNL     1       0.352  12.336  20.167  0.00  0.00    +0.000 A 
ATOM     10  C   UNL     1       1.438  13.151  20.393  0.00  0.00    +0.000 A 
ATOM     11  N   UNL     1       1.470  13.885  19.099  0.00  0.00    +0.000 N 
ATOM     12  C   UNL     1       0.248  14.431  18.768  0.00  0.00    +0.000 A 
ATOM     13  C   UNL     1       0.200  15.605  17.890  0.00  0.00    +0.000 A 
ATOM     14  C   UNL     1      -0.368  16.764  18.356  0.00  0.00    +0.000 A 
ATOM     15  C   UNL     1      -0.914  16.607  19.605  0.00  0.00    +0.000 A 
ATOM     16  C   UNL     1      -1.002  15.235  20.325  0.00  0.00    +0.000 A 
ATOM     17  C   UNL     1      -0.570  13.856  19.759  0.00  0.00    +0.000 A 
ATOM     18  C   UNL     1       2.047  13.402  17.831  0.00  0.00    +0.000 C 
ATOM     19  C   UNL     1       1.972  12.024  18.213  0.00  0.00    +0.000 C 
ATOM     20  O   UNL     1       2.616  11.093  17.532  0.00  0.00    +0.000 OA
ATOM     21  C   UNL     1       2.415  10.040  18.394  0.00  0.00    +0.000 C 
ATOM     22  C   UNL     1       3.026   9.177  17.470  0.00  0.00    +0.000 C 
ATOM     23  O   UNL     1       3.221   8.005  18.047  0.00  0.00    +0.000 OA
ATOM     24  C   UNL     1       3.964   7.425  17.024  0.00  0.00    +0.000 C 
ATOM     25  C   UNL     1       4.303   6.277  17.773  0.00  0.00    +0.000 C 
ATOM     26  O   UNL     1       5.227   5.476  17.182  0.00  0.00    +0.000 OA
ATOM     27  C   UNL     1       5.061   4.307  17.941  0.00  0.00    +0.000 C 
ATOM     28  C   UNL     1       4.085   4.281  19.268  0.00  0.00    +0.000 C 
ATOM     29  N   UNL     1       2.849   5.233  19.624  0.00  0.00    +0.000 N 
ATOM     30  C   UNL     1       2.652   6.618  20.453  0.00  0.00    +0.000 A 
ATOM     31  C   UNL     1       1.246   7.148  20.565  0.00  0.00    +0.000 A 
ATOM     32  C   UNL     1       0.854   5.306  20.388  0.00  0.00    +0.000 A 
ATOM     33  C   UNL     1       1.342   3.916  21.167  0.00  0.00    +0.000 A 
ATOM     34  C   UNL     1       1.714   2.484  20.582  0.00  0.00    +0.000 A 
ATOM     35  C   UNL     1       1.624   2.206  19.237  0.00  0.00    +0.000 A 
ATOM     36  C   UNL     1       1.393   3.376  18.486  0.00  0.00    +0.000 A 
ATOM     37  C   UNL     1       1.512   4.790  19.113  0.00  0.00    +0.000 A 
ENDROOT
TORSDOF 0
ENDMDL
MODEL 2
REMARK VINA RESULT:      -6.9      8.972      9.990
REMARK  Name = 
REMARK  1 active torsions:
REMARK  status: ('A' for Active; 'I' for Inactive)
REMARK    1  A    between atoms: C_1  and  N_2
REMARK                            x       y       z     vdW  Elec       q    Type
REMARK                         _______ _______ _______ _____ _____    ______ ____
ROOT
ATOM      1  C   UNL     1       6.963  14.132  27.590  0.00  0.00    +0.000 C 
ATOM      2  N   UNL     1       7.266  13.981  26.062  0.00  0.00    +0.000 N 
ATOM      3  C   UNL     1       8.285  14.230  25.121  0.00  0.00    +0.000 C 
ATOM      4  O   UNL     1       9.395  14.666  25.433  0.00  0.00    +0.000 OA
ATOM      5  C   UNL     1       7.756  14.392  23.402  0.00  0.00    +0.000 C 
ATOM      6  C   UNL     1       6.486  15.174  24.300  0.00  0.00    +0.000 C 
ATOM      7  C   UNL     1       6.136  14.170  25.375  0.00  0.00    +0.000 C 
ATOM      8  O   UNL     1       5.018  13.956  25.769  0.00  0.00    +0.000 OA
ATOM      9  C   UNL     1       5.183  16.425  24.762  0.00  0.00    +0.000 A 
ATOM     10  C   UNL     1       5.398  17.756  25.040  0.00  0.00    +0.000 A 
ATOM     11  N   UNL     1       4.163  18.335  24.446  0.00  0.00    +0.000 N 
ATOM     12  C   UNL     1       3.017  17.709  24.888  0.00  0.00    +0.000 A 
ATOM     13  C   UNL     1       1.748  18.445  24.883  0.00  0.00    +0.000 A 
ATOM     14  C   UNL     1       1.081  18.631  26.067  0.00  0.00    +0.000 A 
ATOM     15  C   UNL     1       1.690  17.985  27.112  0.00  0.00    +0.000 A 
ATOM     16  C   UNL     1       2.906  17.037  26.930  0.00  0.00    +0.000 A 
ATOM     17  C   UNL     1       3.570  16.622  25.591  0.00  0.00    +0.000 A 
ATOM     18  C   UNL     1       3.931  18.630  23.020  0.00  0.00    +0.000 C 
ATOM     19  C   UNL     1       4.942  17.721  22.570  0.00  0.00    +0.000 C 
ATOM     20  O   UNL     1       5.378  17.751  21.324  0.00  0.00    +0.000 OA
ATOM     21  C   UNL     1       6.440  16.888  21.464  0.00  0.00    +0.000 C 
ATOM     22  C   UNL     1       6.667  16.954  20.080  0.00  0.00    +0.000 C 
ATOM     23  O   UNL     1       7.817  16.365  19.808  0.00  0.00    +0.000 OA
ATOM     24  C   UNL     1       7.880  16.712  18.462  0.00  0.00    +0.000 C 
ATOM     25  C   UNL     1       9.199  16.236  18.289  0.00  0.00    +0.000 C 
ATOM     26  O   UNL     1       9.758  16.559  17.095  0.00  0.00    +0.000 OA
ATOM     27  C   UNL     1      10.841  15.665  17.079  0.00  0.00    +0.000 C 
ATOM     28  C   UNL     1      11.206  14.744  18.395  0.00  0.00    +0.000 C 
ATOM     29  N   UNL     1      10.252  14.283  19.594  0.00  0.00    +0.000 N 
ATOM     30  C   UNL     1       9.869  14.866  21.063  0.00  0.00    +0.000 A 
ATOM     31  C   UNL     1       8.922  14.041  21.895  0.00  0.00    +0.000 A 
ATOM     32  C   UNL     1       9.688  12.656  20.861  0.00  0.00    +0.000 A 
ATOM     33  C   UNL     1      11.243  12.154  20.528  0.00  0.00    +0.000 A 
ATOM     34  C   UNL     1      11.896  11.661  19.165  0.00  0.00    +0.000 A 
ATOM     35  C   UNL     1      11.159  11.549  18.008  0.00  0.00    +0.000 A 
ATOM     36  C   UNL     1       9.881  12.125  18.157  0.00  0.00    +0.000 A 
ATOM     37  C   UNL     1       9.512  12.997  19.386  0.00  0.00    +0.000 A 
ENDROOT
TORSDOF 0
ENDMDL
MODEL 3
REMARK VINA RESULT:      -6.8      4.801      9.781
REMARK  Name = 
REMARK  1 active torsions:
REMARK  status: ('A' for Active; 'I' for Inactive)
REMARK    1  A    between atoms: C_1  and  N_2
REMARK                            x       y       z     vdW  Elec       q    Type
REMARK                         _______ _______ _______ _____ _____    ______ ____
ROOT
ATOM      1  C   UNL     1       1.329  11.024  18.642  0.00  0.00    +0.000 C 
ATOM      2  N   UNL     1       0.182  11.688  19.474  0.00  0.00    +0.000 N 
ATOM      3  C   UNL     1      -1.154  12.117  19.344  0.00  0.00    +0.000 C 
ATOM      4  O   UNL     1      -1.816  11.952  18.317  0.00  0.00    +0.000 OA
ATOM      5  C   UNL     1      -1.702  13.374  20.520  0.00  0.00    +0.000 C 
ATOM      6  C   UNL     1      -0.063  13.835  20.158  0.00  0.00    +0.000 C 
ATOM      7  C   UNL     1       0.718  12.553  20.339  0.00  0.00    +0.000 C 
ATOM      8  O   UNL     1       1.821  12.490  20.818  0.00  0.00    +0.000 OA
ATOM      9  C   UNL     1       1.407  14.915  19.774  0.00  0.00    +0.000 A 
ATOM     10  C   UNL     1       1.558  15.717  18.666  0.00  0.00    +0.000 A 
ATOM     11  N   UNL     1       2.281  16.861  19.286  0.00  0.00    +0.000 N 
ATOM     12  C   UNL     1       3.384  16.462  20.010  0.00  0.00    +0.000 A 
ATOM     13  C   UNL     1       4.494  17.400  20.203  0.00  0.00    +0.000 A 
ATOM     14  C   UNL     1       5.741  17.065  19.738  0.00  0.00    +0.000 A 
ATOM     15  C   UNL     1       5.775  15.796  19.219  0.00  0.00    +0.000 A 
ATOM     16  C   UNL     1       4.573  14.816  19.294  0.00  0.00    +0.000 A 
ATOM     17  C   UNL     1       3.212  15.065  19.996  0.00  0.00    +0.000 A 
ATOM     18  C   UNL     1       1.679  17.966  20.054  0.00  0.00    +0.000 C 
ATOM     19  C   UNL     1       0.493  17.228  20.367  0.00  0.00    +0.000 C 
ATOM     20  O   UNL     1      -0.577  17.832  20.852  0.00  0.00    +0.000 OA
ATOM     21  C   UNL     1      -1.458  16.779  20.765  0.00  0.00    +0.000 C 
ATOM     22  C   UNL     1      -2.433  17.551  21.417  0.00  0.00    +0.000 C 
ATOM     23  O   UNL     1      -3.590  16.917  21.353  0.00  0.00    +0.000 OA
ATOM     24  C   UNL     1      -4.377  17.931  21.890  0.00  0.00    +0.000 C 
ATOM     25  C   UNL     1      -5.599  17.279  21.611  0.00  0.00    +0.000 C 
ATOM     26  O   UNL     1      -6.701  18.044  21.819  0.00  0.00    +0.000 OA
ATOM     27  C   UNL     1      -7.693  17.050  21.832  0.00  0.00    +0.000 C 
ATOM     28  C   UNL     1      -7.338  15.486  21.451  0.00  0.00    +0.000 C 
ATOM     29  N   UNL     1      -5.932  14.727  21.531  0.00  0.00    +0.000 N 
ATOM     30  C   UNL     1      -4.702  14.452  20.503  0.00  0.00    +0.000 A 
ATOM     31  C   UNL     1      -3.557  13.621  21.021  0.00  0.00    +0.000 A 
ATOM     32  C   UNL     1      -4.943  12.920  22.100  0.00  0.00    +0.000 A 
ATOM     33  C   UNL     1      -6.450  12.270  21.810  0.00  0.00    +0.000 A 
ATOM     34  C   UNL     1      -7.826  12.475  22.580  0.00  0.00    +0.000 A 
ATOM     35  C   UNL     1      -7.915  13.262  23.707  0.00  0.00    +0.000 A 
ATOM     36  C   UNL     1      -6.728  13.993  23.916  0.00  0.00    +0.000 A 
ATOM     37  C   UNL     1      -5.613  14.072  22.840  0.00  0.00    +0.000 A 
ENDROOT
TORSDOF 0
ENDMDL
MODEL 4
REMARK VINA RESULT:      -6.6      9.096     10.240
REMARK  Name = 
REMARK  1 active torsions:
REMARK  status: ('A' for Active; 'I' for Inactive)
REMARK    1  A    between atoms: C_1  and  N_2
REMARK                            x       y       z     vdW  Elec       q    Type
REMARK                         _______ _______ _______ _____ _____    ______ ____
ROOT
ATOM      1  C   UNL     1       6.722  12.783  27.827  0.00  0.00    +0.000 C 
ATOM      2  N   UNL     1       7.042  12.936  26.302  0.00  0.00    +0.000 N 
ATOM      3  C   UNL     1       8.115  13.222  25.435  0.00  0.00    +0.000 C 
ATOM      4  O   UNL     1       9.271  13.391  25.829  0.00  0.00    +0.000 OA
ATOM      5  C   UNL     1       7.670  13.854  23.803  0.00  0.00    +0.000 C 
ATOM      6  C   UNL     1       6.515  14.607  24.866  0.00  0.00    +0.000 C 
ATOM      7  C   UNL     1       5.978  13.455  25.685  0.00  0.00    +0.000 C 
ATOM      8  O   UNL     1       4.829  13.342  26.029  0.00  0.00    +0.000 OA
ATOM      9  C   UNL     1       5.416  15.915  25.611  0.00  0.00    +0.000 A 
ATOM     10  C   UNL     1       5.832  17.095  26.185  0.00  0.00    +0.000 A 
ATOM     11  N   UNL     1       4.723  17.986  25.748  0.00  0.00    +0.000 N 
ATOM     12  C   UNL     1       3.479  17.470  26.045  0.00  0.00    +0.000 A 
ATOM     13  C   UNL     1       2.345  18.384  26.219  0.00  0.00    +0.000 A 
ATOM     14  C   UNL     1       1.681  18.402  27.419  0.00  0.00    +0.000 A 
ATOM     15  C   UNL     1       2.148  17.446  28.284  0.00  0.00    +0.000 A 
ATOM     16  C   UNL     1       3.203  16.380  27.880  0.00  0.00    +0.000 A 
ATOM     17  C   UNL     1       3.831  16.177  26.476  0.00  0.00    +0.000 A 
ATOM     18  C   UNL     1       4.583  18.631  24.429  0.00  0.00    +0.000 C 
ATOM     19  C   UNL     1       5.448  17.696  23.776  0.00  0.00    +0.000 C 
ATOM     20  O   UNL     1       5.921  17.936  22.566  0.00  0.00    +0.000 OA
ATOM     21  C   UNL     1       6.827  16.903  22.497  0.00  0.00    +0.000 C 
ATOM     22  C   UNL     1       7.101  17.244  21.162  0.00  0.00    +0.000 C 
ATOM     23  O   UNL     1       8.150  16.554  20.754  0.00  0.00    +0.000 OA
ATOM     24  C   UNL     1       8.308  17.182  19.523  0.00  0.00    +0.000 C 
ATOM     25  C   UNL     1       9.538  16.551  19.235  0.00  0.00    +0.000 C 
ATOM     26  O   UNL     1      10.176  17.041  18.142  0.00  0.00    +0.000 OA
ATOM     27  C   UNL     1      11.102  16.011  17.914  0.00  0.00    +0.000 C 
ATOM     28  C   UNL     1      11.277  14.768  18.982  0.00  0.00    +0.000 C 
ATOM     29  N   UNL     1      10.227  14.208  20.051  0.00  0.00    +0.000 N 
ATOM     30  C   UNL     1       9.899  14.497  21.617  0.00  0.00    +0.000 A 
ATOM     31  C   UNL     1       8.808  13.670  22.246  0.00  0.00    +0.000 A 
ATOM     32  C   UNL     1       9.374  12.449  20.917  0.00  0.00    +0.000 A 
ATOM     33  C   UNL     1      10.838  11.791  20.466  0.00  0.00    +0.000 A 
ATOM     34  C   UNL     1      11.443  11.521  19.020  0.00  0.00    +0.000 A 
ATOM     35  C   UNL     1      10.732  11.795  17.874  0.00  0.00    +0.000 A 
ATOM     36  C   UNL     1       9.558  12.522  18.161  0.00  0.00    +0.000 A 
ATOM     37  C   UNL     1       9.298  13.140  19.560  0.00  0.00    +0.000 A 
ENDROOT
TORSDOF 0
ENDMDL
MODEL 5
REMARK VINA RESULT:      -6.5      4.918      8.788
REMARK  Name = 
REMARK  1 active torsions:
REMARK  status: ('A' for Active; 'I' for Inactive)
REMARK    1  A    between atoms: C_1  and  N_2
REMARK                            x       y       z     vdW  Elec       q    Type
REMARK                         _______ _______ _______ _____ _____    ______ ____
ROOT
ATOM      1  C   UNL     1      -1.834   9.993  18.150  0.00  0.00    +0.000 C 
ATOM      2  N   UNL     1      -0.873  11.189  18.462  0.00  0.00    +0.000 N 
ATOM      3  C   UNL     1       0.369  11.462  19.068  0.00  0.00    +0.000 C 
ATOM      4  O   UNL     1       1.107  10.581  19.515  0.00  0.00    +0.000 OA
ATOM      5  C   UNL     1       0.616  13.155  19.644  0.00  0.00    +0.000 C 
ATOM      6  C   UNL     1      -1.056  12.836  20.007  0.00  0.00    +0.000 C 
ATOM      7  C   UNL     1      -1.603  12.278  18.713  0.00  0.00    +0.000 C 
ATOM      8  O   UNL     1      -2.703  12.514  18.281  0.00  0.00    +0.000 OA
ATOM      9  C   UNL     1      -2.672  12.814  20.936  0.00  0.00    +0.000 A 
ATOM     10  C   UNL     1      -2.902  12.212  22.152  0.00  0.00    +0.000 A 
ATOM     11  N   UNL     1      -3.852  13.196  22.739  0.00  0.00    +0.000 N 
ATOM     12  C   UNL     1      -4.905  13.485  21.897  0.00  0.00    +0.000 A 
ATOM     13  C   UNL     1      -6.174  13.947  22.467  0.00  0.00    +0.000 A 
ATOM     14  C   UNL     1      -7.312  13.214  22.245  0.00  0.00    +0.000 A 
ATOM     15  C   UNL     1      -7.089  12.154  21.403  0.00  0.00    +0.000 A 
ATOM     16  C   UNL     1      -5.737  11.919  20.677  0.00  0.00    +0.000 A 
ATOM     17  C   UNL     1      -4.484  12.832  20.723  0.00  0.00    +0.000 A 
ATOM     18  C   UNL     1      -3.502  14.471  23.392  0.00  0.00    +0.000 C 
ATOM     19  C   UNL     1      -2.222  14.554  22.756  0.00  0.00    +0.000 C 
ATOM     20  O   UNL     1      -1.307  15.408  23.176  0.00  0.00    +0.000 OA
ATOM     21  C   UNL     1      -0.248  14.953  22.425  0.00  0.00    +0.000 C 
ATOM     22  C   UNL     1       0.535  16.019  22.897  0.00  0.00    +0.000 C 
ATOM     23  O   UNL     1       1.788  15.821  22.531  0.00  0.00    +0.000 OA
ATOM     24  C   UNL     1       2.349  16.876  23.243  0.00  0.00    +0.000 C 
ATOM     25  C   UNL     1       3.682  16.490  22.977  0.00  0.00    +0.000 C 
ATOM     26  O   UNL     1       4.616  17.185  23.675  0.00  0.00    +0.000 OA
ATOM     27  C   UNL     1       5.767  16.859  22.941  0.00  0.00    +0.000 C 
ATOM     28  C   UNL     1       5.721  15.738  21.735  0.00  0.00    +0.000 C 
ATOM     29  N   UNL     1       4.471  15.254  20.860  0.00  0.00    +0.000 N 
ATOM     30  C   UNL     1       3.370  14.062  20.969  0.00  0.00    +0.000 A 
ATOM     31  C   UNL     1       2.366  13.962  19.851  0.00  0.00    +0.000 A 
ATOM     32  C   UNL     1       3.792  14.756  18.896  0.00  0.00    +0.000 A 
ATOM     33  C   UNL     1       5.405  14.400  18.673  0.00  0.00    +0.000 A 
ATOM     34  C   UNL     1       6.677  15.355  18.650  0.00  0.00    +0.000 A 
ATOM     35  C   UNL     1       6.559  16.720  18.786  0.00  0.00    +0.000 A 
ATOM     36  C   UNL     1       5.250  17.087  19.160  0.00  0.00    +0.000 A 
ATOM     37  C   UNL     1       4.202  16.038  19.612  0.00  0.00    +0.000 A 
ENDROOT
TORSDOF 0
ENDMDL
MODEL 6
REMARK VINA RESULT:      -6.3      6.094      8.333
REMARK  Name = 
REMARK  1 active torsions:
REMARK  status: ('A' for Active; 'I' for Inactive)
REMARK    1  A    between atoms: C_1  and  N_2
REMARK                            x       y       z     vdW  Elec       q    Type
REMARK                         _______ _______ _______ _____ _____    ______ ____
ROOT
ATOM      1  C   UNL     1       1.221  17.421  24.431  0.00  0.00    +0.000 C 
ATOM      2  N   UNL     1       0.134  16.845  23.464  0.00  0.00    +0.000 N 
ATOM      3  C   UNL     1      -0.787  15.782  23.365  0.00  0.00    +0.000 C 
ATOM      4  O   UNL     1      -0.965  14.962  24.268  0.00  0.00    +0.000 OA
ATOM      5  C   UNL     1      -1.314  15.342  21.695  0.00  0.00    +0.000 C 
ATOM      6  C   UNL     1       0.372  15.729  21.507  0.00  0.00    +0.000 C 
ATOM      7  C   UNL     1       0.514  17.064  22.203  0.00  0.00    +0.000 C 
ATOM      8  O   UNL     1       1.217  17.962  21.817  0.00  0.00    +0.000 OA
ATOM      9  C   UNL     1       2.138  15.620  20.918  0.00  0.00    +0.000 A 
ATOM     10  C   UNL     1       3.006  14.577  21.144  0.00  0.00    +0.000 A 
ATOM     11  N   UNL     1       3.742  14.583  19.851  0.00  0.00    +0.000 N 
ATOM     12  C   UNL     1       4.227  15.831  19.522  0.00  0.00    +0.000 A 
ATOM     13  C   UNL     1       5.398  15.939  18.645  0.00  0.00    +0.000 A 
ATOM     14  C   UNL     1       6.526  16.563  19.113  0.00  0.00    +0.000 A 
ATOM     15  C   UNL     1       6.341  17.099  20.362  0.00  0.00    +0.000 A 
ATOM     16  C   UNL     1       4.965  17.118  21.081  0.00  0.00    +0.000 A 
ATOM     17  C   UNL     1       3.611  16.618  20.513  0.00  0.00    +0.000 A 
ATOM     18  C   UNL     1       3.290  13.984  18.581  0.00  0.00    +0.000 C 
ATOM     19  C   UNL     1       1.910  13.989  18.962  0.00  0.00    +0.000 C 
ATOM     20  O   UNL     1       1.013  13.300  18.280  0.00  0.00    +0.000 OA
ATOM     21  C   UNL     1      -0.050  13.447  19.141  0.00  0.00    +0.000 C 
ATOM     22  C   UNL     1      -0.880  12.795  18.215  0.00  0.00    +0.000 C 
ATOM     23  O   UNL     1      -2.042  12.540  18.791  0.00  0.00    +0.000 OA
ATOM     24  C   UNL     1      -2.583  11.771  17.766  0.00  0.00    +0.000 C 
ATOM     25  C   UNL     1      -3.713  11.374  18.514  0.00  0.00    +0.000 C 
ATOM     26  O   UNL     1      -4.466  10.412  17.921  0.00  0.00    +0.000 OA
ATOM     27  C   UNL     1      -5.643  10.518  18.679  0.00  0.00    +0.000 C 
ATOM     28  C   UNL     1      -5.719  11.490  20.007  0.00  0.00    +0.000 C 
ATOM     29  N   UNL     1      -4.831  12.771  20.365  0.00  0.00    +0.000 N 
ATOM     30  C   UNL     1      -3.458  13.037  21.196  0.00  0.00    +0.000 A 
ATOM     31  C   UNL     1      -2.999  14.467  21.310  0.00  0.00    +0.000 A 
ATOM     32  C   UNL     1      -4.858  14.767  21.132  0.00  0.00    +0.000 A 
ATOM     33  C   UNL     1      -6.223  14.208  21.909  0.00  0.00    +0.000 A 
ATOM     34  C   UNL     1      -7.634  13.766  21.322  0.00  0.00    +0.000 A 
ATOM     35  C   UNL     1      -7.915  13.844  19.977  0.00  0.00    +0.000 A 
ATOM     36  C   UNL     1      -6.757  14.134  19.227  0.00  0.00    +0.000 A 
ATOM     37  C   UNL     1      -5.339  14.085  19.856  0.00  0.00    +0.000 A 
ENDROOT
TORSDOF 0
ENDMDL
MODEL 7
REMARK VINA RESULT:      -6.2      5.405      9.878
REMARK  Name = 
REMARK  1 active torsions:
REMARK  status: ('A' for Active; 'I' for Inactive)
REMARK    1  A    between atoms: C_1  and  N_2
REMARK                            x       y       z     vdW  Elec       q    Type
REMARK                         _______ _______ _______ _____ _____    ______ ____
ROOT
ATOM      1  C   UNL     1       2.016  12.224  18.569  0.00  0.00    +0.000 C 
ATOM      2  N   UNL     1       0.761  12.459  19.473  0.00  0.00    +0.000 N 
ATOM      3  C   UNL     1      -0.538  13.004  19.419  0.00  0.00    +0.000 C 
ATOM      4  O   UNL     1      -1.038  13.447  18.382  0.00  0.00    +0.000 OA
ATOM      5  C   UNL     1      -1.250  13.518  20.996  0.00  0.00    +0.000 C 
ATOM      6  C   UNL     1       0.427  13.961  21.138  0.00  0.00    +0.000 C 
ATOM      7  C   UNL     1       1.164  12.708  20.722  0.00  0.00    +0.000 C 
ATOM      8  O   UNL     1       2.182  12.316  21.233  0.00  0.00    +0.000 OA
ATOM      9  C   UNL     1       1.945  14.957  21.561  0.00  0.00    +0.000 A 
ATOM     10  C   UNL     1       2.266  16.199  21.063  0.00  0.00    +0.000 A 
ATOM     11  N   UNL     1       2.893  16.795  22.274  0.00  0.00    +0.000 N 
ATOM     12  C   UNL     1       3.872  15.990  22.816  0.00  0.00    +0.000 A 
ATOM     13  C   UNL     1       4.946  16.599  23.608  0.00  0.00    +0.000 A 
ATOM     14  C   UNL     1       6.246  16.448  23.198  0.00  0.00    +0.000 A 
ATOM     15  C   UNL     1       6.352  15.629  22.103  0.00  0.00    +0.000 A 
ATOM     16  C   UNL     1       5.146  14.854  21.504  0.00  0.00    +0.000 A 
ATOM     17  C   UNL     1       3.696  14.819  22.054  0.00  0.00    +0.000 A 
ATOM     18  C   UNL     1       2.188  17.394  23.423  0.00  0.00    +0.000 C 
ATOM     19  C   UNL     1       0.965  16.702  23.152  0.00  0.00    +0.000 C 
ATOM     20  O   UNL     1      -0.163  17.058  23.742  0.00  0.00    +0.000 OA
ATOM     21  C   UNL     1      -1.026  16.278  23.009  0.00  0.00    +0.000 C 
ATOM     22  C   UNL     1      -2.085  16.683  23.838  0.00  0.00    +0.000 C 
ATOM     23  O   UNL     1      -3.222  16.271  23.308  0.00  0.00    +0.000 OA
ATOM     24  C   UNL     1      -4.076  16.927  24.190  0.00  0.00    +0.000 C 
ATOM     25  C   UNL     1      -5.245  16.616  23.461  0.00  0.00    +0.000 C 
ATOM     26  O   UNL     1      -6.362  17.253  23.896  0.00  0.00    +0.000 OA
ATOM     27  C   UNL     1      -7.349  16.482  23.264  0.00  0.00    +0.000 C 
ATOM     28  C   UNL     1      -6.950  15.313  22.173  0.00  0.00    +0.000 C 
ATOM     29  N   UNL     1      -5.576  14.507  22.022  0.00  0.00    +0.000 N 
ATOM     30  C   UNL     1      -4.207  14.698  21.166  0.00  0.00    +0.000 A 
ATOM     31  C   UNL     1      -3.158  13.626  21.315  0.00  0.00    +0.000 A 
ATOM     32  C   UNL     1      -4.695  12.588  21.685  0.00  0.00    +0.000 A 
ATOM     33  C   UNL     1      -6.145  12.309  20.912  0.00  0.00    +0.000 A 
ATOM     34  C   UNL     1      -7.621  12.204  21.496  0.00  0.00    +0.000 A 
ATOM     35  C   UNL     1      -7.874  12.303  22.845  0.00  0.00    +0.000 A 
ATOM     36  C   UNL     1      -6.728  12.720  23.552  0.00  0.00    +0.000 A 
ATOM     37  C   UNL     1      -5.463  13.248  22.826  0.00  0.00    +0.000 A 
ENDROOT
TORSDOF 0
ENDMDL
MODEL 8
REMARK VINA RESULT:      -6.2      6.097      8.669
REMARK  Name = 
REMARK  1 active torsions:
REMARK  status: ('A' for Active; 'I' for Inactive)
REMARK    1  A    between atoms: C_1  and  N_2
REMARK                            x       y       z     vdW  Elec       q    Type
REMARK                         _______ _______ _______ _____ _____    ______ ____
ROOT
ATOM      1  C   UNL     1      -3.510  17.654  25.268  0.00  0.00    +0.000 C 
ATOM      2  N   UNL     1      -2.233  17.000  24.644  0.00  0.00    +0.000 N 
ATOM      3  C   UNL     1      -1.183  17.291  23.749  0.00  0.00    +0.000 C 
ATOM      4  O   UNL     1      -1.036  18.396  23.221  0.00  0.00    +0.000 OA
ATOM      5  C   UNL     1      -0.372  15.868  22.988  0.00  0.00    +0.000 C 
ATOM      6  C   UNL     1      -2.049  15.404  23.046  0.00  0.00    +0.000 C 
ATOM      7  C   UNL     1      -2.452  15.694  24.474  0.00  0.00    +0.000 C 
ATOM      8  O   UNL     1      -3.197  15.007  25.124  0.00  0.00    +0.000 OA
ATOM      9  C   UNL     1      -3.685  14.684  22.516  0.00  0.00    +0.000 A 
ATOM     10  C   UNL     1      -4.441  15.092  21.441  0.00  0.00    +0.000 A 
ATOM     11  N   UNL     1      -4.979  13.774  21.005  0.00  0.00    +0.000 N 
ATOM     12  C   UNL     1      -5.562  13.070  22.037  0.00  0.00    +0.000 A 
ATOM     13  C   UNL     1      -6.600  12.079  21.735  0.00  0.00    +0.000 A 
ATOM     14  C   UNL     1      -7.851  12.238  22.272  0.00  0.00    +0.000 A 
ATOM     15  C   UNL     1      -7.915  13.307  23.129  0.00  0.00    +0.000 A 
ATOM     16  C   UNL     1      -6.669  14.136  23.544  0.00  0.00    +0.000 A 
ATOM     17  C   UNL     1      -5.196  13.871  23.135  0.00  0.00    +0.000 A 
ATOM     18  C   UNL     1      -4.279  12.770  20.182  0.00  0.00    +0.000 C 
ATOM     19  C   UNL     1      -2.979  13.279  20.500  0.00  0.00    +0.000 C 
ATOM     20  O   UNL     1      -1.916  12.907  19.810  0.00  0.00    +0.000 OA
ATOM     21  C   UNL     1      -1.014  13.803  20.335  0.00  0.00    +0.000 C 
ATOM     22  C   UNL     1       0.014  13.182  19.608  0.00  0.00    +0.000 C 
ATOM     23  O   UNL     1       1.104  13.925  19.693  0.00  0.00    +0.000 OA
ATOM     24  C   UNL     1       1.877  13.209  18.784  0.00  0.00    +0.000 C 
ATOM     25  C   UNL     1       2.929  14.152  18.771  0.00  0.00    +0.000 C 
ATOM     26  O   UNL     1       3.871  13.925  17.820  0.00  0.00    +0.000 OA
ATOM     27  C   UNL     1       4.906  14.746  18.297  0.00  0.00    +0.000 C 
ATOM     28  C   UNL     1       4.670  15.761  19.574  0.00  0.00    +0.000 C 
ATOM     29  N   UNL     1       3.588  15.663  20.748  0.00  0.00    +0.000 N 
ATOM     30  C   UNL     1       2.088  16.241  20.997  0.00  0.00    +0.000 A 
ATOM     31  C   UNL     1       1.446  15.915  22.319  0.00  0.00    +0.000 A 
ATOM     32  C   UNL     1       3.259  15.859  22.852  0.00  0.00    +0.000 A 
ATOM     33  C   UNL     1       4.557  16.898  22.729  0.00  0.00    +0.000 A 
ATOM     34  C   UNL     1       6.081  16.605  22.379  0.00  0.00    +0.000 A 
ATOM     35  C   UNL     1       6.541  15.327  22.158  0.00  0.00    +0.000 A 
ATOM     36  C   UNL     1       5.475  14.408  22.063  0.00  0.00    +0.000 A 
ATOM     37  C   UNL     1       3.999  14.873  21.954  0.00  0.00    +0.000 A 
ENDROOT
TORSDOF 0
ENDMDL
MODEL 9
REMARK VINA RESULT:      -6.2      6.090      9.653
REMARK  Name = 
REMARK  1 active torsions:
REMARK  status: ('A' for Active; 'I' for Inactive)
REMARK    1  A    between atoms: C_1  and  N_2
REMARK                            x       y       z     vdW  Elec       q    Type
REMARK                         _______ _______ _______ _____ _____    ______ ____
ROOT
ATOM      1  C   UNL     1       2.992  18.357  23.750  0.00  0.00    +0.000 C 
ATOM      2  N   UNL     1       1.577  17.903  23.258  0.00  0.00    +0.000 N 
ATOM      3  C   UNL     1       0.465  17.147  23.678  0.00  0.00    +0.000 C 
ATOM      4  O   UNL     1       0.384  16.637  24.798  0.00  0.00    +0.000 OA
ATOM      5  C   UNL     1      -0.598  16.503  22.368  0.00  0.00    +0.000 C 
ATOM      6  C   UNL     1       1.005  16.350  21.710  0.00  0.00    +0.000 C 
ATOM      7  C   UNL     1       1.618  17.714  21.936  0.00  0.00    +0.000 C 
ATOM      8  O   UNL     1       2.353  18.267  21.159  0.00  0.00    +0.000 OA
ATOM      9  C   UNL     1       2.465  15.621  20.807  0.00  0.00    +0.000 A 
ATOM     10  C   UNL     1       3.122  14.456  21.133  0.00  0.00    +0.000 A 
ATOM     11  N   UNL     1       3.441  13.963  19.766  0.00  0.00    +0.000 N 
ATOM     12  C   UNL     1       4.062  14.916  18.988  0.00  0.00    +0.000 A 
ATOM     13  C   UNL     1       4.929  14.490  17.884  0.00  0.00    +0.000 A 
ATOM     14  C   UNL     1       6.248  14.864  17.890  0.00  0.00    +0.000 A 
ATOM     15  C   UNL     1       6.546  15.700  18.936  0.00  0.00    +0.000 A 
ATOM     16  C   UNL     1       5.469  16.265  19.901  0.00  0.00    +0.000 A 
ATOM     17  C   UNL     1       3.935  16.048  19.816  0.00  0.00    +0.000 A 
ATOM     18  C   UNL     1       2.529  13.241  18.859  0.00  0.00    +0.000 C 
ATOM     19  C   UNL     1       1.349  13.718  19.514  0.00  0.00    +0.000 C 
ATOM     20  O   UNL     1       0.170  13.171  19.277  0.00  0.00    +0.000 OA
ATOM     21  C   UNL     1      -0.546  13.801  20.269  0.00  0.00    +0.000 C 
ATOM     22  C   UNL     1      -1.724  13.213  19.780  0.00  0.00    +0.000 C 
ATOM     23  O   UNL     1      -2.699  13.432  20.645  0.00  0.00    +0.000 OA
ATOM     24  C   UNL     1      -3.660  12.632  20.035  0.00  0.00    +0.000 C 
ATOM     25  C   UNL     1      -4.586  12.748  21.095  0.00  0.00    +0.000 C 
ATOM     26  O   UNL     1      -5.662  11.926  20.990  0.00  0.00    +0.000 OA
ATOM     27  C   UNL     1      -6.523  12.526  21.922  0.00  0.00    +0.000 C 
ATOM     28  C   UNL     1      -6.009  13.756  22.890  0.00  0.00    +0.000 C 
ATOM     29  N   UNL     1      -4.807  14.785  22.654  0.00  0.00    +0.000 N 
ATOM     30  C   UNL     1      -3.230  14.838  23.048  0.00  0.00    +0.000 A 
ATOM     31  C   UNL     1      -2.468  16.070  22.636  0.00  0.00    +0.000 A 
ATOM     32  C   UNL     1      -4.193  16.828  22.789  0.00  0.00    +0.000 A 
ATOM     33  C   UNL     1      -5.365  16.866  23.975  0.00  0.00    +0.000 A 
ATOM     34  C   UNL     1      -6.944  16.714  23.867  0.00  0.00    +0.000 A 
ATOM     35  C   UNL     1      -7.576  16.559  22.654  0.00  0.00    +0.000 A 
ATOM     36  C   UNL     1      -6.647  16.335  21.617  0.00  0.00    +0.000 A 
ATOM     37  C   UNL     1      -5.152  16.037  21.906  0.00  0.00    +0.000 A 
ENDROOT
TORSDOF 0
ENDMDL
