MODEL 1
REMARK VINA RESULT:      -7.1      0.000      0.000
REMARK  Name = 
REMARK  7 active torsions:
REMARK  status: ('A' for Active; 'I' for Inactive)
REMARK    1  A    between atoms: C_1  and  C_2
REMARK    2  A    between atoms: C_2  and  C_3
REMARK    3  A    between atoms: C_2  and  N_4
REMARK    4  A    between atoms: N_9  and  C_10
REMARK    5  A    between atoms: N_19  and  C_20
REMARK    6  A    between atoms: C_20  and  C_21
REMARK    7  A    between atoms: C_21  and  O_22
REMARK                            x       y       z     vdW  Elec       q    Type
REMARK                         _______ _______ _______ _____ _____    ______ ____
ROOT
ATOM      1  N   UNL     1       2.345   4.246  19.982  0.00  0.00    +0.000 N 
ATOM      2  C   UNL     1       3.158   3.590  19.094  0.00  0.00    +0.000 A 
ATOM      3  N   UNL     1       3.621   4.393  18.171  0.00  0.00    +0.000 NA
ATOM      4  C   UNL     1       3.123   5.640  18.494  0.00  0.00    +0.000 A 
ATOM      5  C   UNL     1       3.276   6.900  17.896  0.00  0.00    +0.000 A 
ATOM      6  N   UNL     1       4.038   7.126  16.740  0.00  0.00    +0.000 N 
ATOM      7  N   UNL     1       2.606   7.946  18.454  0.00  0.00    +0.000 NA
ATOM      8  C   UNL     1       1.885   7.773  19.580  0.00  0.00    +0.000 A 
ATOM      9  N   UNL     1       1.287   8.868  20.178  0.00  0.00    +0.000 N 
ATOM     10  N   UNL     1       1.682   6.599  20.212  0.00  0.00    +0.000 NA
ATOM     11  C   UNL     1       2.322   5.574  19.626  0.00  0.00    +0.000 A 
ATOM     12  H   UNL     1       3.970   8.088  16.432  0.00  0.00    +0.000 HD
ATOM     13  H   UNL     1       0.651   8.545  20.897  0.00  0.00    +0.000 HD
ENDROOT
BRANCH   6  14
ATOM     14  C   UNL     1       5.206   6.456  16.326  0.00  0.00    +0.000 A 
ATOM     15  C   UNL     1       6.394   6.643  17.042  0.00  0.00    +0.000 A 
ATOM     16  C   UNL     1       7.586   6.035  16.629  0.00  0.00    +0.000 A 
ATOM     17  C   UNL     1       7.598   5.224  15.493  0.00  0.00    +0.000 A 
ATOM     18  C   UNL     1       6.423   5.025  14.782  0.00  0.00    +0.000 A 
ATOM     19 CL   UNL     1       6.435   4.049  13.362  0.00  0.00    +0.000 Cl
ATOM     20  C   UNL     1       5.233   5.621  15.199  0.00  0.00    +0.000 A 
ENDBRANCH   6  14
BRANCH   9  21
ATOM     21  C   UNL     1       0.838  10.030  19.396  0.00  0.00    +0.000 C 
ATOM     22  C   UNL     1      -0.189   9.541  18.350  0.00  0.00    +0.000 C 
ATOM     23  C   UNL     1      -1.073  10.743  18.045  0.00  0.00    +0.000 C 
ATOM     24  C   UNL     1      -1.039  11.619  19.288  0.00  0.00    +0.000 C 
ATOM     25  C   UNL     1      -0.007  11.005  20.234  0.00  0.00    +0.000 C 
BRANCH  21  26
ATOM     26  C   UNL     1       2.028  10.746  18.707  0.00  0.00    +0.000 C 
BRANCH  26  27
ATOM     27  O   UNL     1       2.078  10.451  17.308  0.00  0.00    +0.000 OA
ATOM     28  H   UNL     1       1.157  10.302  17.029  0.00  0.00    +0.000 HD
ENDBRANCH  26  27
ENDBRANCH  21  26
ENDBRANCH   9  21
BRANCH   1  30
ATOM     29  C   UNL     1       0.373   2.872  20.499  0.00  0.00    +0.000 C 
ATOM     30  C   UNL     1       1.599   3.606  21.055  0.00  0.00    +0.000 C 
ATOM     31  C   UNL     1       2.480   2.643  21.860  0.00  0.00    +0.000 C 
ENDBRANCH   1  30
TORSDOF 5
ENDMDL
MODEL 2
REMARK VINA RESULT:      -6.9      0.758      1.375
REMARK  Name = 
REMARK  7 active torsions:
REMARK  status: ('A' for Active; 'I' for Inactive)
REMARK    1  A    between atoms: C_1  and  C_2
REMARK    2  A    between atoms: C_2  and  C_3
REMARK    3  A    between atoms: C_2  and  N_4
REMARK    4  A    between atoms: N_9  and  C_10
REMARK    5  A    between atoms: N_19  and  C_20
REMARK    6  A    between atoms: C_20  and  C_21
REMARK    7  A    between atoms: C_21  and  O_22
REMARK                            x       y       z     vdW  Elec       q    Type
REMARK                         _______ _______ _______ _____ _____    ______ ____
ROOT
ATOM      1  N   UNL     1       2.135   4.335  19.875  0.00  0.00    +0.000 N 
ATOM      2  C   UNL     1       2.943   3.670  18.988  0.00  0.00    +0.000 A 
ATOM      3  N   UNL     1       3.477   4.481  18.112  0.00  0.00    +0.000 NA
ATOM      4  C   UNL     1       3.034   5.740  18.468  0.00  0.00    +0.000 A 
ATOM      5  C   UNL     1       3.272   7.012  17.926  0.00  0.00    +0.000 A 
ATOM      6  N   UNL     1       4.083   7.241  16.803  0.00  0.00    +0.000 N 
ATOM      7  N   UNL     1       2.640   8.070  18.503  0.00  0.00    +0.000 NA
ATOM      8  C   UNL     1       1.874   7.894  19.599  0.00  0.00    +0.000 A 
ATOM      9  N   UNL     1       1.315   8.996  20.220  0.00  0.00    +0.000 N 
ATOM     10  N   UNL     1       1.589   6.710  20.177  0.00  0.00    +0.000 NA
ATOM     11  C   UNL     1       2.194   5.675  19.571  0.00  0.00    +0.000 A 
ATOM     12  H   UNL     1       4.076   8.215  16.532  0.00  0.00    +0.000 HD
ATOM     13  H   UNL     1       0.640   8.681  20.906  0.00  0.00    +0.000 HD
ENDROOT
BRANCH   6  14
ATOM     14  C   UNL     1       5.228   6.525  16.400  0.00  0.00    +0.000 A 
ATOM     15  C   UNL     1       6.413   6.657  17.133  0.00  0.00    +0.000 A 
ATOM     16  C   UNL     1       7.584   6.002  16.731  0.00  0.00    +0.000 A 
ATOM     17  C   UNL     1       7.578   5.199  15.589  0.00  0.00    +0.000 A 
ATOM     18  C   UNL     1       6.405   5.055  14.861  0.00  0.00    +0.000 A 
ATOM     19 CL   UNL     1       6.396   4.090  13.433  0.00  0.00    +0.000 Cl
ATOM     20  C   UNL     1       5.235   5.697  15.267  0.00  0.00    +0.000 A 
ENDBRANCH   6  14
BRANCH   9  21
ATOM     21  C   UNL     1       0.954  10.209  19.471  0.00  0.00    +0.000 C 
ATOM     22  C   UNL     1       1.037  11.415  20.434  0.00  0.00    +0.000 C 
ATOM     23  C   UNL     1       1.309  12.629  19.555  0.00  0.00    +0.000 C 
ATOM     24  C   UNL     1       2.023  12.104  18.319  0.00  0.00    +0.000 C 
ATOM     25  C   UNL     1       2.009  10.578  18.414  0.00  0.00    +0.000 C 
BRANCH  21  26
ATOM     26  C   UNL     1      -0.464  10.095  18.854  0.00  0.00    +0.000 C 
BRANCH  26  27
ATOM     27  O   UNL     1      -0.406   9.965  17.431  0.00  0.00    +0.000 OA
ATOM     28  H   UNL     1      -0.008  10.789  17.099  0.00  0.00    +0.000 HD
ENDBRANCH  26  27
ENDBRANCH  21  26
ENDBRANCH   9  21
BRANCH   1  30
ATOM     29  C   UNL     1       0.345   2.697  20.267  0.00  0.00    +0.000 C 
ATOM     30  C   UNL     1       1.322   3.695  20.899  0.00  0.00    +0.000 C 
ATOM     31  C   UNL     1       2.188   3.002  21.957  0.00  0.00    +0.000 C 
ENDBRANCH   1  30
TORSDOF 5
ENDMDL
MODEL 3
REMARK VINA RESULT:      -6.5      3.079      6.566
REMARK  Name = 
REMARK  7 active torsions:
REMARK  status: ('A' for Active; 'I' for Inactive)
REMARK    1  A    between atoms: C_1  and  C_2
REMARK    2  A    between atoms: C_2  and  C_3
REMARK    3  A    between atoms: C_2  and  N_4
REMARK    4  A    between atoms: N_9  and  C_10
REMARK    5  A    between atoms: N_19  and  C_20
REMARK    6  A    between atoms: C_20  and  C_21
REMARK    7  A    between atoms: C_21  and  O_22
REMARK                            x       y       z     vdW  Elec       q    Type
REMARK                         _______ _______ _______ _____ _____    ______ ____
ROOT
ATOM      1  N   UNL     1       1.636   3.986  20.232  0.00  0.00    +0.000 N 
ATOM      2  C   UNL     1       0.749   4.921  20.702  0.00  0.00    +0.000 A 
ATOM      3  N   UNL     1       1.083   6.134  20.344  0.00  0.00    +0.000 NA
ATOM      4  C   UNL     1       2.216   5.983  19.568  0.00  0.00    +0.000 A 
ATOM      5  C   UNL     1       3.025   6.907  18.891  0.00  0.00    +0.000 A 
ATOM      6  N   UNL     1       2.798   8.292  18.897  0.00  0.00    +0.000 N 
ATOM      7  N   UNL     1       4.114   6.425  18.232  0.00  0.00    +0.000 NA
ATOM      8  C   UNL     1       4.351   5.099  18.182  0.00  0.00    +0.000 A 
ATOM      9  N   UNL     1       5.413   4.626  17.432  0.00  0.00    +0.000 N 
ATOM     10  N   UNL     1       3.630   4.147  18.808  0.00  0.00    +0.000 NA
ATOM     11  C   UNL     1       2.580   4.646  19.482  0.00  0.00    +0.000 A 
ATOM     12  H   UNL     1       3.528   8.790  18.404  0.00  0.00    +0.000 HD
ATOM     13  H   UNL     1       5.554   3.645  17.641  0.00  0.00    +0.000 HD
ENDROOT
BRANCH   6  14
ATOM     14  C   UNL     1       1.564   8.968  18.962  0.00  0.00    +0.000 A 
ATOM     15  C   UNL     1       0.837   9.186  17.786  0.00  0.00    +0.000 A 
ATOM     16  C   UNL     1      -0.367   9.901  17.807  0.00  0.00    +0.000 A 
ATOM     17  C   UNL     1      -0.862  10.400  19.013  0.00  0.00    +0.000 A 
ATOM     18  C   UNL     1      -0.153  10.181  20.186  0.00  0.00    +0.000 A 
ATOM     19 CL   UNL     1      -0.741  10.819  21.674  0.00  0.00    +0.000 Cl
ATOM     20  C   UNL     1       1.041   9.460  20.169  0.00  0.00    +0.000 A 
ENDBRANCH   6  14
BRANCH   9  21
ATOM     21  C   UNL     1       6.632   5.423  17.225  0.00  0.00    +0.000 C 
ATOM     22  C   UNL     1       6.212   6.867  16.871  0.00  0.00    +0.000 C 
ATOM     23  C   UNL     1       7.373   7.754  17.302  0.00  0.00    +0.000 C 
ATOM     24  C   UNL     1       8.073   7.013  18.432  0.00  0.00    +0.000 C 
ATOM     25  C   UNL     1       7.417   5.636  18.531  0.00  0.00    +0.000 C 
BRANCH  21  26
ATOM     26  C   UNL     1       7.524   4.819  16.110  0.00  0.00    +0.000 C 
BRANCH  26  27
ATOM     27  O   UNL     1       7.371   5.527  14.877  0.00  0.00    +0.000 OA
ATOM     28  H   UNL     1       7.945   5.078  14.233  0.00  0.00    +0.000 HD
ENDBRANCH  26  27
ENDBRANCH  21  26
ENDBRANCH   9  21
BRANCH   1  30
ATOM     29  C   UNL     1       1.707   1.723  19.275  0.00  0.00    +0.000 C 
ATOM     30  C   UNL     1       1.593   2.567  20.550  0.00  0.00    +0.000 C 
ATOM     31  C   UNL     1       2.688   2.178  21.551  0.00  0.00    +0.000 C 
ENDBRANCH   1  30
TORSDOF 5
ENDMDL
MODEL 4
REMARK VINA RESULT:      -6.4      1.076      1.367
REMARK  Name = 
REMARK  7 active torsions:
REMARK  status: ('A' for Active; 'I' for Inactive)
REMARK    1  A    between atoms: C_1  and  C_2
REMARK    2  A    between atoms: C_2  and  C_3
REMARK    3  A    between atoms: C_2  and  N_4
REMARK    4  A    between atoms: N_9  and  C_10
REMARK    5  A    between atoms: N_19  and  C_20
REMARK    6  A    between atoms: C_20  and  C_21
REMARK    7  A    between atoms: C_21  and  O_22
REMARK                            x       y       z     vdW  Elec       q    Type
REMARK                         _______ _______ _______ _____ _____    ______ ____
ROOT
ATOM      1  N   UNL     1       2.046   4.153  19.895  0.00  0.00    +0.000 N 
ATOM      2  C   UNL     1       2.832   3.481  18.995  0.00  0.00    +0.000 A 
ATOM      3  N   UNL     1       3.395   4.292  18.137  0.00  0.00    +0.000 NA
ATOM      4  C   UNL     1       2.992   5.557  18.519  0.00  0.00    +0.000 A 
ATOM      5  C   UNL     1       3.272   6.832  18.004  0.00  0.00    +0.000 A 
ATOM      6  N   UNL     1       4.092   7.058  16.887  0.00  0.00    +0.000 N 
ATOM      7  N   UNL     1       2.673   7.898  18.602  0.00  0.00    +0.000 NA
ATOM      8  C   UNL     1       1.900   7.723  19.693  0.00  0.00    +0.000 A 
ATOM      9  N   UNL     1       1.376   8.829  20.337  0.00  0.00    +0.000 N 
ATOM     10  N   UNL     1       1.576   6.537  20.246  0.00  0.00    +0.000 NA
ATOM     11  C   UNL     1       2.148   5.496  19.619  0.00  0.00    +0.000 A 
ATOM     12  H   UNL     1       4.116   8.038  16.636  0.00  0.00    +0.000 HD
ATOM     13  H   UNL     1       0.689   8.522  21.016  0.00  0.00    +0.000 HD
ENDROOT
BRANCH   6  14
ATOM     14  C   UNL     1       5.213   6.314  16.471  0.00  0.00    +0.000 A 
ATOM     15  C   UNL     1       5.364   6.001  15.115  0.00  0.00    +0.000 A 
ATOM     16  C   UNL     1       6.438   5.218  14.672  0.00  0.00    +0.000 A 
ATOM     17  C   UNL     1       7.380   4.745  15.587  0.00  0.00    +0.000 A 
ATOM     18  C   UNL     1       7.245   5.059  16.932  0.00  0.00    +0.000 A 
ATOM     19 CL   UNL     1       8.387   4.455  18.072  0.00  0.00    +0.000 Cl
ATOM     20  C   UNL     1       6.182   5.848  17.373  0.00  0.00    +0.000 A 
ENDBRANCH   6  14
BRANCH   9  21
ATOM     21  C   UNL     1       1.055  10.069  19.613  0.00  0.00    +0.000 C 
ATOM     22  C   UNL     1      -0.255   9.843  18.825  0.00  0.00    +0.000 C 
ATOM     23  C   UNL     1      -0.879  11.222  18.655  0.00  0.00    +0.000 C 
ATOM     24  C   UNL     1      -0.379  12.059  19.824  0.00  0.00    +0.000 C 
ATOM     25  C   UNL     1       0.657  11.212  20.563  0.00  0.00    +0.000 C 
BRANCH  21  26
ATOM     26  C   UNL     1       2.205  10.486  18.661  0.00  0.00    +0.000 C 
BRANCH  26  27
ATOM     27  O   UNL     1       1.861  10.256  17.293  0.00  0.00    +0.000 OA
ATOM     28  H   UNL     1       0.905  10.077  17.279  0.00  0.00    +0.000 HD
ENDBRANCH  26  27
ENDBRANCH  21  26
ENDBRANCH   9  21
BRANCH   1  30
ATOM     29  C   UNL     1       0.214   2.552  20.252  0.00  0.00    +0.000 C 
ATOM     30  C   UNL     1       1.210   3.518  20.904  0.00  0.00    +0.000 C 
ATOM     31  C   UNL     1       2.051   2.790  21.958  0.00  0.00    +0.000 C 
ENDBRANCH   1  30
TORSDOF 5
ENDMDL
MODEL 5
REMARK VINA RESULT:      -6.3      2.682      6.347
REMARK  Name = 
REMARK  7 active torsions:
REMARK  status: ('A' for Active; 'I' for Inactive)
REMARK    1  A    between atoms: C_1  and  C_2
REMARK    2  A    between atoms: C_2  and  C_3
REMARK    3  A    between atoms: C_2  and  N_4
REMARK    4  A    between atoms: N_9  and  C_10
REMARK    5  A    between atoms: N_19  and  C_20
REMARK    6  A    between atoms: C_20  and  C_21
REMARK    7  A    between atoms: C_21  and  O_22
REMARK                            x       y       z     vdW  Elec       q    Type
REMARK                         _______ _______ _______ _____ _____    ______ ____
ROOT
ATOM      1  N   UNL     1       1.555   4.141  20.212  0.00  0.00    +0.000 N 
ATOM      2  C   UNL     1       0.683   5.083  20.695  0.00  0.00    +0.000 A 
ATOM      3  N   UNL     1       1.014   6.292  20.318  0.00  0.00    +0.000 NA
ATOM      4  C   UNL     1       2.128   6.128  19.518  0.00  0.00    +0.000 A 
ATOM      5  C   UNL     1       2.926   7.043  18.813  0.00  0.00    +0.000 A 
ATOM      6  N   UNL     1       2.705   8.429  18.812  0.00  0.00    +0.000 N 
ATOM      7  N   UNL     1       3.997   6.550  18.134  0.00  0.00    +0.000 NA
ATOM      8  C   UNL     1       4.226   5.222  18.090  0.00  0.00    +0.000 A 
ATOM      9  N   UNL     1       5.268   4.738  17.320  0.00  0.00    +0.000 N 
ATOM     10  N   UNL     1       3.516   4.279  18.741  0.00  0.00    +0.000 NA
ATOM     11  C   UNL     1       2.484   4.789  19.434  0.00  0.00    +0.000 A 
ATOM     12  H   UNL     1       3.426   8.919  18.298  0.00  0.00    +0.000 HD
ATOM     13  H   UNL     1       5.410   3.758  17.534  0.00  0.00    +0.000 HD
ENDROOT
BRANCH   6  14
ATOM     14  C   UNL     1       1.476   9.111  18.900  0.00  0.00    +0.000 A 
ATOM     15  C   UNL     1       1.115   9.721  20.107  0.00  0.00    +0.000 A 
ATOM     16  C   UNL     1      -0.123  10.362  20.247  0.00  0.00    +0.000 A 
ATOM     17  C   UNL     1      -1.012  10.405  19.172  0.00  0.00    +0.000 A 
ATOM     18  C   UNL     1      -0.659   9.811  17.969  0.00  0.00    +0.000 A 
ATOM     19 CL   UNL     1      -1.763   9.833  16.646  0.00  0.00    +0.000 Cl
ATOM     20  C   UNL     1       0.578   9.182  17.824  0.00  0.00    +0.000 A 
ENDBRANCH   6  14
BRANCH   9  21
ATOM     21  C   UNL     1       6.486   5.527  17.078  0.00  0.00    +0.000 C 
ATOM     22  C   UNL     1       6.071   6.997  16.844  0.00  0.00    +0.000 C 
ATOM     23  C   UNL     1       7.277   7.836  17.247  0.00  0.00    +0.000 C 
ATOM     24  C   UNL     1       8.038   7.015  18.276  0.00  0.00    +0.000 C 
ATOM     25  C   UNL     1       7.364   5.644  18.336  0.00  0.00    +0.000 C 
BRANCH  21  26
ATOM     26  C   UNL     1       7.287   4.981  15.867  0.00  0.00    +0.000 C 
BRANCH  26  27
ATOM     27  O   UNL     1       6.858   5.582  14.643  0.00  0.00    +0.000 OA
ATOM     28  H   UNL     1       7.602   5.494  14.022  0.00  0.00    +0.000 HD
ENDBRANCH  26  27
ENDBRANCH  21  26
ENDBRANCH   9  21
BRANCH   1  30
ATOM     29  C   UNL     1       1.627   1.868  19.277  0.00  0.00    +0.000 C 
ATOM     30  C   UNL     1       1.513   2.724  20.544  0.00  0.00    +0.000 C 
ATOM     31  C   UNL     1       2.608   2.345  21.548  0.00  0.00    +0.000 C 
ENDBRANCH   1  30
TORSDOF 5
ENDMDL
MODEL 6
REMARK VINA RESULT:      -6.3      8.473     11.332
REMARK  Name = 
REMARK  7 active torsions:
REMARK  status: ('A' for Active; 'I' for Inactive)
REMARK    1  A    between atoms: C_1  and  C_2
REMARK    2  A    between atoms: C_2  and  C_3
REMARK    3  A    between atoms: C_2  and  N_4
REMARK    4  A    between atoms: N_9  and  C_10
REMARK    5  A    between atoms: N_19  and  C_20
REMARK    6  A    between atoms: C_20  and  C_21
REMARK    7  A    between atoms: C_21  and  O_22
REMARK                            x       y       z     vdW  Elec       q    Type
REMARK                         _______ _______ _______ _____ _____    ______ ____
ROOT
ATOM      1  N   UNL     1       5.188  15.361  21.696  0.00  0.00    +0.000 N 
ATOM      2  C   UNL     1       4.522  14.860  22.785  0.00  0.00    +0.000 A 
ATOM      3  N   UNL     1       5.130  13.820  23.294  0.00  0.00    +0.000 NA
ATOM      4  C   UNL     1       6.270  13.659  22.529  0.00  0.00    +0.000 A 
ATOM      5  C   UNL     1       7.323  12.734  22.590  0.00  0.00    +0.000 A 
ATOM      6  N   UNL     1       7.398  11.701  23.537  0.00  0.00    +0.000 N 
ATOM      7  N   UNL     1       8.298  12.828  21.645  0.00  0.00    +0.000 NA
ATOM      8  C   UNL     1       8.274  13.823  20.736  0.00  0.00    +0.000 A 
ATOM      9  N   UNL     1       9.322  13.951  19.842  0.00  0.00    +0.000 N 
ATOM     10  N   UNL     1       7.299  14.745  20.604  0.00  0.00    +0.000 NA
ATOM     11  C   UNL     1       6.329  14.614  21.524  0.00  0.00    +0.000 A 
ATOM     12  H   UNL     1       8.199  11.105  23.374  0.00  0.00    +0.000 HD
ATOM     13  H   UNL     1       9.068  14.624  19.129  0.00  0.00    +0.000 HD
ENDROOT
BRANCH   6  14
ATOM     14  C   UNL     1       6.928  11.705  24.865  0.00  0.00    +0.000 A 
ATOM     15  C   UNL     1       7.662  12.374  25.851  0.00  0.00    +0.000 A 
ATOM     16  C   UNL     1       7.252  12.354  27.190  0.00  0.00    +0.000 A 
ATOM     17  C   UNL     1       6.094  11.668  27.556  0.00  0.00    +0.000 A 
ATOM     18  C   UNL     1       5.354  11.009  26.583  0.00  0.00    +0.000 A 
ATOM     19 CL   UNL     1       3.938  10.134  27.030  0.00  0.00    +0.000 Cl
ATOM     20  C   UNL     1       5.754  11.037  25.247  0.00  0.00    +0.000 A 
ENDBRANCH   6  14
BRANCH   9  21
ATOM     21  C   UNL     1      10.097  12.788  19.382  0.00  0.00    +0.000 C 
ATOM     22  C   UNL     1      11.005  13.242  18.217  0.00  0.00    +0.000 C 
ATOM     23  C   UNL     1      12.187  12.282  18.215  0.00  0.00    +0.000 C 
ATOM     24  C   UNL     1      12.328  11.784  19.646  0.00  0.00    +0.000 C 
ATOM     25  C   UNL     1      11.130  12.326  20.424  0.00  0.00    +0.000 C 
BRANCH  21  26
ATOM     26  C   UNL     1       9.169  11.627  18.938  0.00  0.00    +0.000 C 
BRANCH  26  27
ATOM     27  O   UNL     1       9.180  10.556  19.886  0.00  0.00    +0.000 OA
ATOM     28  H   UNL     1       8.545  10.802  20.581  0.00  0.00    +0.000 HD
ENDBRANCH  26  27
ENDBRANCH  21  26
ENDBRANCH   9  21
BRANCH   1  30
ATOM     29  C   UNL     1       3.177  16.528  20.899  0.00  0.00    +0.000 C 
ATOM     30  C   UNL     1       4.707  16.447  20.854  0.00  0.00    +0.000 C 
ATOM     31  C   UNL     1       5.327  17.791  21.256  0.00  0.00    +0.000 C 
ENDBRANCH   1  30
TORSDOF 5
ENDMDL
MODEL 7
REMARK VINA RESULT:      -6.3      2.821      6.760
REMARK  Name = 
REMARK  7 active torsions:
REMARK  status: ('A' for Active; 'I' for Inactive)
REMARK    1  A    between atoms: C_1  and  C_2
REMARK    2  A    between atoms: C_2  and  C_3
REMARK    3  A    between atoms: C_2  and  N_4
REMARK    4  A    between atoms: N_9  and  C_10
REMARK    5  A    between atoms: N_19  and  C_20
REMARK    6  A    between atoms: C_20  and  C_21
REMARK    7  A    between atoms: C_21  and  O_22
REMARK                            x       y       z     vdW  Elec       q    Type
REMARK                         _______ _______ _______ _____ _____    ______ ____
ROOT
ATOM      1  N   UNL     1       2.089   4.030  20.307  0.00  0.00    +0.000 N 
ATOM      2  C   UNL     1       1.469   5.023  21.021  0.00  0.00    +0.000 A 
ATOM      3  N   UNL     1       1.642   6.199  20.475  0.00  0.00    +0.000 NA
ATOM      4  C   UNL     1       2.373   5.960  19.327  0.00  0.00    +0.000 A 
ATOM      5  C   UNL     1       2.853   6.811  18.320  0.00  0.00    +0.000 A 
ATOM      6  N   UNL     1       2.658   8.201  18.317  0.00  0.00    +0.000 N 
ATOM      7  N   UNL     1       3.587   6.250  17.320  0.00  0.00    +0.000 NA
ATOM      8  C   UNL     1       3.774   4.916  17.276  0.00  0.00    +0.000 A 
ATOM      9  N   UNL     1       4.447   4.360  16.202  0.00  0.00    +0.000 N 
ATOM     10  N   UNL     1       3.354   4.031  18.202  0.00  0.00    +0.000 NA
ATOM     11  C   UNL     1       2.662   4.608  19.199  0.00  0.00    +0.000 A 
ATOM     12  H   UNL     1       3.136   8.641  17.541  0.00  0.00    +0.000 HD
ATOM     13  H   UNL     1       4.652   3.389  16.407  0.00  0.00    +0.000 HD
ENDROOT
BRANCH   6  14
ATOM     14  C   UNL     1       1.557   8.922  18.817  0.00  0.00    +0.000 A 
ATOM     15  C   UNL     1       0.633   9.474  17.922  0.00  0.00    +0.000 A 
ATOM     16  C   UNL     1      -0.444  10.242  18.381  0.00  0.00    +0.000 A 
ATOM     17  C   UNL     1      -0.611  10.461  19.749  0.00  0.00    +0.000 A 
ATOM     18  C   UNL     1       0.295   9.911  20.646  0.00  0.00    +0.000 A 
ATOM     19 CL   UNL     1       0.113  10.202  22.335  0.00  0.00    +0.000 Cl
ATOM     20  C   UNL     1       1.361   9.136  20.191  0.00  0.00    +0.000 A 
ENDBRANCH   6  14
BRANCH   9  21
ATOM     21  C   UNL     1       5.490   5.098  15.473  0.00  0.00    +0.000 C 
ATOM     22  C   UNL     1       6.860   4.727  16.084  0.00  0.00    +0.000 C 
ATOM     23  C   UNL     1       7.880   4.944  14.974  0.00  0.00    +0.000 C 
ATOM     24  C   UNL     1       7.126   4.761  13.666  0.00  0.00    +0.000 C 
ATOM     25  C   UNL     1       5.648   4.607  14.025  0.00  0.00    +0.000 C 
BRANCH  21  26
ATOM     26  C   UNL     1       5.254   6.630  15.539  0.00  0.00    +0.000 C 
BRANCH  26  27
ATOM     27  O   UNL     1       6.140   7.256  16.470  0.00  0.00    +0.000 OA
ATOM     28  H   UNL     1       6.476   8.056  16.029  0.00  0.00    +0.000 HD
ENDBRANCH  26  27
ENDBRANCH  21  26
ENDBRANCH   9  21
BRANCH   1  30
ATOM     29  C   UNL     1       1.455   2.427  22.059  0.00  0.00    +0.000 C 
ATOM     30  C   UNL     1       2.165   2.636  20.716  0.00  0.00    +0.000 C 
ATOM     31  C   UNL     1       1.581   1.701  19.650  0.00  0.00    +0.000 C 
ENDBRANCH   1  30
TORSDOF 5
ENDMDL
MODEL 8
REMARK VINA RESULT:      -6.3      2.019      5.032
REMARK  Name = 
REMARK  7 active torsions:
REMARK  status: ('A' for Active; 'I' for Inactive)
REMARK    1  A    between atoms: C_1  and  C_2
REMARK    2  A    between atoms: C_2  and  C_3
REMARK    3  A    between atoms: C_2  and  N_4
REMARK    4  A    between atoms: N_9  and  C_10
REMARK    5  A    between atoms: N_19  and  C_20
REMARK    6  A    between atoms: C_20  and  C_21
REMARK    7  A    between atoms: C_21  and  O_22
REMARK                            x       y       z     vdW  Elec       q    Type
REMARK                         _______ _______ _______ _____ _____    ______ ____
ROOT
ATOM      1  N   UNL     1       5.312   6.536  17.529  0.00  0.00    +0.000 N 
ATOM      2  C   UNL     1       5.384   5.356  18.225  0.00  0.00    +0.000 A 
ATOM      3  N   UNL     1       4.397   5.229  19.073  0.00  0.00    +0.000 NA
ATOM      4  C   UNL     1       3.620   6.357  18.895  0.00  0.00    +0.000 A 
ATOM      5  C   UNL     1       2.428   6.786  19.499  0.00  0.00    +0.000 A 
ATOM      6  N   UNL     1       1.759   6.065  20.500  0.00  0.00    +0.000 N 
ATOM      7  N   UNL     1       1.928   7.992  19.115  0.00  0.00    +0.000 NA
ATOM      8  C   UNL     1       2.528   8.702  18.138  0.00  0.00    +0.000 A 
ATOM      9  N   UNL     1       1.951   9.881  17.703  0.00  0.00    +0.000 N 
ATOM     10  N   UNL     1       3.675   8.366  17.514  0.00  0.00    +0.000 NA
ATOM     11  C   UNL     1       4.172   7.190  17.932  0.00  0.00    +0.000 A 
ATOM     12  H   UNL     1       0.956   6.573  20.849  0.00  0.00    +0.000 HD
ATOM     13  H   UNL     1       2.607  10.369  17.104  0.00  0.00    +0.000 HD
ENDROOT
BRANCH   6  14
ATOM     14  C   UNL     1       1.689   4.668  20.662  0.00  0.00    +0.000 A 
ATOM     15  C   UNL     1       2.213   4.085  21.822  0.00  0.00    +0.000 A 
ATOM     16  C   UNL     1       2.209   2.695  21.994  0.00  0.00    +0.000 A 
ATOM     17  C   UNL     1       1.672   1.871  21.003  0.00  0.00    +0.000 A 
ATOM     18  C   UNL     1       1.142   2.441  19.854  0.00  0.00    +0.000 A 
ATOM     19 CL   UNL     1       0.504   1.430  18.613  0.00  0.00    +0.000 Cl
ATOM     20  C   UNL     1       1.134   3.825  19.686  0.00  0.00    +0.000 A 
ENDBRANCH   6  14
BRANCH   9  21
ATOM     21  C   UNL     1       1.145  10.727  18.597  0.00  0.00    +0.000 C 
ATOM     22  C   UNL     1      -0.339  10.579  18.193  0.00  0.00    +0.000 C 
ATOM     23  C   UNL     1      -1.143  10.889  19.449  0.00  0.00    +0.000 C 
ATOM     24  C   UNL     1      -0.240  10.545  20.624  0.00  0.00    +0.000 C 
ATOM     25  C   UNL     1       1.131  10.200  20.042  0.00  0.00    +0.000 C 
BRANCH  21  26
ATOM     26  C   UNL     1       1.589  12.211  18.530  0.00  0.00    +0.000 C 
BRANCH  26  27
ATOM     27  O   UNL     1       2.482  12.441  17.437  0.00  0.00    +0.000 OA
ATOM     28  H   UNL     1       2.007  12.161  16.635  0.00  0.00    +0.000 HD
ENDBRANCH  26  27
ENDBRANCH  21  26
ENDBRANCH   9  21
BRANCH   1  30
ATOM     29  C   UNL     1       7.440   7.752  17.332  0.00  0.00    +0.000 C 
ATOM     30  C   UNL     1       6.320   7.011  16.592  0.00  0.00    +0.000 C 
ATOM     31  C   UNL     1       6.897   5.864  15.754  0.00  0.00    +0.000 C 
ENDBRANCH   1  30
TORSDOF 5
ENDMDL
MODEL 9
REMARK VINA RESULT:      -6.3      1.253      1.920
REMARK  Name = 
REMARK  7 active torsions:
REMARK  status: ('A' for Active; 'I' for Inactive)
REMARK    1  A    between atoms: C_1  and  C_2
REMARK    2  A    between atoms: C_2  and  C_3
REMARK    3  A    between atoms: C_2  and  N_4
REMARK    4  A    between atoms: N_9  and  C_10
REMARK    5  A    between atoms: N_19  and  C_20
REMARK    6  A    between atoms: C_20  and  C_21
REMARK    7  A    between atoms: C_21  and  O_22
REMARK                            x       y       z     vdW  Elec       q    Type
REMARK                         _______ _______ _______ _____ _____    ______ ____
ROOT
ATOM      1  N   UNL     1       2.009   4.253  19.805  0.00  0.00    +0.000 N 
ATOM      2  C   UNL     1       2.795   3.557  18.921  0.00  0.00    +0.000 A 
ATOM      3  N   UNL     1       3.364   4.348  18.048  0.00  0.00    +0.000 NA
ATOM      4  C   UNL     1       2.968   5.623  18.402  0.00  0.00    +0.000 A 
ATOM      5  C   UNL     1       3.257   6.885  17.861  0.00  0.00    +0.000 A 
ATOM      6  N   UNL     1       4.082   7.082  16.743  0.00  0.00    +0.000 N 
ATOM      7  N   UNL     1       2.663   7.966  18.436  0.00  0.00    +0.000 NA
ATOM      8  C   UNL     1       1.885   7.819  19.527  0.00  0.00    +0.000 A 
ATOM      9  N   UNL     1       1.365   8.942  20.146  0.00  0.00    +0.000 N 
ATOM     10  N   UNL     1       1.552   6.647  20.104  0.00  0.00    +0.000 NA
ATOM     11  C   UNL     1       2.121   5.589  19.501  0.00  0.00    +0.000 A 
ATOM     12  H   UNL     1       4.113   8.056  16.472  0.00  0.00    +0.000 HD
ATOM     13  H   UNL     1       0.675   8.652  20.829  0.00  0.00    +0.000 HD
ENDROOT
BRANCH   6  14
ATOM     14  C   UNL     1       5.200   6.323  16.346  0.00  0.00    +0.000 A 
ATOM     15  C   UNL     1       5.358   5.988  14.996  0.00  0.00    +0.000 A 
ATOM     16  C   UNL     1       6.429   5.190  14.573  0.00  0.00    +0.000 A 
ATOM     17  C   UNL     1       7.361   4.724  15.502  0.00  0.00    +0.000 A 
ATOM     18  C   UNL     1       7.218   5.060  16.841  0.00  0.00    +0.000 A 
ATOM     19 CL   UNL     1       8.348   4.464  17.998  0.00  0.00    +0.000 Cl
ATOM     20  C   UNL     1       6.159   5.863  17.262  0.00  0.00    +0.000 A 
ENDBRANCH   6  14
BRANCH   9  21
ATOM     21  C   UNL     1       1.054  10.168  19.395  0.00  0.00    +0.000 C 
ATOM     22  C   UNL     1       1.210  11.373  20.351  0.00  0.00    +0.000 C 
ATOM     23  C   UNL     1       1.530  12.567  19.462  0.00  0.00    +0.000 C 
ATOM     24  C   UNL     1       2.200  12.002  18.219  0.00  0.00    +0.000 C 
ATOM     25  C   UNL     1       2.112  10.479  18.323  0.00  0.00    +0.000 C 
BRANCH  21  26
ATOM     26  C   UNL     1      -0.376  10.121  18.797  0.00  0.00    +0.000 C 
BRANCH  26  27
ATOM     27  O   UNL     1      -0.350   9.800  17.404  0.00  0.00    +0.000 OA
ATOM     28  H   UNL     1       0.543  10.027  17.090  0.00  0.00    +0.000 HD
ENDBRANCH  26  27
ENDBRANCH  21  26
ENDBRANCH   9  21
BRANCH   1  30
ATOM     29  C   UNL     1       0.259   2.574  20.207  0.00  0.00    +0.000 C 
ATOM     30  C   UNL     1       1.167   3.645  20.824  0.00  0.00    +0.000 C 
ATOM     31  C   UNL     1       2.000   3.049  21.965  0.00  0.00    +0.000 C 
ENDBRANCH   1  30
TORSDOF 5
ENDMDL
