MODEL 1
REMARK VINA RESULT:      -7.8      0.000      0.000
REMARK  Name = 
REMARK  6 active torsions:
REMARK  status: ('A' for Active; 'I' for Inactive)
REMARK    1  A    between atoms: C_1  and  O_2
REMARK    2  A    between atoms: O_2  and  C_3
REMARK    3  A    between atoms: C_6  and  N_7
REMARK    4  A    between atoms: C_10  and  C_11
REMARK    5  A    between atoms: C_14  and  O_15
REMARK    6  A    between atoms: O_15  and  C_16
REMARK                            x       y       z     vdW  Elec       q    Type
REMARK                         _______ _______ _______ _____ _____    ______ ____
ROOT
ATOM      1  N   UNL     1       3.984   3.394  17.628  0.00  0.00    +0.000 N 
ATOM      2  C   UNL     1       3.280   4.117  18.580  0.00  0.00    +0.000 A 
ATOM      3  N   UNL     1       3.007   5.389  18.379  0.00  0.00    +0.000 NA
ATOM      4  C   UNL     1       2.372   6.146  19.347  0.00  0.00    +0.000 A 
ATOM      5  C   UNL     1       1.956   5.621  20.517  0.00  0.00    +0.000 A 
ATOM      6  N   UNL     1       2.188   4.281  20.749  0.00  0.00    +0.000 N 
ATOM      7  C   UNL     1       1.907   3.474  21.816  0.00  0.00    +0.000 A 
ATOM      8  C   UNL     1       2.392   2.237  21.463  0.00  0.00    +0.000 A 
ATOM      9  N   UNL     1       2.980   2.261  20.217  0.00  0.00    +0.000 NA
ATOM     10  C   UNL     1       2.832   3.508  19.821  0.00  0.00    +0.000 A 
ATOM     11  H   UNL     1       4.220   2.452  17.927  0.00  0.00    +0.000 HD
ENDROOT
BRANCH   1  15
ATOM     12  C   UNL     1       7.035   5.146  15.267  0.00  0.00    +0.000 A 
ATOM     13  C   UNL     1       5.885   4.648  14.663  0.00  0.00    +0.000 A 
ATOM     14  C   UNL     1       4.869   4.085  15.437  0.00  0.00    +0.000 A 
ATOM     15  C   UNL     1       4.996   3.976  16.828  0.00  0.00    +0.000 A 
ATOM     16  C   UNL     1       6.151   4.488  17.429  0.00  0.00    +0.000 A 
ATOM     17  C   UNL     1       7.172   5.058  16.652  0.00  0.00    +0.000 A 
BRANCH  12  19
ATOM     18  C   UNL     1       7.839   5.236  13.050  0.00  0.00    +0.000 C 
ATOM     19  O   UNL     1       7.962   5.654  14.401  0.00  0.00    +0.000 OA
ENDBRANCH  12  19
ENDBRANCH   1  15
BRANCH   4  20
ATOM     20  C   UNL     1       2.188   7.580  19.037  0.00  0.00    +0.000 A 
ATOM     21  C   UNL     1       1.540   8.430  19.944  0.00  0.00    +0.000 A 
ATOM     22  C   UNL     1       1.337   9.773  19.625  0.00  0.00    +0.000 A 
ATOM     23  C   UNL     1       1.786  10.226  18.396  0.00  0.00    +0.000 A 
ATOM     24  N   UNL     1       2.401   9.440  17.487  0.00  0.00    +0.000 NA
ATOM     25  C   UNL     1       2.573   8.142  17.824  0.00  0.00    +0.000 A 
BRANCH  23  26
ATOM     26  O   UNL     1       1.575  11.558  18.107  0.00  0.00    +0.000 OA
ATOM     27  C   UNL     1       0.429  12.077  18.778  0.00  0.00    +0.000 C 
ENDBRANCH  23  26
ENDBRANCH   4  20
TORSDOF 4
ENDMDL
MODEL 2
REMARK VINA RESULT:      -7.5      1.335      6.416
REMARK  Name = 
REMARK  6 active torsions:
REMARK  status: ('A' for Active; 'I' for Inactive)
REMARK    1  A    between atoms: C_1  and  O_2
REMARK    2  A    between atoms: O_2  and  C_3
REMARK    3  A    between atoms: C_6  and  N_7
REMARK    4  A    between atoms: C_10  and  C_11
REMARK    5  A    between atoms: C_14  and  O_15
REMARK    6  A    between atoms: O_15  and  C_16
REMARK                            x       y       z     vdW  Elec       q    Type
REMARK                         _______ _______ _______ _____ _____    ______ ____
ROOT
ATOM      1  N   UNL     1       2.155   6.546  20.815  0.00  0.00    +0.000 N 
ATOM      2  C   UNL     1       2.772   5.443  20.244  0.00  0.00    +0.000 A 
ATOM      3  N   UNL     1       3.678   5.603  19.302  0.00  0.00    +0.000 NA
ATOM      4  C   UNL     1       4.251   4.515  18.669  0.00  0.00    +0.000 A 
ATOM      5  C   UNL     1       3.956   3.244  19.008  0.00  0.00    +0.000 A 
ATOM      6  N   UNL     1       3.041   3.034  20.019  0.00  0.00    +0.000 N 
ATOM      7  C   UNL     1       2.533   1.892  20.573  0.00  0.00    +0.000 A 
ATOM      8  C   UNL     1       1.651   2.326  21.534  0.00  0.00    +0.000 A 
ATOM      9  N   UNL     1       1.586   3.702  21.576  0.00  0.00    +0.000 NA
ATOM     10  C   UNL     1       2.440   4.088  20.652  0.00  0.00    +0.000 A 
ATOM     11  H   UNL     1       1.409   6.304  21.461  0.00  0.00    +0.000 HD
ENDROOT
BRANCH   1  15
ATOM     12  C   UNL     1       1.334  10.055  18.586  0.00  0.00    +0.000 A 
ATOM     13  C   UNL     1       0.915   9.954  19.909  0.00  0.00    +0.000 A 
ATOM     14  C   UNL     1       1.198   8.809  20.653  0.00  0.00    +0.000 A 
ATOM     15  C   UNL     1       1.874   7.723  20.082  0.00  0.00    +0.000 A 
ATOM     16  C   UNL     1       2.300   7.835  18.753  0.00  0.00    +0.000 A 
ATOM     17  C   UNL     1       2.020   8.989  18.004  0.00  0.00    +0.000 A 
BRANCH  12  19
ATOM     18  C   UNL     1       0.411  12.217  18.792  0.00  0.00    +0.000 C 
ATOM     19  O   UNL     1       0.980  11.217  17.960  0.00  0.00    +0.000 OA
ENDBRANCH  12  19
ENDBRANCH   1  15
BRANCH   4  20
ATOM     20  C   UNL     1       5.197   4.821  17.575  0.00  0.00    +0.000 A 
ATOM     21  C   UNL     1       4.741   5.362  16.365  0.00  0.00    +0.000 A 
ATOM     22  C   UNL     1       5.636   5.611  15.325  0.00  0.00    +0.000 A 
ATOM     23  C   UNL     1       6.971   5.303  15.526  0.00  0.00    +0.000 A 
ATOM     24  N   UNL     1       7.452   4.767  16.669  0.00  0.00    +0.000 NA
ATOM     25  C   UNL     1       6.555   4.530  17.652  0.00  0.00    +0.000 A 
BRANCH  23  26
ATOM     26  O   UNL     1       7.836   5.561  14.484  0.00  0.00    +0.000 OA
ATOM     27  C   UNL     1       7.437   4.905  13.282  0.00  0.00    +0.000 C 
ENDBRANCH  23  26
ENDBRANCH   4  20
TORSDOF 4
ENDMDL
MODEL 3
REMARK VINA RESULT:      -7.5      1.288      6.321
REMARK  Name = 
REMARK  6 active torsions:
REMARK  status: ('A' for Active; 'I' for Inactive)
REMARK    1  A    between atoms: C_1  and  O_2
REMARK    2  A    between atoms: O_2  and  C_3
REMARK    3  A    between atoms: C_6  and  N_7
REMARK    4  A    between atoms: C_10  and  C_11
REMARK    5  A    between atoms: C_14  and  O_15
REMARK    6  A    between atoms: O_15  and  C_16
REMARK                            x       y       z     vdW  Elec       q    Type
REMARK                         _______ _______ _______ _____ _____    ______ ____
ROOT
ATOM      1  N   UNL     1       2.139   6.539  20.580  0.00  0.00    +0.000 N 
ATOM      2  C   UNL     1       2.692   5.431  19.955  0.00  0.00    +0.000 A 
ATOM      3  N   UNL     1       3.613   5.583  19.028  0.00  0.00    +0.000 NA
ATOM      4  C   UNL     1       4.123   4.496  18.342  0.00  0.00    +0.000 A 
ATOM      5  C   UNL     1       3.749   3.229  18.613  0.00  0.00    +0.000 A 
ATOM      6  N   UNL     1       2.815   3.025  19.607  0.00  0.00    +0.000 N 
ATOM      7  C   UNL     1       2.234   1.889  20.099  0.00  0.00    +0.000 A 
ATOM      8  C   UNL     1       1.372   2.326  21.077  0.00  0.00    +0.000 A 
ATOM      9  N   UNL     1       1.391   3.699  21.191  0.00  0.00    +0.000 NA
ATOM     10  C   UNL     1       2.275   4.080  20.292  0.00  0.00    +0.000 A 
ATOM     11  H   UNL     1       1.374   6.310  21.209  0.00  0.00    +0.000 HD
ENDROOT
BRANCH   1  15
ATOM     12  C   UNL     1       1.509  10.229  18.597  0.00  0.00    +0.000 A 
ATOM     13  C   UNL     1       2.161   9.189  17.944  0.00  0.00    +0.000 A 
ATOM     14  C   UNL     1       2.356   7.966  18.586  0.00  0.00    +0.000 A 
ATOM     15  C   UNL     1       1.935   7.766  19.907  0.00  0.00    +0.000 A 
ATOM     16  C   UNL     1       1.272   8.815  20.555  0.00  0.00    +0.000 A 
ATOM     17  C   UNL     1       1.070  10.045  19.909  0.00  0.00    +0.000 A 
BRANCH  12  19
ATOM     18  C   UNL     1       2.195  12.469  18.310  0.00  0.00    +0.000 C 
ATOM     19  O   UNL     1       1.396  11.381  17.870  0.00  0.00    +0.000 OA
ENDBRANCH  12  19
ENDBRANCH   1  15
BRANCH   4  20
ATOM     20  C   UNL     1       5.095   4.799  17.270  0.00  0.00    +0.000 A 
ATOM     21  C   UNL     1       4.843   4.415  15.945  0.00  0.00    +0.000 A 
ATOM     22  C   UNL     1       5.784   4.671  14.948  0.00  0.00    +0.000 A 
ATOM     23  C   UNL     1       6.961   5.302  15.310  0.00  0.00    +0.000 A 
ATOM     24  N   UNL     1       7.253   5.675  16.575  0.00  0.00    +0.000 NA
ATOM     25  C   UNL     1       6.324   5.404  17.518  0.00  0.00    +0.000 A 
BRANCH  23  26
ATOM     26  O   UNL     1       7.874   5.546  14.305  0.00  0.00    +0.000 OA
ATOM     27  C   UNL     1       7.488   4.941  13.073  0.00  0.00    +0.000 C 
ENDBRANCH  23  26
ENDBRANCH   4  20
TORSDOF 4
ENDMDL
MODEL 4
REMARK VINA RESULT:      -7.5      0.578      1.339
REMARK  Name = 
REMARK  6 active torsions:
REMARK  status: ('A' for Active; 'I' for Inactive)
REMARK    1  A    between atoms: C_1  and  O_2
REMARK    2  A    between atoms: O_2  and  C_3
REMARK    3  A    between atoms: C_6  and  N_7
REMARK    4  A    between atoms: C_10  and  C_11
REMARK    5  A    between atoms: C_14  and  O_15
REMARK    6  A    between atoms: O_15  and  C_16
REMARK                            x       y       z     vdW  Elec       q    Type
REMARK                         _______ _______ _______ _____ _____    ______ ____
ROOT
ATOM      1  N   UNL     1       4.012   3.310  17.714  0.00  0.00    +0.000 N 
ATOM      2  C   UNL     1       3.306   4.021  18.674  0.00  0.00    +0.000 A 
ATOM      3  N   UNL     1       2.990   5.282  18.467  0.00  0.00    +0.000 NA
ATOM      4  C   UNL     1       2.352   6.029  19.441  0.00  0.00    +0.000 A 
ATOM      5  C   UNL     1       1.977   5.503  20.624  0.00  0.00    +0.000 A 
ATOM      6  N   UNL     1       2.254   4.173  20.863  0.00  0.00    +0.000 N 
ATOM      7  C   UNL     1       2.019   3.369  21.944  0.00  0.00    +0.000 A 
ATOM      8  C   UNL     1       2.534   2.143  21.592  0.00  0.00    +0.000 A 
ATOM      9  N   UNL     1       3.095   2.173  20.334  0.00  0.00    +0.000 NA
ATOM     10  C   UNL     1       2.902   3.411  19.929  0.00  0.00    +0.000 A 
ATOM     11  H   UNL     1       4.282   2.379  18.017  0.00  0.00    +0.000 HD
ENDROOT
BRANCH   1  15
ATOM     12  C   UNL     1       6.915   5.112  15.209  0.00  0.00    +0.000 A 
ATOM     13  C   UNL     1       7.168   4.954  16.568  0.00  0.00    +0.000 A 
ATOM     14  C   UNL     1       6.223   4.346  17.395  0.00  0.00    +0.000 A 
ATOM     15  C   UNL     1       4.989   3.914  16.889  0.00  0.00    +0.000 A 
ATOM     16  C   UNL     1       4.746   4.068  15.519  0.00  0.00    +0.000 A 
ATOM     17  C   UNL     1       5.698   4.676  14.685  0.00  0.00    +0.000 A 
BRANCH  12  19
ATOM     18  C   UNL     1       8.013   5.389  13.138  0.00  0.00    +0.000 C 
ATOM     19  O   UNL     1       7.909   5.738  14.511  0.00  0.00    +0.000 OA
ENDBRANCH  12  19
ENDBRANCH   1  15
BRANCH   4  20
ATOM     20  C   UNL     1       2.119   7.453  19.121  0.00  0.00    +0.000 A 
ATOM     21  C   UNL     1       2.542   7.990  17.897  0.00  0.00    +0.000 A 
ATOM     22  C   UNL     1       2.353   9.344  17.621  0.00  0.00    +0.000 A 
ATOM     23  C   UNL     1       1.748  10.128  18.588  0.00  0.00    +0.000 A 
ATOM     24  N   UNL     1       1.339   9.657  19.786  0.00  0.00    +0.000 NA
ATOM     25  C   UNL     1       1.546   8.343  20.024  0.00  0.00    +0.000 A 
BRANCH  23  26
ATOM     26  O   UNL     1       1.570  11.463  18.290  0.00  0.00    +0.000 OA
ATOM     27  C   UNL     1       0.300  11.944  18.727  0.00  0.00    +0.000 C 
ENDBRANCH  23  26
ENDBRANCH   4  20
TORSDOF 4
ENDMDL
MODEL 5
REMARK VINA RESULT:      -7.2      2.081      2.448
REMARK  Name = 
REMARK  6 active torsions:
REMARK  status: ('A' for Active; 'I' for Inactive)
REMARK    1  A    between atoms: C_1  and  O_2
REMARK    2  A    between atoms: O_2  and  C_3
REMARK    3  A    between atoms: C_6  and  N_7
REMARK    4  A    between atoms: C_10  and  C_11
REMARK    5  A    between atoms: C_14  and  O_15
REMARK    6  A    between atoms: O_15  and  C_16
REMARK                            x       y       z     vdW  Elec       q    Type
REMARK                         _______ _______ _______ _____ _____    ______ ____
ROOT
ATOM      1  N   UNL     1       4.734   4.698  18.514  0.00  0.00    +0.000 N 
ATOM      2  C   UNL     1       3.629   4.953  19.312  0.00  0.00    +0.000 A 
ATOM      3  N   UNL     1       3.091   6.155  19.336  0.00  0.00    +0.000 NA
ATOM      4  C   UNL     1       2.035   6.448  20.180  0.00  0.00    +0.000 A 
ATOM      5  C   UNL     1       1.469   5.522  20.979  0.00  0.00    +0.000 A 
ATOM      6  N   UNL     1       1.978   4.240  20.953  0.00  0.00    +0.000 N 
ATOM      7  C   UNL     1       1.640   3.106  21.638  0.00  0.00    +0.000 A 
ATOM      8  C   UNL     1       2.517   2.146  21.189  0.00  0.00    +0.000 A 
ATOM      9  N   UNL     1       3.397   2.659  20.261  0.00  0.00    +0.000 NA
ATOM     10  C   UNL     1       3.036   3.920  20.145  0.00  0.00    +0.000 A 
ATOM     11  H   UNL     1       5.122   3.767  18.644  0.00  0.00    +0.000 HD
ENDROOT
BRANCH   1  15
ATOM     12  C   UNL     1       7.748   7.591  17.809  0.00  0.00    +0.000 A 
ATOM     13  C   UNL     1       6.569   7.618  17.072  0.00  0.00    +0.000 A 
ATOM     14  C   UNL     1       5.566   6.678  17.311  0.00  0.00    +0.000 A 
ATOM     15  C   UNL     1       5.733   5.669  18.268  0.00  0.00    +0.000 A 
ATOM     16  C   UNL     1       6.918   5.654  19.013  0.00  0.00    +0.000 A 
ATOM     17  C   UNL     1       7.927   6.602  18.776  0.00  0.00    +0.000 A 
BRANCH  12  19
ATOM     18  C   UNL     1       8.676   9.706  18.294  0.00  0.00    +0.000 C 
ATOM     19  O   UNL     1       8.659   8.551  17.468  0.00  0.00    +0.000 OA
ENDBRANCH  12  19
ENDBRANCH   1  15
BRANCH   4  20
ATOM     20  C   UNL     1       1.567   7.851  20.174  0.00  0.00    +0.000 A 
ATOM     21  C   UNL     1       0.915   8.392  21.291  0.00  0.00    +0.000 A 
ATOM     22  C   UNL     1       0.442   9.704  21.261  0.00  0.00    +0.000 A 
ATOM     23  C   UNL     1       0.632  10.438  20.103  0.00  0.00    +0.000 A 
ATOM     24  N   UNL     1       1.240   9.954  18.999  0.00  0.00    +0.000 NA
ATOM     25  C   UNL     1       1.678   8.676  19.059  0.00  0.00    +0.000 A 
BRANCH  23  26
ATOM     26  O   UNL     1       0.158  11.734  20.100  0.00  0.00    +0.000 OA
ATOM     27  C   UNL     1      -0.356  12.112  18.825  0.00  0.00    +0.000 C 
ENDBRANCH  23  26
ENDBRANCH   4  20
TORSDOF 4
ENDMDL
MODEL 6
REMARK VINA RESULT:      -7.2      2.604      3.277
REMARK  Name = 
REMARK  6 active torsions:
REMARK  status: ('A' for Active; 'I' for Inactive)
REMARK    1  A    between atoms: C_1  and  O_2
REMARK    2  A    between atoms: O_2  and  C_3
REMARK    3  A    between atoms: C_6  and  N_7
REMARK    4  A    between atoms: C_10  and  C_11
REMARK    5  A    between atoms: C_14  and  O_15
REMARK    6  A    between atoms: O_15  and  C_16
REMARK                            x       y       z     vdW  Elec       q    Type
REMARK                         _______ _______ _______ _____ _____    ______ ____
ROOT
ATOM      1  N   UNL     1       5.482   5.128  17.465  0.00  0.00    +0.000 N 
ATOM      2  C   UNL     1       4.264   5.016  18.120  0.00  0.00    +0.000 A 
ATOM      3  N   UNL     1       3.643   6.092  18.555  0.00  0.00    +0.000 NA
ATOM      4  C   UNL     1       2.466   5.996  19.274  0.00  0.00    +0.000 A 
ATOM      5  C   UNL     1       1.866   4.815  19.526  0.00  0.00    +0.000 A 
ATOM      6  N   UNL     1       2.466   3.667  19.052  0.00  0.00    +0.000 N 
ATOM      7  C   UNL     1       2.122   2.347  19.150  0.00  0.00    +0.000 A 
ATOM      8  C   UNL     1       3.117   1.671  18.485  0.00  0.00    +0.000 A 
ATOM      9  N   UNL     1       4.074   2.533  17.995  0.00  0.00    +0.000 NA
ATOM     10  C   UNL     1       3.642   3.724  18.354  0.00  0.00    +0.000 A 
ATOM     11  H   UNL     1       5.915   4.232  17.259  0.00  0.00    +0.000 HD
ENDROOT
BRANCH   1  15
ATOM     12  C   UNL     1       8.314   8.131  18.422  0.00  0.00    +0.000 A 
ATOM     13  C   UNL     1       8.307   6.930  19.124  0.00  0.00    +0.000 A 
ATOM     14  C   UNL     1       7.388   5.931  18.802  0.00  0.00    +0.000 A 
ATOM     15  C   UNL     1       6.432   6.123  17.795  0.00  0.00    +0.000 A 
ATOM     16  C   UNL     1       6.452   7.330  17.087  0.00  0.00    +0.000 A 
ATOM     17  C   UNL     1       7.379   8.335  17.407  0.00  0.00    +0.000 A 
BRANCH  12  19
ATOM     18  C   UNL     1       9.027  10.380  18.447  0.00  0.00    +0.000 C 
ATOM     19  O   UNL     1       9.248   9.035  18.844  0.00  0.00    +0.000 OA
ENDBRANCH  12  19
ENDBRANCH   1  15
BRANCH   4  20
ATOM     20  C   UNL     1       1.903   7.268  19.774  0.00  0.00    +0.000 A 
ATOM     21  C   UNL     1       1.381   7.358  21.073  0.00  0.00    +0.000 A 
ATOM     22  C   UNL     1       0.817   8.551  21.522  0.00  0.00    +0.000 A 
ATOM     23  C   UNL     1       0.785   9.626  20.650  0.00  0.00    +0.000 A 
ATOM     24  N   UNL     1       1.261   9.581  19.388  0.00  0.00    +0.000 NA
ATOM     25  C   UNL     1       1.792   8.406  18.981  0.00  0.00    +0.000 A 
BRANCH  23  26
ATOM     26  O   UNL     1       0.224  10.795  21.120  0.00  0.00    +0.000 OA
ATOM     27  C   UNL     1      -0.436  10.608  22.371  0.00  0.00    +0.000 C 
ENDBRANCH  23  26
ENDBRANCH   4  20
TORSDOF 4
ENDMDL
MODEL 7
REMARK VINA RESULT:      -7.1      2.539      3.219
REMARK  Name = 
REMARK  6 active torsions:
REMARK  status: ('A' for Active; 'I' for Inactive)
REMARK    1  A    between atoms: C_1  and  O_2
REMARK    2  A    between atoms: O_2  and  C_3
REMARK    3  A    between atoms: C_6  and  N_7
REMARK    4  A    between atoms: C_10  and  C_11
REMARK    5  A    between atoms: C_14  and  O_15
REMARK    6  A    between atoms: O_15  and  C_16
REMARK                            x       y       z     vdW  Elec       q    Type
REMARK                         _______ _______ _______ _____ _____    ______ ____
ROOT
ATOM      1  N   UNL     1       5.758   5.183  17.325  0.00  0.00    +0.000 N 
ATOM      2  C   UNL     1       4.450   5.137  17.785  0.00  0.00    +0.000 A 
ATOM      3  N   UNL     1       3.796   6.251  18.040  0.00  0.00    +0.000 NA
ATOM      4  C   UNL     1       2.518   6.225  18.568  0.00  0.00    +0.000 A 
ATOM      5  C   UNL     1       1.857   5.074  18.804  0.00  0.00    +0.000 A 
ATOM      6  N   UNL     1       2.493   3.885  18.513  0.00  0.00    +0.000 N 
ATOM      7  C   UNL     1       2.105   2.581  18.647  0.00  0.00    +0.000 A 
ATOM      8  C   UNL     1       3.174   1.844  18.197  0.00  0.00    +0.000 A 
ATOM      9  N   UNL     1       4.218   2.655  17.805  0.00  0.00    +0.000 NA
ATOM     10  C   UNL     1       3.765   3.875  18.008  0.00  0.00    +0.000 A 
ATOM     11  H   UNL     1       6.194   4.269  17.252  0.00  0.00    +0.000 HD
ENDROOT
BRANCH   1  15
ATOM     12  C   UNL     1       8.500   8.163  18.571  0.00  0.00    +0.000 A 
ATOM     13  C   UNL     1       7.646   8.404  17.499  0.00  0.00    +0.000 A 
ATOM     14  C   UNL     1       6.730   7.434  17.095  0.00  0.00    +0.000 A 
ATOM     15  C   UNL     1       6.669   6.186  17.730  0.00  0.00    +0.000 A 
ATOM     16  C   UNL     1       7.525   5.954  18.813  0.00  0.00    +0.000 A 
ATOM     17  C   UNL     1       8.445   6.932  19.224  0.00  0.00    +0.000 A 
BRANCH  12  19
ATOM     18  C   UNL     1       8.983  10.465  18.378  0.00  0.00    +0.000 C 
ATOM     19  O   UNL     1       9.363   9.183  18.856  0.00  0.00    +0.000 OA
ENDBRANCH  12  19
ENDBRANCH   1  15
BRANCH   4  20
ATOM     20  C   UNL     1       1.917   7.538  18.883  0.00  0.00    +0.000 A 
ATOM     21  C   UNL     1       1.725   8.496  17.878  0.00  0.00    +0.000 A 
ATOM     22  C   UNL     1       1.193   9.747  18.192  0.00  0.00    +0.000 A 
ATOM     23  C   UNL     1       0.873  10.006  19.514  0.00  0.00    +0.000 A 
ATOM     24  N   UNL     1       1.055   9.119  20.516  0.00  0.00    +0.000 NA
ATOM     25  C   UNL     1       1.581   7.921  20.178  0.00  0.00    +0.000 A 
BRANCH  23  26
ATOM     26  O   UNL     1       0.346  11.249  19.798  0.00  0.00    +0.000 OA
ATOM     27  C   UNL     1      -0.859  11.496  19.076  0.00  0.00    +0.000 C 
ENDBRANCH  23  26
ENDBRANCH   4  20
TORSDOF 4
ENDMDL
MODEL 8
REMARK VINA RESULT:      -7.1      2.232      2.860
REMARK  Name = 
REMARK  6 active torsions:
REMARK  status: ('A' for Active; 'I' for Inactive)
REMARK    1  A    between atoms: C_1  and  O_2
REMARK    2  A    between atoms: O_2  and  C_3
REMARK    3  A    between atoms: C_6  and  N_7
REMARK    4  A    between atoms: C_10  and  C_11
REMARK    5  A    between atoms: C_14  and  O_15
REMARK    6  A    between atoms: O_15  and  C_16
REMARK                            x       y       z     vdW  Elec       q    Type
REMARK                         _______ _______ _______ _____ _____    ______ ____
ROOT
ATOM      1  N   UNL     1       5.069   4.737  18.536  0.00  0.00    +0.000 N 
ATOM      2  C   UNL     1       3.915   4.950  19.275  0.00  0.00    +0.000 A 
ATOM      3  N   UNL     1       3.311   6.120  19.241  0.00  0.00    +0.000 NA
ATOM      4  C   UNL     1       2.202   6.375  20.026  0.00  0.00    +0.000 A 
ATOM      5  C   UNL     1       1.651   5.440  20.825  0.00  0.00    +0.000 A 
ATOM      6  N   UNL     1       2.230   4.188  20.858  0.00  0.00    +0.000 N 
ATOM      7  C   UNL     1       1.923   3.055  21.559  0.00  0.00    +0.000 A 
ATOM      8  C   UNL     1       2.871   2.135  21.178  0.00  0.00    +0.000 A 
ATOM      9  N   UNL     1       3.764   2.672  20.277  0.00  0.00    +0.000 NA
ATOM     10  C   UNL     1       3.341   3.907  20.109  0.00  0.00    +0.000 A 
ATOM     11  H   UNL     1       5.501   3.833  18.711  0.00  0.00    +0.000 HD
ENDROOT
BRANCH   1  15
ATOM     12  C   UNL     1       7.905   7.803  17.824  0.00  0.00    +0.000 A 
ATOM     13  C   UNL     1       8.147   6.841  18.800  0.00  0.00    +0.000 A 
ATOM     14  C   UNL     1       7.225   5.819  19.028  0.00  0.00    +0.000 A 
ATOM     15  C   UNL     1       6.024   5.756  18.309  0.00  0.00    +0.000 A 
ATOM     16  C   UNL     1       5.792   6.721  17.323  0.00  0.00    +0.000 A 
ATOM     17  C   UNL     1       6.721   7.748  17.090  0.00  0.00    +0.000 A 
BRANCH  12  19
ATOM     18  C   UNL     1       8.958   9.683  18.787  0.00  0.00    +0.000 C 
ATOM     19  O   UNL     1       8.874   8.760  17.711  0.00  0.00    +0.000 OA
ENDBRANCH  12  19
ENDBRANCH   1  15
BRANCH   4  20
ATOM     20  C   UNL     1       1.659   7.748  19.959  0.00  0.00    +0.000 A 
ATOM     21  C   UNL     1       1.787   8.512  18.790  0.00  0.00    +0.000 A 
ATOM     22  C   UNL     1       1.307   9.821  18.749  0.00  0.00    +0.000 A 
ATOM     23  C   UNL     1       0.713  10.332  19.890  0.00  0.00    +0.000 A 
ATOM     24  N   UNL     1       0.582   9.639  21.042  0.00  0.00    +0.000 NA
ATOM     25  C   UNL     1       1.067   8.378  21.049  0.00  0.00    +0.000 A 
BRANCH  23  26
ATOM     26  O   UNL     1       0.243  11.628  19.823  0.00  0.00    +0.000 OA
ATOM     27  C   UNL     1      -0.382  12.033  21.039  0.00  0.00    +0.000 C 
ENDBRANCH  23  26
ENDBRANCH   4  20
TORSDOF 4
ENDMDL
MODEL 9
REMARK VINA RESULT:      -7.0      2.625      3.138
REMARK  Name = 
REMARK  6 active torsions:
REMARK  status: ('A' for Active; 'I' for Inactive)
REMARK    1  A    between atoms: C_1  and  O_2
REMARK    2  A    between atoms: O_2  and  C_3
REMARK    3  A    between atoms: C_6  and  N_7
REMARK    4  A    between atoms: C_10  and  C_11
REMARK    5  A    between atoms: C_14  and  O_15
REMARK    6  A    between atoms: O_15  and  C_16
REMARK                            x       y       z     vdW  Elec       q    Type
REMARK                         _______ _______ _______ _____ _____    ______ ____
ROOT
ATOM      1  N   UNL     1       5.880   5.124  18.177  0.00  0.00    +0.000 N 
ATOM      2  C   UNL     1       4.666   5.082  18.847  0.00  0.00    +0.000 A 
ATOM      3  N   UNL     1       3.902   6.153  18.903  0.00  0.00    +0.000 NA
ATOM      4  C   UNL     1       2.724   6.153  19.628  0.00  0.00    +0.000 A 
ATOM      5  C   UNL     1       2.269   5.058  20.269  0.00  0.00    +0.000 A 
ATOM      6  N   UNL     1       3.022   3.904  20.201  0.00  0.00    +0.000 N 
ATOM      7  C   UNL     1       2.842   2.660  20.740  0.00  0.00    +0.000 A 
ATOM      8  C   UNL     1       3.935   1.934  20.328  0.00  0.00    +0.000 A 
ATOM      9  N   UNL     1       4.790   2.698  19.565  0.00  0.00    +0.000 NA
ATOM     10  C   UNL     1       4.202   3.874  19.509  0.00  0.00    +0.000 A 
ATOM     11  H   UNL     1       6.427   4.273  18.277  0.00  0.00    +0.000 HD
ENDROOT
BRANCH   1  15
ATOM     12  C   UNL     1       8.321   8.586  18.102  0.00  0.00    +0.000 A 
ATOM     13  C   UNL     1       7.227   8.484  17.247  0.00  0.00    +0.000 A 
ATOM     14  C   UNL     1       6.410   7.354  17.279  0.00  0.00    +0.000 A 
ATOM     15  C   UNL     1       6.687   6.285  18.141  0.00  0.00    +0.000 A 
ATOM     16  C   UNL     1       7.783   6.398  19.004  0.00  0.00    +0.000 A 
ATOM     17  C   UNL     1       8.604   7.537  18.976  0.00  0.00    +0.000 A 
BRANCH  12  19
ATOM     18  C   UNL     1       9.362  10.417  19.165  0.00  0.00    +0.000 C 
ATOM     19  O   UNL     1       9.053   9.731  17.961  0.00  0.00    +0.000 OA
ENDBRANCH  12  19
ENDBRANCH   1  15
BRANCH   4  20
ATOM     20  C   UNL     1       1.991   7.436  19.680  0.00  0.00    +0.000 A 
ATOM     21  C   UNL     1       1.954   8.284  18.563  0.00  0.00    +0.000 A 
ATOM     22  C   UNL     1       1.293   9.510  18.635  0.00  0.00    +0.000 A 
ATOM     23  C   UNL     1       0.692   9.858  19.832  0.00  0.00    +0.000 A 
ATOM     24  N   UNL     1       0.716   9.081  20.936  0.00  0.00    +0.000 NA
ATOM     25  C   UNL     1       1.373   7.903  20.835  0.00  0.00    +0.000 A 
BRANCH  23  26
ATOM     26  O   UNL     1       0.043  11.074  19.876  0.00  0.00    +0.000 OA
ATOM     27  C   UNL     1       0.958  12.167  19.926  0.00  0.00    +0.000 C 
ENDBRANCH  23  26
ENDBRANCH   4  20
TORSDOF 4
ENDMDL
