MODEL 1
REMARK VINA RESULT:      -8.5      0.000      0.000
REMARK  Name = 
REMARK  8 active torsions:
REMARK  status: ('A' for Active; 'I' for Inactive)
REMARK    1  A    between atoms: N_1  and  C_2
REMARK    2  A    between atoms: C_8  and  C_9
REMARK    3  A    between atoms: C_12  and  O_13
REMARK    4  A    between atoms: O_13  and  C_14
REMARK    5  A    between atoms: N_23  and  C_24
REMARK    6  A    between atoms: C_24  and  C_25
REMARK    7  A    between atoms: N_29  and  C_30
REMARK    8  A    between atoms: C_30  and  C_31
REMARK                            x       y       z     vdW  Elec       q    Type
REMARK                         _______ _______ _______ _____ _____    ______ ____
ROOT
ATOM      1  C   UNL     1       0.919   9.791  21.662  0.00  0.00    +0.000 A 
ATOM      2  N   UNL     1       0.244  10.673  22.423  0.00  0.00    +0.000 NA
ATOM      3  C   UNL     1      -0.686  11.445  21.838  0.00  0.00    +0.000 A 
ATOM      4  N   UNL     1      -1.046  11.469  20.547  0.00  0.00    +0.000 NA
ATOM      5  C   UNL     1      -0.351  10.582  19.816  0.00  0.00    +0.000 A 
ATOM      6  C   UNL     1       0.627   9.709  20.286  0.00  0.00    +0.000 A 
ATOM      7  C   UNL     1       1.075   8.944  19.153  0.00  0.00    +0.000 A 
ATOM      8  C   UNL     1       0.387   9.421  18.047  0.00  0.00    +0.000 A 
ATOM      9  N   UNL     1      -0.487  10.398  18.463  0.00  0.00    +0.000 N 
ENDROOT
BRANCH   7  10
ATOM     10  C   UNL     1       2.059   7.870  19.067  0.00  0.00    +0.000 A 
ATOM     11  C   UNL     1       3.003   7.847  18.031  0.00  0.00    +0.000 A 
ATOM     12  C   UNL     1       3.880   6.771  17.884  0.00  0.00    +0.000 A 
ATOM     13  C   UNL     1       3.869   5.733  18.811  0.00  0.00    +0.000 A 
ATOM     14  C   UNL     1       2.953   5.752  19.866  0.00  0.00    +0.000 A 
ATOM     15  C   UNL     1       2.063   6.822  19.999  0.00  0.00    +0.000 A 
BRANCH  13  16
ATOM     16  O   UNL     1       4.744   4.699  18.577  0.00  0.00    +0.000 OA
BRANCH  16  17
ATOM     17  C   UNL     1       5.378   4.624  17.356  0.00  0.00    +0.000 A 
ATOM     18  C   UNL     1       6.732   4.968  17.352  0.00  0.00    +0.000 A 
ATOM     19  C   UNL     1       7.460   4.910  16.164  0.00  0.00    +0.000 A 
ATOM     20  C   UNL     1       6.837   4.507  14.982  0.00  0.00    +0.000 A 
ATOM     21  C   UNL     1       5.492   4.138  14.993  0.00  0.00    +0.000 A 
ATOM     22  C   UNL     1       4.768   4.174  16.184  0.00  0.00    +0.000 A 
ENDBRANCH  16  17
ENDBRANCH  13  16
ENDBRANCH   7  10
BRANCH   1  23
ATOM     23  N   UNL     1       1.883   9.040  22.322  0.00  0.00    +0.000 N 
ATOM     24  H   UNL     1       2.334   8.402  21.678  0.00  0.00    +0.000 HD
ATOM     25  H   UNL     1       1.568   8.635  23.195  0.00  0.00    +0.000 HD
ENDBRANCH   1  23
BRANCH   9  26
ATOM     26  C   UNL     1      -1.442  11.086  17.601  0.00  0.00    +0.000 C 
BRANCH  26  27
ATOM     27  C   UNL     1      -2.510  10.172  16.947  0.00  0.00    +0.000 C 
ATOM     28  C   UNL     1      -3.597   9.739  17.924  0.00  0.00    +0.000 C 
ATOM     29  C   UNL     1      -4.587  10.882  17.899  0.00  0.00    +0.000 C 
ATOM     30  C   UNL     1      -4.422  11.511  16.520  0.00  0.00    +0.000 C 
ATOM     31  N   UNL     1      -3.253  10.888  15.864  0.00  0.00    +0.000 NA
BRANCH  31  32
ATOM     32  C   UNL     1      -3.654   9.930  14.815  0.00  0.00    +0.000 C 
BRANCH  32  33
ATOM     33  C   UNL     1      -3.464  10.298  13.371  0.00  0.00    +0.000 C 
ATOM     34  C   UNL     1      -4.317   9.714  12.272  0.00  0.00    +0.000 C 
ATOM     35  O   UNL     1      -2.956   9.309  12.466  0.00  0.00    +0.000 OA
ENDBRANCH  32  33
ENDBRANCH  31  32
ENDBRANCH  26  27
ENDBRANCH   9  26
TORSDOF 8
ENDMDL
MODEL 2
REMARK VINA RESULT:      -8.3      4.046      5.996
REMARK  Name = 
REMARK  8 active torsions:
REMARK  status: ('A' for Active; 'I' for Inactive)
REMARK    1  A    between atoms: N_1  and  C_2
REMARK    2  A    between atoms: C_8  and  C_9
REMARK    3  A    between atoms: C_12  and  O_13
REMARK    4  A    between atoms: O_13  and  C_14
REMARK    5  A    between atoms: N_23  and  C_24
REMARK    6  A    between atoms: C_24  and  C_25
REMARK    7  A    between atoms: N_29  and  C_30
REMARK    8  A    between atoms: C_30  and  C_31
REMARK                            x       y       z     vdW  Elec       q    Type
REMARK                         _______ _______ _______ _____ _____    ______ ____
ROOT
ATOM      1  C   UNL     1       1.651  13.257  18.592  0.00  0.00    +0.000 A 
ATOM      2  N   UNL     1       1.610  14.597  18.461  0.00  0.00    +0.000 NA
ATOM      3  C   UNL     1       0.494  15.244  18.834  0.00  0.00    +0.000 A 
ATOM      4  N   UNL     1      -0.636  14.722  19.331  0.00  0.00    +0.000 NA
ATOM      5  C   UNL     1      -0.564  13.385  19.443  0.00  0.00    +0.000 A 
ATOM      6  C   UNL     1       0.527  12.585  19.113  0.00  0.00    +0.000 A 
ATOM      7  C   UNL     1       0.152  11.230  19.417  0.00  0.00    +0.000 A 
ATOM      8  C   UNL     1      -1.160  11.268  19.869  0.00  0.00    +0.000 A 
ATOM      9  N   UNL     1      -1.575  12.578  19.899  0.00  0.00    +0.000 N 
ENDROOT
BRANCH   7  10
ATOM     10  C   UNL     1       0.911   9.990  19.300  0.00  0.00    +0.000 A 
ATOM     11  C   UNL     1       1.426   9.582  18.062  0.00  0.00    +0.000 A 
ATOM     12  C   UNL     1       2.065   8.349  17.922  0.00  0.00    +0.000 A 
ATOM     13  C   UNL     1       2.255   7.535  19.035  0.00  0.00    +0.000 A 
ATOM     14  C   UNL     1       1.773   7.937  20.282  0.00  0.00    +0.000 A 
ATOM     15  C   UNL     1       1.116   9.164  20.415  0.00  0.00    +0.000 A 
BRANCH  13  16
ATOM     16  O   UNL     1       2.867   6.325  18.805  0.00  0.00    +0.000 OA
BRANCH  16  17
ATOM     17  C   UNL     1       2.214   5.167  19.168  0.00  0.00    +0.000 A 
ATOM     18  C   UNL     1       1.758   4.371  18.114  0.00  0.00    +0.000 A 
ATOM     19  C   UNL     1       1.097   3.173  18.384  0.00  0.00    +0.000 A 
ATOM     20  C   UNL     1       0.894   2.770  19.705  0.00  0.00    +0.000 A 
ATOM     21  C   UNL     1       1.374   3.553  20.755  0.00  0.00    +0.000 A 
ATOM     22  C   UNL     1       2.055   4.740  20.487  0.00  0.00    +0.000 A 
ENDBRANCH  16  17
ENDBRANCH  13  16
ENDBRANCH   7  10
BRANCH   1  23
ATOM     23  N   UNL     1       2.823  12.646  18.167  0.00  0.00    +0.000 N 
ATOM     24  H   UNL     1       3.459  13.334  17.782  0.00  0.00    +0.000 HD
ATOM     25  H   UNL     1       2.679  11.817  17.604  0.00  0.00    +0.000 HD
ENDBRANCH   1  23
BRANCH   9  26
ATOM     26  C   UNL     1      -2.872  13.031  20.391  0.00  0.00    +0.000 C 
BRANCH  26  27
ATOM     27  C   UNL     1      -3.143  12.736  21.888  0.00  0.00    +0.000 C 
ATOM     28  C   UNL     1      -1.868  12.461  22.678  0.00  0.00    +0.000 C 
ATOM     29  C   UNL     1      -1.368  13.836  23.058  0.00  0.00    +0.000 C 
ATOM     30  C   UNL     1      -2.619  14.707  23.104  0.00  0.00    +0.000 C 
ATOM     31  N   UNL     1      -3.752  13.918  22.576  0.00  0.00    +0.000 NA
BRANCH  31  32
ATOM     32  C   UNL     1      -4.653  13.460  23.652  0.00  0.00    +0.000 C 
BRANCH  32  33
ATOM     33  C   UNL     1      -6.010  12.920  23.295  0.00  0.00    +0.000 C 
ATOM     34  C   UNL     1      -7.224  13.159  24.158  0.00  0.00    +0.000 C 
ATOM     35  O   UNL     1      -6.577  11.881  24.103  0.00  0.00    +0.000 OA
ENDBRANCH  32  33
ENDBRANCH  31  32
ENDBRANCH  26  27
ENDBRANCH   9  26
TORSDOF 8
ENDMDL
MODEL 3
REMARK VINA RESULT:      -8.2      2.828      3.870
REMARK  Name = 
REMARK  8 active torsions:
REMARK  status: ('A' for Active; 'I' for Inactive)
REMARK    1  A    between atoms: N_1  and  C_2
REMARK    2  A    between atoms: C_8  and  C_9
REMARK    3  A    between atoms: C_12  and  O_13
REMARK    4  A    between atoms: O_13  and  C_14
REMARK    5  A    between atoms: N_23  and  C_24
REMARK    6  A    between atoms: C_24  and  C_25
REMARK    7  A    between atoms: N_29  and  C_30
REMARK    8  A    between atoms: C_30  and  C_31
REMARK                            x       y       z     vdW  Elec       q    Type
REMARK                         _______ _______ _______ _____ _____    ______ ____
ROOT
ATOM      1  C   UNL     1       0.843  13.389  20.350  0.00  0.00    +0.000 A 
ATOM      2  N   UNL     1       0.655  14.708  20.541  0.00  0.00    +0.000 NA
ATOM      3  C   UNL     1      -0.596  15.192  20.494  0.00  0.00    +0.000 A 
ATOM      4  N   UNL     1      -1.733  14.520  20.266  0.00  0.00    +0.000 NA
ATOM      5  C   UNL     1      -1.511  13.209  20.074  0.00  0.00    +0.000 A 
ATOM      6  C   UNL     1      -0.276  12.566  20.109  0.00  0.00    +0.000 A 
ATOM      7  C   UNL     1      -0.531  11.171  19.868  0.00  0.00    +0.000 A 
ATOM      8  C   UNL     1      -1.896  11.043  19.651  0.00  0.00    +0.000 A 
ATOM      9  N   UNL     1      -2.480  12.278  19.797  0.00  0.00    +0.000 N 
ENDROOT
BRANCH   7  10
ATOM     10  C   UNL     1       0.385  10.036  19.825  0.00  0.00    +0.000 A 
ATOM     11  C   UNL     1       1.012   9.670  18.626  0.00  0.00    +0.000 A 
ATOM     12  C   UNL     1       1.809   8.526  18.554  0.00  0.00    +0.000 A 
ATOM     13  C   UNL     1       2.043   7.769  19.698  0.00  0.00    +0.000 A 
ATOM     14  C   UNL     1       1.448   8.133  20.907  0.00  0.00    +0.000 A 
ATOM     15  C   UNL     1       0.634   9.269  20.972  0.00  0.00    +0.000 A 
BRANCH  13  16
ATOM     16  O   UNL     1       2.815   6.643  19.534  0.00  0.00    +0.000 OA
BRANCH  16  17
ATOM     17  C   UNL     1       2.197   5.413  19.475  0.00  0.00    +0.000 A 
ATOM     18  C   UNL     1       2.108   4.837  18.205  0.00  0.00    +0.000 A 
ATOM     19  C   UNL     1       1.511   3.587  18.049  0.00  0.00    +0.000 A 
ATOM     20  C   UNL     1       1.005   2.911  19.159  0.00  0.00    +0.000 A 
ATOM     21  C   UNL     1       1.118   3.475  20.430  0.00  0.00    +0.000 A 
ATOM     22  C   UNL     1       1.736   4.715  20.592  0.00  0.00    +0.000 A 
ENDBRANCH  16  17
ENDBRANCH  13  16
ENDBRANCH   7  10
BRANCH   1  23
ATOM     23  N   UNL     1       2.161  12.956  20.387  0.00  0.00    +0.000 N 
ATOM     24  H   UNL     1       2.272  12.223  21.078  0.00  0.00    +0.000 HD
ATOM     25  H   UNL     1       2.843  13.703  20.426  0.00  0.00    +0.000 HD
ENDBRANCH   1  23
BRANCH   9  26
ATOM     26  C   UNL     1      -3.914  12.538  19.721  0.00  0.00    +0.000 C 
BRANCH  26  27
ATOM     27  C   UNL     1      -4.700  11.597  18.772  0.00  0.00    +0.000 C 
ATOM     28  C   UNL     1      -6.121  11.324  19.251  0.00  0.00    +0.000 C 
ATOM     29  C   UNL     1      -6.917  12.495  18.720  0.00  0.00    +0.000 C 
ATOM     30  C   UNL     1      -6.158  12.953  17.480  0.00  0.00    +0.000 C 
ATOM     31  N   UNL     1      -4.880  12.213  17.420  0.00  0.00    +0.000 NA
BRANCH  31  32
ATOM     32  C   UNL     1      -4.902  11.156  16.389  0.00  0.00    +0.000 C 
BRANCH  32  33
ATOM     33  C   UNL     1      -3.645  10.844  15.627  0.00  0.00    +0.000 C 
ATOM     34  C   UNL     1      -2.647   9.819  16.106  0.00  0.00    +0.000 C 
ATOM     35  O   UNL     1      -2.383  11.224  16.189  0.00  0.00    +0.000 OA
ENDBRANCH  32  33
ENDBRANCH  31  32
ENDBRANCH  26  27
ENDBRANCH   9  26
TORSDOF 8
ENDMDL
MODEL 4
REMARK VINA RESULT:      -8.0      3.331      5.880
REMARK  Name = 
REMARK  8 active torsions:
REMARK  status: ('A' for Active; 'I' for Inactive)
REMARK    1  A    between atoms: N_1  and  C_2
REMARK    2  A    between atoms: C_8  and  C_9
REMARK    3  A    between atoms: C_12  and  O_13
REMARK    4  A    between atoms: O_13  and  C_14
REMARK    5  A    between atoms: N_23  and  C_24
REMARK    6  A    between atoms: C_24  and  C_25
REMARK    7  A    between atoms: N_29  and  C_30
REMARK    8  A    between atoms: C_30  and  C_31
REMARK                            x       y       z     vdW  Elec       q    Type
REMARK                         _______ _______ _______ _____ _____    ______ ____
ROOT
ATOM      1  C   UNL     1       2.339   3.064  18.754  0.00  0.00    +0.000 A 
ATOM      2  N   UNL     1       1.418   2.532  19.579  0.00  0.00    +0.000 NA
ATOM      3  C   UNL     1       0.858   3.321  20.510  0.00  0.00    +0.000 A 
ATOM      4  N   UNL     1       1.102   4.617  20.749  0.00  0.00    +0.000 NA
ATOM      5  C   UNL     1       2.028   5.115  19.913  0.00  0.00    +0.000 A 
ATOM      6  C   UNL     1       2.680   4.425  18.895  0.00  0.00    +0.000 A 
ATOM      7  C   UNL     1       3.563   5.366  18.259  0.00  0.00    +0.000 A 
ATOM      8  C   UNL     1       3.441   6.562  18.950  0.00  0.00    +0.000 A 
ATOM      9  N   UNL     1       2.496   6.405  19.935  0.00  0.00    +0.000 N 
ENDROOT
BRANCH   7  10
ATOM     10  C   UNL     1       4.461   5.199  17.121  0.00  0.00    +0.000 A 
ATOM     11  C   UNL     1       4.693   6.259  16.233  0.00  0.00    +0.000 A 
ATOM     12  C   UNL     1       5.468   6.077  15.087  0.00  0.00    +0.000 A 
ATOM     13  C   UNL     1       6.076   4.848  14.846  0.00  0.00    +0.000 A 
ATOM     14  C   UNL     1       5.878   3.788  15.734  0.00  0.00    +0.000 A 
ATOM     15  C   UNL     1       5.085   3.968  16.872  0.00  0.00    +0.000 A 
BRANCH  13  16
ATOM     16  O   UNL     1       6.798   4.745  13.681  0.00  0.00    +0.000 OA
BRANCH  16  17
ATOM     17  C   UNL     1       6.449   3.779  12.763  0.00  0.00    +0.000 A 
ATOM     18  C   UNL     1       5.089   3.692  12.458  0.00  0.00    +0.000 A 
ATOM     19  C   UNL     1       4.643   2.752  11.530  0.00  0.00    +0.000 A 
ATOM     20  C   UNL     1       5.555   1.902  10.904  0.00  0.00    +0.000 A 
ATOM     21  C   UNL     1       6.916   2.008  11.189  0.00  0.00    +0.000 A 
ATOM     22  C   UNL     1       7.367   2.962  12.100  0.00  0.00    +0.000 A 
ENDBRANCH  16  17
ENDBRANCH  13  16
ENDBRANCH   7  10
BRANCH   1  23
ATOM     23  N   UNL     1       2.898   2.191  17.831  0.00  0.00    +0.000 N 
ATOM     24  H   UNL     1       3.230   1.354  18.294  0.00  0.00    +0.000 HD
ATOM     25  H   UNL     1       3.548   2.626  17.188  0.00  0.00    +0.000 HD
ENDBRANCH   1  23
BRANCH   9  26
ATOM     26  C   UNL     1       2.032   7.465  20.825  0.00  0.00    +0.000 C 
BRANCH  26  27
ATOM     27  C   UNL     1       0.762   8.213  20.344  0.00  0.00    +0.000 C 
ATOM     28  C   UNL     1      -0.304   8.326  21.427  0.00  0.00    +0.000 C 
ATOM     29  C   UNL     1       0.100   9.554  22.212  0.00  0.00    +0.000 C 
ATOM     30  C   UNL     1       0.867  10.418  21.217  0.00  0.00    +0.000 C 
ATOM     31  N   UNL     1       1.069   9.632  19.982  0.00  0.00    +0.000 NA
BRANCH  31  32
ATOM     32  C   UNL     1       0.174  10.074  18.894  0.00  0.00    +0.000 C 
BRANCH  32  33
ATOM     33  C   UNL     1      -0.689  11.288  19.098  0.00  0.00    +0.000 C 
ATOM     34  C   UNL     1      -1.624  11.799  18.031  0.00  0.00    +0.000 C 
ATOM     35  O   UNL     1      -0.402  12.476  18.350  0.00  0.00    +0.000 OA
ENDBRANCH  32  33
ENDBRANCH  31  32
ENDBRANCH  26  27
ENDBRANCH   9  26
TORSDOF 8
ENDMDL
MODEL 5
REMARK VINA RESULT:      -8.0      4.044      6.216
REMARK  Name = 
REMARK  8 active torsions:
REMARK  status: ('A' for Active; 'I' for Inactive)
REMARK    1  A    between atoms: N_1  and  C_2
REMARK    2  A    between atoms: C_8  and  C_9
REMARK    3  A    between atoms: C_12  and  O_13
REMARK    4  A    between atoms: O_13  and  C_14
REMARK    5  A    between atoms: N_23  and  C_24
REMARK    6  A    between atoms: C_24  and  C_25
REMARK    7  A    between atoms: N_29  and  C_30
REMARK    8  A    between atoms: C_30  and  C_31
REMARK                            x       y       z     vdW  Elec       q    Type
REMARK                         _______ _______ _______ _____ _____    ______ ____
ROOT
ATOM      1  C   UNL     1       1.531  13.268  18.731  0.00  0.00    +0.000 A 
ATOM      2  N   UNL     1       1.549  14.607  18.596  0.00  0.00    +0.000 NA
ATOM      3  C   UNL     1       0.455  15.302  18.947  0.00  0.00    +0.000 A 
ATOM      4  N   UNL     1      -0.705  14.831  19.425  0.00  0.00    +0.000 NA
ATOM      5  C   UNL     1      -0.692  13.493  19.543  0.00  0.00    +0.000 A 
ATOM      6  C   UNL     1       0.370  12.646  19.235  0.00  0.00    +0.000 A 
ATOM      7  C   UNL     1      -0.068  11.309  19.536  0.00  0.00    +0.000 A 
ATOM      8  C   UNL     1      -1.384  11.404  19.964  0.00  0.00    +0.000 A 
ATOM      9  N   UNL     1      -1.744  12.730  19.982  0.00  0.00    +0.000 N 
ENDROOT
BRANCH   7  10
ATOM     10  C   UNL     1       0.641  10.037  19.436  0.00  0.00    +0.000 A 
ATOM     11  C   UNL     1       0.870   9.257  20.578  0.00  0.00    +0.000 A 
ATOM     12  C   UNL     1       1.635   8.091  20.507  0.00  0.00    +0.000 A 
ATOM     13  C   UNL     1       2.126   7.655  19.280  0.00  0.00    +0.000 A 
ATOM     14  C   UNL     1       1.885   8.406  18.127  0.00  0.00    +0.000 A 
ATOM     15  C   UNL     1       1.135   9.584  18.205  0.00  0.00    +0.000 A 
BRANCH  13  16
ATOM     16  O   UNL     1       2.893   6.514  19.302  0.00  0.00    +0.000 OA
BRANCH  16  17
ATOM     17  C   UNL     1       2.266   5.288  19.290  0.00  0.00    +0.000 A 
ATOM     18  C   UNL     1       1.878   4.790  20.536  0.00  0.00    +0.000 A 
ATOM     19  C   UNL     1       1.225   3.562  20.621  0.00  0.00    +0.000 A 
ATOM     20  C   UNL     1       0.957   2.831  19.463  0.00  0.00    +0.000 A 
ATOM     21  C   UNL     1       1.321   3.342  18.217  0.00  0.00    +0.000 A 
ATOM     22  C   UNL     1       1.954   4.581  18.127  0.00  0.00    +0.000 A 
ENDBRANCH  16  17
ENDBRANCH  13  16
ENDBRANCH   7  10
BRANCH   1  23
ATOM     23  N   UNL     1       2.683  12.606  18.329  0.00  0.00    +0.000 N 
ATOM     24  H   UNL     1       2.539  12.164  17.429  0.00  0.00    +0.000 HD
ATOM     25  H   UNL     1       3.098  12.022  19.045  0.00  0.00    +0.000 HD
ENDBRANCH   1  23
BRANCH   9  26
ATOM     26  C   UNL     1      -3.030  13.240  20.450  0.00  0.00    +0.000 C 
BRANCH  26  27
ATOM     27  C   UNL     1      -2.979  14.002  21.799  0.00  0.00    +0.000 C 
ATOM     28  C   UNL     1      -4.350  14.145  22.449  0.00  0.00    +0.000 C 
ATOM     29  C   UNL     1      -4.533  12.850  23.208  0.00  0.00    +0.000 C 
ATOM     30  C   UNL     1      -3.118  12.383  23.530  0.00  0.00    +0.000 C 
ATOM     31  N   UNL     1      -2.168  13.260  22.814  0.00  0.00    +0.000 NA
BRANCH  31  32
ATOM     32  C   UNL     1      -1.509  14.219  23.723  0.00  0.00    +0.000 C 
BRANCH  32  33
ATOM     33  C   UNL     1      -0.674  15.327  23.146  0.00  0.00    +0.000 C 
ATOM     34  C   UNL     1      -0.143  16.459  23.989  0.00  0.00    +0.000 C 
ATOM     35  O   UNL     1      -1.228  16.646  23.073  0.00  0.00    +0.000 OA
ENDBRANCH  32  33
ENDBRANCH  31  32
ENDBRANCH  26  27
ENDBRANCH   9  26
TORSDOF 8
ENDMDL
MODEL 6
REMARK VINA RESULT:      -8.0      3.216      4.490
REMARK  Name = 
REMARK  8 active torsions:
REMARK  status: ('A' for Active; 'I' for Inactive)
REMARK    1  A    between atoms: N_1  and  C_2
REMARK    2  A    between atoms: C_8  and  C_9
REMARK    3  A    between atoms: C_12  and  O_13
REMARK    4  A    between atoms: O_13  and  C_14
REMARK    5  A    between atoms: N_23  and  C_24
REMARK    6  A    between atoms: C_24  and  C_25
REMARK    7  A    between atoms: N_29  and  C_30
REMARK    8  A    between atoms: C_30  and  C_31
REMARK                            x       y       z     vdW  Elec       q    Type
REMARK                         _______ _______ _______ _____ _____    ______ ____
ROOT
ATOM      1  C   UNL     1       1.704  13.394  18.522  0.00  0.00    +0.000 A 
ATOM      2  N   UNL     1       1.683  14.733  18.379  0.00  0.00    +0.000 NA
ATOM      3  C   UNL     1       0.629  15.413  18.856  0.00  0.00    +0.000 A 
ATOM      4  N   UNL     1      -0.457  14.926  19.472  0.00  0.00    +0.000 NA
ATOM      5  C   UNL     1      -0.408  13.589  19.594  0.00  0.00    +0.000 A 
ATOM      6  C   UNL     1       0.623  12.757  19.164  0.00  0.00    +0.000 A 
ATOM      7  C   UNL     1       0.246  11.416  19.523  0.00  0.00    +0.000 A 
ATOM      8  C   UNL     1      -1.010  11.493  20.105  0.00  0.00    +0.000 A 
ATOM      9  N   UNL     1      -1.387  12.813  20.161  0.00  0.00    +0.000 N 
ENDROOT
BRANCH   7  10
ATOM     10  C   UNL     1       0.958  10.155  19.344  0.00  0.00    +0.000 A 
ATOM     11  C   UNL     1       1.443   9.781  18.084  0.00  0.00    +0.000 A 
ATOM     12  C   UNL     1       2.034   8.532  17.885  0.00  0.00    +0.000 A 
ATOM     13  C   UNL     1       2.208   7.666  18.960  0.00  0.00    +0.000 A 
ATOM     14  C   UNL     1       1.755   8.032  20.229  0.00  0.00    +0.000 A 
ATOM     15  C   UNL     1       1.146   9.276  20.422  0.00  0.00    +0.000 A 
BRANCH  13  16
ATOM     16  O   UNL     1       2.772   6.445  18.672  0.00  0.00    +0.000 OA
BRANCH  16  17
ATOM     17  C   UNL     1       2.224   5.309  19.227  0.00  0.00    +0.000 A 
ATOM     18  C   UNL     1       1.640   4.414  18.327  0.00  0.00    +0.000 A 
ATOM     19  C   UNL     1       1.071   3.231  18.794  0.00  0.00    +0.000 A 
ATOM     20  C   UNL     1       1.087   2.939  20.159  0.00  0.00    +0.000 A 
ATOM     21  C   UNL     1       1.694   3.821  21.053  0.00  0.00    +0.000 A 
ATOM     22  C   UNL     1       2.284   4.995  20.585  0.00  0.00    +0.000 A 
ENDBRANCH  16  17
ENDBRANCH  13  16
ENDBRANCH   7  10
BRANCH   1  23
ATOM     23  N   UNL     1       2.810  12.748  17.987  0.00  0.00    +0.000 N 
ATOM     24  H   UNL     1       3.456  13.422  17.593  0.00  0.00    +0.000 HD
ATOM     25  H   UNL     1       2.584  11.958  17.395  0.00  0.00    +0.000 HD
ENDBRANCH   1  23
BRANCH   9  26
ATOM     26  C   UNL     1      -2.615  13.306  20.777  0.00  0.00    +0.000 C 
BRANCH  26  27
ATOM     27  C   UNL     1      -3.862  12.413  20.556  0.00  0.00    +0.000 C 
ATOM     28  C   UNL     1      -4.903  12.564  21.660  0.00  0.00    +0.000 C 
ATOM     29  C   UNL     1      -5.713  13.768  21.238  0.00  0.00    +0.000 C 
ATOM     30  C   UNL     1      -5.591  13.808  19.719  0.00  0.00    +0.000 C 
ATOM     31  N   UNL     1      -4.594  12.797  19.308  0.00  0.00    +0.000 NA
BRANCH  31  32
ATOM     32  C   UNL     1      -5.230  11.605  18.714  0.00  0.00    +0.000 C 
BRANCH  32  33
ATOM     33  C   UNL     1      -4.611  10.968  17.501  0.00  0.00    +0.000 C 
ATOM     34  C   UNL     1      -3.432  10.032  17.596  0.00  0.00    +0.000 C 
ATOM     35  O   UNL     1      -3.295  11.370  17.103  0.00  0.00    +0.000 OA
ENDBRANCH  32  33
ENDBRANCH  31  32
ENDBRANCH  26  27
ENDBRANCH   9  26
TORSDOF 8
ENDMDL
MODEL 7
REMARK VINA RESULT:      -7.9      4.108      6.026
REMARK  Name = 
REMARK  8 active torsions:
REMARK  status: ('A' for Active; 'I' for Inactive)
REMARK    1  A    between atoms: N_1  and  C_2
REMARK    2  A    between atoms: C_8  and  C_9
REMARK    3  A    between atoms: C_12  and  O_13
REMARK    4  A    between atoms: O_13  and  C_14
REMARK    5  A    between atoms: N_23  and  C_24
REMARK    6  A    between atoms: C_24  and  C_25
REMARK    7  A    between atoms: N_29  and  C_30
REMARK    8  A    between atoms: C_30  and  C_31
REMARK                            x       y       z     vdW  Elec       q    Type
REMARK                         _______ _______ _______ _____ _____    ______ ____
ROOT
ATOM      1  C   UNL     1       1.286  13.375  19.032  0.00  0.00    +0.000 A 
ATOM      2  N   UNL     1       1.286  14.715  18.898  0.00  0.00    +0.000 NA
ATOM      3  C   UNL     1       0.175  15.392  19.230  0.00  0.00    +0.000 A 
ATOM      4  N   UNL     1      -0.985  14.902  19.687  0.00  0.00    +0.000 NA
ATOM      5  C   UNL     1      -0.953  13.564  19.804  0.00  0.00    +0.000 A 
ATOM      6  C   UNL     1       0.127  12.735  19.515  0.00  0.00    +0.000 A 
ATOM      7  C   UNL     1      -0.296  11.391  19.808  0.00  0.00    +0.000 A 
ATOM      8  C   UNL     1      -1.620  11.465  20.212  0.00  0.00    +0.000 A 
ATOM      9  N   UNL     1      -2.001  12.785  20.225  0.00  0.00    +0.000 N 
ENDROOT
BRANCH   7  10
ATOM     10  C   UNL     1       0.435  10.130  19.720  0.00  0.00    +0.000 A 
ATOM     11  C   UNL     1       0.766   9.415  20.879  0.00  0.00    +0.000 A 
ATOM     12  C   UNL     1       1.551   8.263  20.810  0.00  0.00    +0.000 A 
ATOM     13  C   UNL     1       1.962   7.774  19.574  0.00  0.00    +0.000 A 
ATOM     14  C   UNL     1       1.619   8.459  18.406  0.00  0.00    +0.000 A 
ATOM     15  C   UNL     1       0.848   9.624  18.479  0.00  0.00    +0.000 A 
BRANCH  13  16
ATOM     16  O   UNL     1       2.756   6.652  19.597  0.00  0.00    +0.000 OA
BRANCH  16  17
ATOM     17  C   UNL     1       2.168   5.415  19.455  0.00  0.00    +0.000 A 
ATOM     18  C   UNL     1       1.777   4.788  20.640  0.00  0.00    +0.000 A 
ATOM     19  C   UNL     1       1.161   3.538  20.595  0.00  0.00    +0.000 A 
ATOM     20  C   UNL     1       0.933   2.916  19.367  0.00  0.00    +0.000 A 
ATOM     21  C   UNL     1       1.299   3.555  18.182  0.00  0.00    +0.000 A 
ATOM     22  C   UNL     1       1.895   4.815  18.224  0.00  0.00    +0.000 A 
ENDBRANCH  16  17
ENDBRANCH  13  16
ENDBRANCH   7  10
BRANCH   1  23
ATOM     23  N   UNL     1       2.456  12.731  18.650  0.00  0.00    +0.000 N 
ATOM     24  H   UNL     1       3.143  12.780  19.392  0.00  0.00    +0.000 HD
ATOM     25  H   UNL     1       2.786  12.984  17.727  0.00  0.00    +0.000 HD
ENDBRANCH   1  23
BRANCH   9  26
ATOM     26  C   UNL     1      -3.302  13.275  20.670  0.00  0.00    +0.000 C 
BRANCH  26  27
ATOM     27  C   UNL     1      -3.632  12.995  22.159  0.00  0.00    +0.000 C 
ATOM     28  C   UNL     1      -2.591  13.568  23.114  0.00  0.00    +0.000 C 
ATOM     29  C   UNL     1      -3.023  15.004  23.307  0.00  0.00    +0.000 C 
ATOM     30  C   UNL     1      -4.529  14.994  23.072  0.00  0.00    +0.000 C 
ATOM     31  N   UNL     1      -4.910  13.657  22.569  0.00  0.00    +0.000 NA
BRANCH  31  32
ATOM     32  C   UNL     1      -5.582  12.848  23.605  0.00  0.00    +0.000 C 
BRANCH  32  33
ATOM     33  C   UNL     1      -7.083  12.851  23.682  0.00  0.00    +0.000 C 
ATOM     34  C   UNL     1      -7.916  11.688  23.206  0.00  0.00    +0.000 C 
ATOM     35  O   UNL     1      -7.839  12.912  22.467  0.00  0.00    +0.000 OA
ENDBRANCH  32  33
ENDBRANCH  31  32
ENDBRANCH  26  27
ENDBRANCH   9  26
TORSDOF 8
ENDMDL
MODEL 8
REMARK VINA RESULT:      -7.9      4.017      6.123
REMARK  Name = 
REMARK  8 active torsions:
REMARK  status: ('A' for Active; 'I' for Inactive)
REMARK    1  A    between atoms: N_1  and  C_2
REMARK    2  A    between atoms: C_8  and  C_9
REMARK    3  A    between atoms: C_12  and  O_13
REMARK    4  A    between atoms: O_13  and  C_14
REMARK    5  A    between atoms: N_23  and  C_24
REMARK    6  A    between atoms: C_24  and  C_25
REMARK    7  A    between atoms: N_29  and  C_30
REMARK    8  A    between atoms: C_30  and  C_31
REMARK                            x       y       z     vdW  Elec       q    Type
REMARK                         _______ _______ _______ _____ _____    ______ ____
ROOT
ATOM      1  C   UNL     1       1.742  13.187  18.536  0.00  0.00    +0.000 A 
ATOM      2  N   UNL     1       1.704  14.527  18.411  0.00  0.00    +0.000 NA
ATOM      3  C   UNL     1       0.588  15.174  18.783  0.00  0.00    +0.000 A 
ATOM      4  N   UNL     1      -0.545  14.652  19.275  0.00  0.00    +0.000 NA
ATOM      5  C   UNL     1      -0.475  13.315  19.381  0.00  0.00    +0.000 A 
ATOM      6  C   UNL     1       0.615  12.515  19.052  0.00  0.00    +0.000 A 
ATOM      7  C   UNL     1       0.236  11.159  19.349  0.00  0.00    +0.000 A 
ATOM      8  C   UNL     1      -1.076  11.197  19.796  0.00  0.00    +0.000 A 
ATOM      9  N   UNL     1      -1.490  12.508  19.830  0.00  0.00    +0.000 N 
ENDROOT
BRANCH   7  10
ATOM     10  C   UNL     1       0.994   9.918  19.229  0.00  0.00    +0.000 A 
ATOM     11  C   UNL     1       1.501   9.508  17.989  0.00  0.00    +0.000 A 
ATOM     12  C   UNL     1       2.138   8.273  17.847  0.00  0.00    +0.000 A 
ATOM     13  C   UNL     1       2.334   7.461  18.959  0.00  0.00    +0.000 A 
ATOM     14  C   UNL     1       1.860   7.865  20.209  0.00  0.00    +0.000 A 
ATOM     15  C   UNL     1       1.205   9.094  20.344  0.00  0.00    +0.000 A 
BRANCH  13  16
ATOM     16  O   UNL     1       2.943   6.250  18.727  0.00  0.00    +0.000 OA
BRANCH  16  17
ATOM     17  C   UNL     1       2.314   5.096  19.139  0.00  0.00    +0.000 A 
ATOM     18  C   UNL     1       1.726   4.331  18.130  0.00  0.00    +0.000 A 
ATOM     19  C   UNL     1       1.076   3.139  18.450  0.00  0.00    +0.000 A 
ATOM     20  C   UNL     1       1.017   2.711  19.776  0.00  0.00    +0.000 A 
ATOM     21  C   UNL     1       1.628   3.462  20.780  0.00  0.00    +0.000 A 
ATOM     22  C   UNL     1       2.297   4.643  20.459  0.00  0.00    +0.000 A 
ENDBRANCH  16  17
ENDBRANCH  13  16
ENDBRANCH   7  10
BRANCH   1  23
ATOM     23  N   UNL     1       2.914  12.575  18.112  0.00  0.00    +0.000 N 
ATOM     24  H   UNL     1       3.363  13.133  17.396  0.00  0.00    +0.000 HD
ATOM     25  H   UNL     1       2.816  11.589  17.905  0.00  0.00    +0.000 HD
ENDBRANCH   1  23
BRANCH   9  26
ATOM     26  C   UNL     1      -2.787  12.961  20.321  0.00  0.00    +0.000 C 
BRANCH  26  27
ATOM     27  C   UNL     1      -2.737  13.808  21.618  0.00  0.00    +0.000 C 
ATOM     28  C   UNL     1      -4.107  13.988  22.261  0.00  0.00    +0.000 C 
ATOM     29  C   UNL     1      -4.283  12.744  23.102  0.00  0.00    +0.000 C 
ATOM     30  C   UNL     1      -2.865  12.304  23.450  0.00  0.00    +0.000 C 
ATOM     31  N   UNL     1      -1.920  13.136  22.677  0.00  0.00    +0.000 NA
BRANCH  31  32
ATOM     32  C   UNL     1      -1.263  14.154  23.521  0.00  0.00    +0.000 C 
BRANCH  32  33
ATOM     33  C   UNL     1      -0.867  15.470  22.913  0.00  0.00    +0.000 C 
ATOM     34  C   UNL     1       0.072  16.426  23.605  0.00  0.00    +0.000 C 
ATOM     35  O   UNL     1      -1.335  16.681  23.520  0.00  0.00    +0.000 OA
ENDBRANCH  32  33
ENDBRANCH  31  32
ENDBRANCH  26  27
ENDBRANCH   9  26
TORSDOF 8
ENDMDL
MODEL 9
REMARK VINA RESULT:      -7.9      3.939      5.379
REMARK  Name = 
REMARK  8 active torsions:
REMARK  status: ('A' for Active; 'I' for Inactive)
REMARK    1  A    between atoms: N_1  and  C_2
REMARK    2  A    between atoms: C_8  and  C_9
REMARK    3  A    between atoms: C_12  and  O_13
REMARK    4  A    between atoms: O_13  and  C_14
REMARK    5  A    between atoms: N_23  and  C_24
REMARK    6  A    between atoms: C_24  and  C_25
REMARK    7  A    between atoms: N_29  and  C_30
REMARK    8  A    between atoms: C_30  and  C_31
REMARK                            x       y       z     vdW  Elec       q    Type
REMARK                         _______ _______ _______ _____ _____    ______ ____
ROOT
ATOM      1  C   UNL     1      -0.245  10.313  22.330  0.00  0.00    +0.000 A 
ATOM      2  N   UNL     1      -0.951  10.979  23.264  0.00  0.00    +0.000 NA
ATOM      3  C   UNL     1      -1.436  12.193  22.956  0.00  0.00    +0.000 A 
ATOM      4  N   UNL     1      -1.304  12.867  21.805  0.00  0.00    +0.000 NA
ATOM      5  C   UNL     1      -0.592  12.178  20.899  0.00  0.00    +0.000 A 
ATOM      6  C   UNL     1      -0.042  10.909  21.070  0.00  0.00    +0.000 A 
ATOM      7  C   UNL     1       0.611  10.574  19.833  0.00  0.00    +0.000 A 
ATOM      8  C   UNL     1       0.470  11.669  18.993  0.00  0.00    +0.000 A 
ATOM      9  N   UNL     1      -0.275  12.624  19.641  0.00  0.00    +0.000 N 
ENDROOT
BRANCH   7  10
ATOM     10  C   UNL     1       1.322   9.362  19.438  0.00  0.00    +0.000 A 
ATOM     11  C   UNL     1       1.747   9.183  18.115  0.00  0.00    +0.000 A 
ATOM     12  C   UNL     1       2.336   7.984  17.707  0.00  0.00    +0.000 A 
ATOM     13  C   UNL     1       2.566   6.972  18.634  0.00  0.00    +0.000 A 
ATOM     14  C   UNL     1       2.172   7.143  19.963  0.00  0.00    +0.000 A 
ATOM     15  C   UNL     1       1.565   8.337  20.364  0.00  0.00    +0.000 A 
BRANCH  13  16
ATOM     16  O   UNL     1       3.122   5.814  18.144  0.00  0.00    +0.000 OA
BRANCH  16  17
ATOM     17  C   UNL     1       2.707   4.605  18.657  0.00  0.00    +0.000 A 
ATOM     18  C   UNL     1       1.540   4.076  18.101  0.00  0.00    +0.000 A 
ATOM     19  C   UNL     1       1.050   2.850  18.548  0.00  0.00    +0.000 A 
ATOM     20  C   UNL     1       1.726   2.150  19.547  0.00  0.00    +0.000 A 
ATOM     21  C   UNL     1       2.907   2.666  20.083  0.00  0.00    +0.000 A 
ATOM     22  C   UNL     1       3.411   3.881  19.621  0.00  0.00    +0.000 A 
ENDBRANCH  16  17
ENDBRANCH  13  16
ENDBRANCH   7  10
BRANCH   1  23
ATOM     23  N   UNL     1       0.249   9.075  22.719  0.00  0.00    +0.000 N 
ATOM     24  H   UNL     1       1.132   8.888  22.258  0.00  0.00    +0.000 HD
ATOM     25  H   UNL     1      -0.432   8.327  22.685  0.00  0.00    +0.000 HD
ENDBRANCH   1  23
BRANCH   9  26
ATOM     26  C   UNL     1      -0.704  13.890  19.052  0.00  0.00    +0.000 C 
BRANCH  26  27
ATOM     27  C   UNL     1       0.430  14.922  18.825  0.00  0.00    +0.000 C 
ATOM     28  C   UNL     1      -0.094  16.334  18.589  0.00  0.00    +0.000 C 
ATOM     29  C   UNL     1      -0.294  16.888  19.981  0.00  0.00    +0.000 C 
ATOM     30  C   UNL     1       0.703  16.130  20.851  0.00  0.00    +0.000 C 
ATOM     31  N   UNL     1       1.301  15.052  20.035  0.00  0.00    +0.000 NA
BRANCH  31  32
ATOM     32  C   UNL     1       2.682  15.372  19.624  0.00  0.00    +0.000 C 
BRANCH  32  33
ATOM     33  C   UNL     1       3.258  14.714  18.402  0.00  0.00    +0.000 C 
ATOM     34  C   UNL     1       4.652  15.011  17.908  0.00  0.00    +0.000 C 
ATOM     35  O   UNL     1       3.490  15.508  17.232  0.00  0.00    +0.000 OA
ENDBRANCH  32  33
ENDBRANCH  31  32
ENDBRANCH  26  27
ENDBRANCH   9  26
TORSDOF 8
ENDMDL
