MODEL 1
REMARK VINA RESULT:      -6.6      0.000      0.000
REMARK  Name = 
REMARK  3 active torsions:
REMARK  status: ('A' for Active; 'I' for Inactive)
REMARK    1  A    between atoms: N_1  and  C_2
REMARK    2  A    between atoms: C_2  and  C_3
REMARK    3  A    between atoms: C_3  and  N_4
REMARK                            x       y       z     vdW  Elec       q    Type
REMARK                         _______ _______ _______ _____ _____    ______ ____
ROOT
ATOM      1  N   UNL     1       6.482   4.160  18.349  0.00  0.00    +0.000 N 
ATOM      2  C   UNL     1       5.216   4.016  18.791  0.00  0.00    +0.000 A 
ATOM      3  N   UNL     1       4.144   4.698  18.458  0.00  0.00    +0.000 NA
ATOM      4  C   UNL     1       3.130   4.195  19.232  0.00  0.00    +0.000 A 
ATOM      5  C   UNL     1       1.779   4.563  19.286  0.00  0.00    +0.000 A 
ATOM      6  C   UNL     1       0.941   3.908  20.197  0.00  0.00    +0.000 A 
ATOM      7  C   UNL     1       1.439   2.902  21.032  0.00  0.00    +0.000 A 
ATOM      8  C   UNL     1       2.783   2.512  20.981  0.00  0.00    +0.000 A 
ATOM      9  C   UNL     1       3.594   3.182  20.065  0.00  0.00    +0.000 A 
ATOM     10  N   UNL     1       4.921   3.074  19.740  0.00  0.00    +0.000 N 
ATOM     11  H   UNL     1       7.238   3.763  18.907  0.00  0.00    +0.000 HD
ATOM     12  H   UNL     1       5.585   2.434  20.145  0.00  0.00    +0.000 HD
ENDROOT
BRANCH   1  13
ATOM     13  C   UNL     1       6.870   5.492  17.883  0.00  0.00    +0.000 C 
BRANCH  13  14
ATOM     14  C   UNL     1       7.857   6.117  18.891  0.00  0.00    +0.000 C 
BRANCH  14  15
ATOM     15  N   UNL     1       7.848   5.400  20.179  0.00  0.00    +0.000 NA
ATOM     16  H   UNL     1       8.088   4.423  20.007  0.00  0.00    +0.000 HD
ATOM     17  H   UNL     1       6.894   5.391  20.542  0.00  0.00    +0.000 HD
ENDBRANCH  14  15
ENDBRANCH  13  14
ENDBRANCH   1  13
TORSDOF 3
ENDMDL
MODEL 2
REMARK VINA RESULT:      -6.4      1.145      1.404
REMARK  Name = 
REMARK  3 active torsions:
REMARK  status: ('A' for Active; 'I' for Inactive)
REMARK    1  A    between atoms: N_1  and  C_2
REMARK    2  A    between atoms: C_2  and  C_3
REMARK    3  A    between atoms: C_3  and  N_4
REMARK                            x       y       z     vdW  Elec       q    Type
REMARK                         _______ _______ _______ _____ _____    ______ ____
ROOT
ATOM      1  N   UNL     1       6.541   4.251  18.193  0.00  0.00    +0.000 N 
ATOM      2  C   UNL     1       5.290   4.208  18.695  0.00  0.00    +0.000 A 
ATOM      3  N   UNL     1       4.544   5.196  19.135  0.00  0.00    +0.000 NA
ATOM      4  C   UNL     1       3.388   4.613  19.587  0.00  0.00    +0.000 A 
ATOM      5  C   UNL     1       2.254   5.202  20.163  0.00  0.00    +0.000 A 
ATOM      6  C   UNL     1       1.203   4.374  20.575  0.00  0.00    +0.000 A 
ATOM      7  C   UNL     1       1.278   2.987  20.411  0.00  0.00    +0.000 A 
ATOM      8  C   UNL     1       2.397   2.382  19.825  0.00  0.00    +0.000 A 
ATOM      9  C   UNL     1       3.428   3.232  19.424  0.00  0.00    +0.000 A 
ATOM     10  N   UNL     1       4.642   3.008  18.828  0.00  0.00    +0.000 N 
ATOM     11  H   UNL     1       7.084   3.388  18.170  0.00  0.00    +0.000 HD
ATOM     12  H   UNL     1       5.019   2.115  18.556  0.00  0.00    +0.000 HD
ENDROOT
BRANCH   1  13
ATOM     13  C   UNL     1       7.394   5.351  18.644  0.00  0.00    +0.000 C 
BRANCH  13  14
ATOM     14  C   UNL     1       7.387   6.470  17.583  0.00  0.00    +0.000 C 
BRANCH  14  15
ATOM     15  N   UNL     1       7.353   5.925  16.214  0.00  0.00    +0.000 NA
ATOM     16  H   UNL     1       7.876   6.553  15.603  0.00  0.00    +0.000 HD
ATOM     17  H   UNL     1       6.390   5.948  15.876  0.00  0.00    +0.000 HD
ENDBRANCH  14  15
ENDBRANCH  13  14
ENDBRANCH   1  13
TORSDOF 3
ENDMDL
MODEL 3
REMARK VINA RESULT:      -6.4      0.993      1.032
REMARK  Name = 
REMARK  3 active torsions:
REMARK  status: ('A' for Active; 'I' for Inactive)
REMARK    1  A    between atoms: N_1  and  C_2
REMARK    2  A    between atoms: C_2  and  C_3
REMARK    3  A    between atoms: C_3  and  N_4
REMARK                            x       y       z     vdW  Elec       q    Type
REMARK                         _______ _______ _______ _____ _____    ______ ____
ROOT
ATOM      1  N   UNL     1       6.862   4.281  18.158  0.00  0.00    +0.000 N 
ATOM      2  C   UNL     1       5.541   4.026  18.261  0.00  0.00    +0.000 A 
ATOM      3  N   UNL     1       4.548   4.535  17.568  0.00  0.00    +0.000 NA
ATOM      4  C   UNL     1       3.409   3.989  18.100  0.00  0.00    +0.000 A 
ATOM      5  C   UNL     1       2.068   4.191  17.744  0.00  0.00    +0.000 A 
ATOM      6  C   UNL     1       1.072   3.530  18.473  0.00  0.00    +0.000 A 
ATOM      7  C   UNL     1       1.407   2.680  19.533  0.00  0.00    +0.000 A 
ATOM      8  C   UNL     1       2.741   2.455  19.894  0.00  0.00    +0.000 A 
ATOM      9  C   UNL     1       3.711   3.127  19.150  0.00  0.00    +0.000 A 
ATOM     10  N   UNL     1       5.081   3.152  19.209  0.00  0.00    +0.000 N 
ATOM     11  H   UNL     1       7.465   4.037  18.944  0.00  0.00    +0.000 HD
ATOM     12  H   UNL     1       5.660   2.642  19.855  0.00  0.00    +0.000 HD
ENDROOT
BRANCH   1  13
ATOM     13  C   UNL     1       7.241   5.599  17.647  0.00  0.00    +0.000 C 
BRANCH  13  14
ATOM     14  C   UNL     1       7.927   6.404  18.770  0.00  0.00    +0.000 C 
BRANCH  14  15
ATOM     15  N   UNL     1       8.183   5.571  19.960  0.00  0.00    +0.000 NA
ATOM     16  H   UNL     1       9.130   5.761  20.289  0.00  0.00    +0.000 HD
ATOM     17  H   UNL     1       8.178   4.590  19.679  0.00  0.00    +0.000 HD
ENDBRANCH  14  15
ENDBRANCH  13  14
ENDBRANCH   1  13
TORSDOF 3
ENDMDL
MODEL 4
REMARK VINA RESULT:      -6.3      1.194      1.728
REMARK  Name = 
REMARK  3 active torsions:
REMARK  status: ('A' for Active; 'I' for Inactive)
REMARK    1  A    between atoms: N_1  and  C_2
REMARK    2  A    between atoms: C_2  and  C_3
REMARK    3  A    between atoms: C_3  and  N_4
REMARK                            x       y       z     vdW  Elec       q    Type
REMARK                         _______ _______ _______ _____ _____    ______ ____
ROOT
ATOM      1  N   UNL     1       6.328   3.994  17.994  0.00  0.00    +0.000 N 
ATOM      2  C   UNL     1       5.107   3.898  18.558  0.00  0.00    +0.000 A 
ATOM      3  N   UNL     1       4.010   4.560  18.268  0.00  0.00    +0.000 NA
ATOM      4  C   UNL     1       3.069   4.130  19.168  0.00  0.00    +0.000 A 
ATOM      5  C   UNL     1       1.729   4.514  19.314  0.00  0.00    +0.000 A 
ATOM      6  C   UNL     1       0.975   3.941  20.346  0.00  0.00    +0.000 A 
ATOM      7  C   UNL     1       1.545   3.002  21.211  0.00  0.00    +0.000 A 
ATOM      8  C   UNL     1       2.878   2.596  21.072  0.00  0.00    +0.000 A 
ATOM      9  C   UNL     1       3.604   3.183  20.035  0.00  0.00    +0.000 A 
ATOM     10  N   UNL     1       4.897   3.037  19.603  0.00  0.00    +0.000 N 
ATOM     11  H   UNL     1       7.131   3.636  18.512  0.00  0.00    +0.000 HD
ATOM     12  H   UNL     1       5.594   2.426  19.997  0.00  0.00    +0.000 HD
ENDROOT
BRANCH   1  13
ATOM     13  C   UNL     1       6.675   5.281  17.390  0.00  0.00    +0.000 C 
BRANCH  13  14
ATOM     14  C   UNL     1       6.399   5.222  15.873  0.00  0.00    +0.000 C 
BRANCH  14  15
ATOM     15  N   UNL     1       7.640   5.351  15.087  0.00  0.00    +0.000 NA
ATOM     16  H   UNL     1       7.437   5.898  14.250  0.00  0.00    +0.000 HD
ATOM     17  H   UNL     1       7.914   4.426  14.755  0.00  0.00    +0.000 HD
ENDBRANCH  14  15
ENDBRANCH  13  14
ENDBRANCH   1  13
TORSDOF 3
ENDMDL
MODEL 5
REMARK VINA RESULT:      -6.3      1.616      1.717
REMARK  Name = 
REMARK  3 active torsions:
REMARK  status: ('A' for Active; 'I' for Inactive)
REMARK    1  A    between atoms: N_1  and  C_2
REMARK    2  A    between atoms: C_2  and  C_3
REMARK    3  A    between atoms: C_3  and  N_4
REMARK                            x       y       z     vdW  Elec       q    Type
REMARK                         _______ _______ _______ _____ _____    ______ ____
ROOT
ATOM      1  N   UNL     1       5.432   3.304  16.756  0.00  0.00    +0.000 N 
ATOM      2  C   UNL     1       4.419   3.388  17.643  0.00  0.00    +0.000 A 
ATOM      3  N   UNL     1       3.306   4.080  17.558  0.00  0.00    +0.000 NA
ATOM      4  C   UNL     1       2.646   3.865  18.741  0.00  0.00    +0.000 A 
ATOM      5  C   UNL     1       1.414   4.368  19.183  0.00  0.00    +0.000 A 
ATOM      6  C   UNL     1       0.968   4.018  20.464  0.00  0.00    +0.000 A 
ATOM      7  C   UNL     1       1.731   3.181  21.284  0.00  0.00    +0.000 A 
ATOM      8  C   UNL     1       2.957   2.659  20.854  0.00  0.00    +0.000 A 
ATOM      9  C   UNL     1       3.377   3.024  19.574  0.00  0.00    +0.000 A 
ATOM     10  N   UNL     1       4.489   2.715  18.834  0.00  0.00    +0.000 N 
ATOM     11  H   UNL     1       6.338   2.970  17.086  0.00  0.00    +0.000 HD
ATOM     12  H   UNL     1       5.250   2.120  19.118  0.00  0.00    +0.000 HD
ENDROOT
BRANCH   1  13
ATOM     13  C   UNL     1       5.631   4.453  15.873  0.00  0.00    +0.000 C 
BRANCH  13  14
ATOM     14  C   UNL     1       6.972   5.135  16.218  0.00  0.00    +0.000 C 
BRANCH  14  15
ATOM     15  N   UNL     1       7.857   4.240  16.985  0.00  0.00    +0.000 NA
ATOM     16  H   UNL     1       7.645   3.276  16.727  0.00  0.00    +0.000 HD
ATOM     17  H   UNL     1       7.623   4.319  17.976  0.00  0.00    +0.000 HD
ENDBRANCH  14  15
ENDBRANCH  13  14
ENDBRANCH   1  13
TORSDOF 3
ENDMDL
MODEL 6
REMARK VINA RESULT:      -6.2      1.185      1.205
REMARK  Name = 
REMARK  3 active torsions:
REMARK  status: ('A' for Active; 'I' for Inactive)
REMARK    1  A    between atoms: N_1  and  C_2
REMARK    2  A    between atoms: C_2  and  C_3
REMARK    3  A    between atoms: C_3  and  N_4
REMARK                            x       y       z     vdW  Elec       q    Type
REMARK                         _______ _______ _______ _____ _____    ______ ____
ROOT
ATOM      1  N   UNL     1       6.280   4.121  17.683  0.00  0.00    +0.000 N 
ATOM      2  C   UNL     1       5.074   3.963  18.265  0.00  0.00    +0.000 A 
ATOM      3  N   UNL     1       3.916   4.476  17.914  0.00  0.00    +0.000 NA
ATOM      4  C   UNL     1       3.022   4.052  18.863  0.00  0.00    +0.000 A 
ATOM      5  C   UNL     1       1.649   4.311  18.978  0.00  0.00    +0.000 A 
ATOM      6  C   UNL     1       0.955   3.780  20.072  0.00  0.00    +0.000 A 
ATOM      7  C   UNL     1       1.615   3.002  21.029  0.00  0.00    +0.000 A 
ATOM      8  C   UNL     1       2.983   2.722  20.923  0.00  0.00    +0.000 A 
ATOM      9  C   UNL     1       3.648   3.264  19.823  0.00  0.00    +0.000 A 
ATOM     10  N   UNL     1       4.950   3.204  19.398  0.00  0.00    +0.000 N 
ATOM     11  H   UNL     1       7.114   3.905  18.230  0.00  0.00    +0.000 HD
ATOM     12  H   UNL     1       5.704   2.713  19.850  0.00  0.00    +0.000 HD
ENDROOT
BRANCH   1  13
ATOM     13  C   UNL     1       6.496   5.363  16.941  0.00  0.00    +0.000 C 
BRANCH  13  14
ATOM     14  C   UNL     1       7.256   6.366  17.834  0.00  0.00    +0.000 C 
BRANCH  14  15
ATOM     15  N   UNL     1       7.535   7.627  17.123  0.00  0.00    +0.000 NA
ATOM     16  H   UNL     1       8.436   7.540  16.653  0.00  0.00    +0.000 HD
ATOM     17  H   UNL     1       7.652   8.371  17.812  0.00  0.00    +0.000 HD
ENDBRANCH  14  15
ENDBRANCH  13  14
ENDBRANCH   1  13
TORSDOF 3
ENDMDL
MODEL 7
REMARK VINA RESULT:      -6.2      0.994      1.757
REMARK  Name = 
REMARK  3 active torsions:
REMARK  status: ('A' for Active; 'I' for Inactive)
REMARK    1  A    between atoms: N_1  and  C_2
REMARK    2  A    between atoms: C_2  and  C_3
REMARK    3  A    between atoms: C_3  and  N_4
REMARK                            x       y       z     vdW  Elec       q    Type
REMARK                         _______ _______ _______ _____ _____    ______ ____
ROOT
ATOM      1  N   UNL     1       5.857   5.308  17.541  0.00  0.00    +0.000 N 
ATOM      2  C   UNL     1       4.813   4.740  18.180  0.00  0.00    +0.000 A 
ATOM      3  N   UNL     1       4.770   4.212  19.382  0.00  0.00    +0.000 NA
ATOM      4  C   UNL     1       3.496   3.727  19.527  0.00  0.00    +0.000 A 
ATOM      5  C   UNL     1       2.910   3.061  20.613  0.00  0.00    +0.000 A 
ATOM      6  C   UNL     1       1.581   2.634  20.501  0.00  0.00    +0.000 A 
ATOM      7  C   UNL     1       0.850   2.871  19.332  0.00  0.00    +0.000 A 
ATOM      8  C   UNL     1       1.414   3.547  18.243  0.00  0.00    +0.000 A 
ATOM      9  C   UNL     1       2.739   3.961  18.383  0.00  0.00    +0.000 A 
ATOM     10  N   UNL     1       3.599   4.632  17.554  0.00  0.00    +0.000 N 
ATOM     11  H   UNL     1       5.811   5.402  16.527  0.00  0.00    +0.000 HD
ATOM     12  H   UNL     1       3.395   4.968  16.626  0.00  0.00    +0.000 HD
ENDROOT
BRANCH   1  13
ATOM     13  C   UNL     1       7.192   4.849  17.926  0.00  0.00    +0.000 C 
BRANCH  13  14
ATOM     14  C   UNL     1       7.834   5.886  18.871  0.00  0.00    +0.000 C 
BRANCH  14  15
ATOM     15  N   UNL     1       7.805   5.436  20.275  0.00  0.00    +0.000 NA
ATOM     16  H   UNL     1       6.937   4.925  20.432  0.00  0.00    +0.000 HD
ATOM     17  H   UNL     1       7.757   6.257  20.880  0.00  0.00    +0.000 HD
ENDBRANCH  14  15
ENDBRANCH  13  14
ENDBRANCH   1  13
TORSDOF 3
ENDMDL
MODEL 8
REMARK VINA RESULT:      -6.2      1.861      5.184
REMARK  Name = 
REMARK  3 active torsions:
REMARK  status: ('A' for Active; 'I' for Inactive)
REMARK    1  A    between atoms: N_1  and  C_2
REMARK    2  A    between atoms: C_2  and  C_3
REMARK    3  A    between atoms: C_3  and  N_4
REMARK                            x       y       z     vdW  Elec       q    Type
REMARK                         _______ _______ _______ _____ _____    ______ ____
ROOT
ATOM      1  N   UNL     1       3.854   2.685  18.982  0.00  0.00    +0.000 N 
ATOM      2  C   UNL     1       4.589   3.774  18.677  0.00  0.00    +0.000 A 
ATOM      3  N   UNL     1       4.312   4.749  17.842  0.00  0.00    +0.000 NA
ATOM      4  C   UNL     1       5.407   5.573  17.859  0.00  0.00    +0.000 A 
ATOM      5  C   UNL     1       5.647   6.758  17.148  0.00  0.00    +0.000 A 
ATOM      6  C   UNL     1       6.877   7.406  17.320  0.00  0.00    +0.000 A 
ATOM      7  C   UNL     1       7.845   6.886  18.185  0.00  0.00    +0.000 A 
ATOM      8  C   UNL     1       7.617   5.711  18.913  0.00  0.00    +0.000 A 
ATOM      9  C   UNL     1       6.384   5.088  18.722  0.00  0.00    +0.000 A 
ATOM     10  N   UNL     1       5.821   3.954  19.249  0.00  0.00    +0.000 N 
ATOM     11  H   UNL     1       4.323   1.889  19.413  0.00  0.00    +0.000 HD
ATOM     12  H   UNL     1       6.243   3.334  19.921  0.00  0.00    +0.000 HD
ENDROOT
BRANCH   1  13
ATOM     13  C   UNL     1       2.931   2.205  17.953  0.00  0.00    +0.000 C 
BRANCH  13  14
ATOM     14  C   UNL     1       1.509   2.714  18.266  0.00  0.00    +0.000 C 
BRANCH  14  15
ATOM     15  N   UNL     1       1.198   3.952  17.528  0.00  0.00    +0.000 NA
ATOM     16  H   UNL     1       1.222   3.747  16.529  0.00  0.00    +0.000 HD
ATOM     17  H   UNL     1       1.947   4.627  17.690  0.00  0.00    +0.000 HD
ENDBRANCH  14  15
ENDBRANCH  13  14
ENDBRANCH   1  13
TORSDOF 3
ENDMDL
MODEL 9
REMARK VINA RESULT:      -6.2      1.353      2.098
REMARK  Name = 
REMARK  3 active torsions:
REMARK  status: ('A' for Active; 'I' for Inactive)
REMARK    1  A    between atoms: N_1  and  C_2
REMARK    2  A    between atoms: C_2  and  C_3
REMARK    3  A    between atoms: C_3  and  N_4
REMARK                            x       y       z     vdW  Elec       q    Type
REMARK                         _______ _______ _______ _____ _____    ______ ____
ROOT
ATOM      1  N   UNL     1       6.483   5.422  18.938  0.00  0.00    +0.000 N 
ATOM      2  C   UNL     1       5.310   4.857  19.290  0.00  0.00    +0.000 A 
ATOM      3  N   UNL     1       4.976   3.587  19.292  0.00  0.00    +0.000 NA
ATOM      4  C   UNL     1       3.661   3.551  19.679  0.00  0.00    +0.000 A 
ATOM      5  C   UNL     1       2.805   2.453  19.842  0.00  0.00    +0.000 A 
ATOM      6  C   UNL     1       1.477   2.688  20.221  0.00  0.00    +0.000 A 
ATOM      7  C   UNL     1       1.014   3.989  20.438  0.00  0.00    +0.000 A 
ATOM      8  C   UNL     1       1.859   5.097  20.293  0.00  0.00    +0.000 A 
ATOM      9  C   UNL     1       3.176   4.834  19.915  0.00  0.00    +0.000 A 
ATOM     10  N   UNL     1       4.259   5.641  19.685  0.00  0.00    +0.000 N 
ATOM     11  H   UNL     1       6.493   6.417  18.712  0.00  0.00    +0.000 HD
ATOM     12  H   UNL     1       4.283   6.645  19.760  0.00  0.00    +0.000 HD
ENDROOT
BRANCH   1  13
ATOM     13  C   UNL     1       7.299   4.696  17.964  0.00  0.00    +0.000 C 
BRANCH  13  14
ATOM     14  C   UNL     1       7.029   5.257  16.553  0.00  0.00    +0.000 C 
BRANCH  14  15
ATOM     15  N   UNL     1       7.464   6.661  16.431  0.00  0.00    +0.000 NA
ATOM     16  H   UNL     1       8.000   6.758  15.568  0.00  0.00    +0.000 HD
ATOM     17  H   UNL     1       8.118   6.867  17.188  0.00  0.00    +0.000 HD
ENDBRANCH  14  15
ENDBRANCH  13  14
ENDBRANCH   1  13
TORSDOF 3
ENDMDL
