MODEL 1
REMARK VINA RESULT:      -8.4      0.000      0.000
REMARK  Name = 
REMARK  8 active torsions:
REMARK  status: ('A' for Active; 'I' for Inactive)
REMARK    1  A    between atoms: C_1  and  N_2
REMARK    2  A    between atoms: C_4  and  C_5
REMARK    3  A    between atoms: C_8  and  C_9
REMARK    4  A    between atoms: C_10  and  C_11
REMARK    5  A    between atoms: N_13  and  C_14
REMARK    6  A    between atoms: C_19  and  N_20
REMARK    7  A    between atoms: C_23  and  C_24
REMARK    8  A    between atoms: N_26  and  C_27
REMARK                            x       y       z     vdW  Elec       q    Type
REMARK                         _______ _______ _______ _____ _____    ______ ____
ROOT
ATOM      1  C   UNL     1      10.424  13.442  19.632  0.00  0.00    +0.000 A 
ATOM      2  C   UNL     1      10.699  12.803  18.417  0.00  0.00    +0.000 A 
ATOM      3  C   UNL     1      10.277  11.492  18.190  0.00  0.00    +0.000 A 
ATOM      4  C   UNL     1       9.586  10.785  19.179  0.00  0.00    +0.000 A 
ATOM      5  C   UNL     1       9.317  11.417  20.397  0.00  0.00    +0.000 A 
ATOM      6  C   UNL     1       9.742  12.726  20.627  0.00  0.00    +0.000 A 
ENDROOT
BRANCH   1  10
ATOM      7  C   UNL     1      11.327  17.500  17.290  0.00  0.00    +0.000 C 
ATOM      8  N   UNL     1      11.131  16.891  18.603  0.00  0.00    +0.000 NA
ATOM      9  C   UNL     1      11.525  15.473  18.589  0.00  0.00    +0.000 C 
ATOM     10  C   UNL     1      10.833  14.887  19.830  0.00  0.00    +0.000 C 
ATOM     11  C   UNL     1       9.651  15.834  20.095  0.00  0.00    +0.000 C 
ATOM     12  C   UNL     1       9.711  16.878  18.984  0.00  0.00    +0.000 C 
BRANCH  11  13
ATOM     13  C   UNL     1       9.736  16.465  21.477  0.00  0.00    +0.000 C 
ATOM     14  O   UNL     1       9.422  17.645  21.619  0.00  0.00    +0.000 OA
ATOM     15  N   UNL     1      10.170  15.618  22.486  0.00  0.00    +0.000 N 
ATOM     16  H   UNL     1      10.546  14.719  22.189  0.00  0.00    +0.000 HD
BRANCH  15  17
ATOM     17  C   UNL     1      10.282  15.945  23.854  0.00  0.00    +0.000 A 
ATOM     18  C   UNL     1       9.353  15.530  24.815  0.00  0.00    +0.000 A 
ATOM     19  C   UNL     1       9.490  15.909  26.153  0.00  0.00    +0.000 A 
ATOM     20  C   UNL     1      10.565  16.699  26.531  0.00  0.00    +0.000 A 
ATOM     21  F   UNL     1      10.687  17.077  27.811  0.00  0.00    +0.000 F 
ATOM     22  C   UNL     1      11.514  17.102  25.601  0.00  0.00    +0.000 A 
ATOM     23  C   UNL     1      11.380  16.716  24.263  0.00  0.00    +0.000 A 
ENDBRANCH  15  17
ENDBRANCH  11  13
ENDBRANCH   1  10
BRANCH   4  24
ATOM     24  C   UNL     1       9.047   9.445  18.953  0.00  0.00    +0.000 C 
ATOM     25  C   UNL     1       8.265   9.088  17.918  0.00  0.00    +0.000 C 
BRANCH  25  26
ATOM     26  C   UNL     1       7.732   7.701  17.897  0.00  0.00    +0.000 C 
ATOM     27  O   UNL     1       8.160   6.863  18.684  0.00  0.00    +0.000 OA
ATOM     28  N   UNL     1       6.767   7.507  16.931  0.00  0.00    +0.000 N 
ATOM     29  H   UNL     1       6.678   8.198  16.203  0.00  0.00    +0.000 HD
BRANCH  28  30
ATOM     30  C   UNL     1       5.991   6.331  16.775  0.00  0.00    +0.000 A 
ATOM     31  C   UNL     1       4.825   6.122  17.522  0.00  0.00    +0.000 A 
ATOM     32  C   UNL     1       4.099   4.938  17.410  0.00  0.00    +0.000 A 
ATOM     33  C   UNL     1       4.534   3.942  16.548  0.00  0.00    +0.000 A 
ATOM     34  C   UNL     1       5.682   4.145  15.778  0.00  0.00    +0.000 A 
ATOM     35  C   UNL     1       6.389   5.357  15.830  0.00  0.00    +0.000 A 
BRANCH  35  36
ATOM     36  N   UNL     1       7.599   5.453  15.106  0.00  0.00    +0.000 N 
ATOM     37  H   UNL     1       7.566   4.947  14.223  0.00  0.00    +0.000 HD
ATOM     38  H   UNL     1       7.936   6.395  14.971  0.00  0.00    +0.000 HD
ENDBRANCH  35  36
ENDBRANCH  28  30
ENDBRANCH  25  26
ENDBRANCH   4  24
TORSDOF 7
ENDMDL
MODEL 2
REMARK VINA RESULT:      -8.2      9.720     14.118
REMARK  Name = 
REMARK  8 active torsions:
REMARK  status: ('A' for Active; 'I' for Inactive)
REMARK    1  A    between atoms: C_1  and  N_2
REMARK    2  A    between atoms: C_4  and  C_5
REMARK    3  A    between atoms: C_8  and  C_9
REMARK    4  A    between atoms: C_10  and  C_11
REMARK    5  A    between atoms: N_13  and  C_14
REMARK    6  A    between atoms: C_19  and  N_20
REMARK    7  A    between atoms: C_23  and  C_24
REMARK    8  A    between atoms: N_26  and  C_27
REMARK                            x       y       z     vdW  Elec       q    Type
REMARK                         _______ _______ _______ _____ _____    ______ ____
ROOT
ATOM      1  C   UNL     1       1.757   6.935  20.184  0.00  0.00    +0.000 A 
ATOM      2  C   UNL     1       1.020   7.183  21.349  0.00  0.00    +0.000 A 
ATOM      3  C   UNL     1       0.402   8.418  21.552  0.00  0.00    +0.000 A 
ATOM      4  C   UNL     1       0.521   9.438  20.603  0.00  0.00    +0.000 A 
ATOM      5  C   UNL     1       1.264   9.198  19.443  0.00  0.00    +0.000 A 
ATOM      6  C   UNL     1       1.886   7.964  19.241  0.00  0.00    +0.000 A 
ENDROOT
BRANCH   1  10
ATOM      7  C   UNL     1       1.745   2.447  21.806  0.00  0.00    +0.000 C 
ATOM      8  N   UNL     1       2.194   3.335  20.737  0.00  0.00    +0.000 NA
ATOM      9  C   UNL     1       2.368   4.710  21.233  0.00  0.00    +0.000 C 
ATOM     10  C   UNL     1       2.362   5.566  19.957  0.00  0.00    +0.000 C 
ATOM     11  C   UNL     1       1.599   4.715  18.927  0.00  0.00    +0.000 C 
ATOM     12  C   UNL     1       1.186   3.451  19.672  0.00  0.00    +0.000 C 
BRANCH  11  13
ATOM     13  C   UNL     1       2.456   4.407  17.708  0.00  0.00    +0.000 C 
ATOM     14  O   UNL     1       2.008   3.674  16.829  0.00  0.00    +0.000 OA
ATOM     15  N   UNL     1       3.706   5.007  17.699  0.00  0.00    +0.000 N 
ATOM     16  H   UNL     1       3.999   5.453  18.568  0.00  0.00    +0.000 HD
BRANCH  15  17
ATOM     17  C   UNL     1       4.661   4.922  16.664  0.00  0.00    +0.000 A 
ATOM     18  C   UNL     1       5.261   3.717  16.278  0.00  0.00    +0.000 A 
ATOM     19  C   UNL     1       6.227   3.690  15.269  0.00  0.00    +0.000 A 
ATOM     20  C   UNL     1       6.590   4.871  14.641  0.00  0.00    +0.000 A 
ATOM     21  F   UNL     1       7.529   4.848  13.686  0.00  0.00    +0.000 F 
ATOM     22  C   UNL     1       5.992   6.075  14.988  0.00  0.00    +0.000 A 
ATOM     23  C   UNL     1       5.018   6.101  15.993  0.00  0.00    +0.000 A 
ENDBRANCH  15  17
ENDBRANCH  11  13
ENDBRANCH   1  10
BRANCH   4  24
ATOM     24  C   UNL     1      -0.181  10.713  20.731  0.00  0.00    +0.000 C 
ATOM     25  C   UNL     1      -0.598  11.256  21.889  0.00  0.00    +0.000 C 
BRANCH  25  26
ATOM     26  C   UNL     1      -1.379  12.519  21.822  0.00  0.00    +0.000 C 
ATOM     27  O   UNL     1      -1.493  13.119  20.759  0.00  0.00    +0.000 OA
ATOM     28  N   UNL     1      -1.908  12.892  23.041  0.00  0.00    +0.000 N 
ATOM     29  H   UNL     1      -1.548  12.450  23.871  0.00  0.00    +0.000 HD
BRANCH  28  30
ATOM     30  C   UNL     1      -2.807  13.970  23.246  0.00  0.00    +0.000 A 
ATOM     31  C   UNL     1      -2.344  15.264  23.512  0.00  0.00    +0.000 A 
ATOM     32  C   UNL     1      -3.229  16.308  23.772  0.00  0.00    +0.000 A 
ATOM     33  C   UNL     1      -4.596  16.067  23.773  0.00  0.00    +0.000 A 
ATOM     34  C   UNL     1      -5.074  14.787  23.485  0.00  0.00    +0.000 A 
ATOM     35  C   UNL     1      -4.199  13.739  23.157  0.00  0.00    +0.000 A 
BRANCH  35  36
ATOM     36  N   UNL     1      -4.744  12.448  22.982  0.00  0.00    +0.000 N 
ATOM     37  H   UNL     1      -4.157  11.852  22.401  0.00  0.00    +0.000 HD
ATOM     38  H   UNL     1      -5.000  11.978  23.837  0.00  0.00    +0.000 HD
ENDBRANCH  35  36
ENDBRANCH  28  30
ENDBRANCH  25  26
ENDBRANCH   4  24
TORSDOF 7
ENDMDL
MODEL 3
REMARK VINA RESULT:      -8.1      9.639     13.906
REMARK  Name = 
REMARK  8 active torsions:
REMARK  status: ('A' for Active; 'I' for Inactive)
REMARK    1  A    between atoms: C_1  and  N_2
REMARK    2  A    between atoms: C_4  and  C_5
REMARK    3  A    between atoms: C_8  and  C_9
REMARK    4  A    between atoms: C_10  and  C_11
REMARK    5  A    between atoms: N_13  and  C_14
REMARK    6  A    between atoms: C_19  and  N_20
REMARK    7  A    between atoms: C_23  and  C_24
REMARK    8  A    between atoms: N_26  and  C_27
REMARK                            x       y       z     vdW  Elec       q    Type
REMARK                         _______ _______ _______ _____ _____    ______ ____
ROOT
ATOM      1  C   UNL     1       1.847   6.972  20.082  0.00  0.00    +0.000 A 
ATOM      2  C   UNL     1       1.147   7.295  21.252  0.00  0.00    +0.000 A 
ATOM      3  C   UNL     1       0.570   8.556  21.412  0.00  0.00    +0.000 A 
ATOM      4  C   UNL     1       0.695   9.527  20.414  0.00  0.00    +0.000 A 
ATOM      5  C   UNL     1       1.401   9.212  19.249  0.00  0.00    +0.000 A 
ATOM      6  C   UNL     1       1.981   7.953  19.089  0.00  0.00    +0.000 A 
ENDROOT
BRANCH   1  10
ATOM      7  C   UNL     1       1.574   2.514  21.765  0.00  0.00    +0.000 C 
ATOM      8  N   UNL     1       2.110   3.367  20.707  0.00  0.00    +0.000 NA
ATOM      9  C   UNL     1       2.316   4.742  21.191  0.00  0.00    +0.000 C 
ATOM     10  C   UNL     1       2.406   5.576  19.904  0.00  0.00    +0.000 C 
ATOM     11  C   UNL     1       1.660   4.740  18.850  0.00  0.00    +0.000 C 
ATOM     12  C   UNL     1       1.160   3.505  19.592  0.00  0.00    +0.000 C 
BRANCH  11  13
ATOM     13  C   UNL     1       2.562   4.378  17.680  0.00  0.00    +0.000 C 
ATOM     14  O   UNL     1       2.205   3.501  16.896  0.00  0.00    +0.000 OA
ATOM     15  N   UNL     1       3.742   5.101  17.599  0.00  0.00    +0.000 N 
ATOM     16  H   UNL     1       3.974   5.677  18.407  0.00  0.00    +0.000 HD
BRANCH  15  17
ATOM     17  C   UNL     1       4.716   4.992  16.583  0.00  0.00    +0.000 A 
ATOM     18  C   UNL     1       5.274   3.769  16.192  0.00  0.00    +0.000 A 
ATOM     19  C   UNL     1       6.261   3.718  15.204  0.00  0.00    +0.000 A 
ATOM     20  C   UNL     1       6.684   4.892  14.601  0.00  0.00    +0.000 A 
ATOM     21  F   UNL     1       7.643   4.844  13.666  0.00  0.00    +0.000 F 
ATOM     22  C   UNL     1       6.129   6.114  14.954  0.00  0.00    +0.000 A 
ATOM     23  C   UNL     1       5.134   6.165  15.938  0.00  0.00    +0.000 A 
ENDBRANCH  15  17
ENDBRANCH  11  13
ENDBRANCH   1  10
BRANCH   4  24
ATOM     24  C   UNL     1       0.033  10.828  20.499  0.00  0.00    +0.000 C 
ATOM     25  C   UNL     1      -0.454  11.378  21.627  0.00  0.00    +0.000 C 
BRANCH  25  26
ATOM     26  C   UNL     1      -1.179  12.669  21.512  0.00  0.00    +0.000 C 
ATOM     27  O   UNL     1      -0.616  13.654  21.045  0.00  0.00    +0.000 OA
ATOM     28  N   UNL     1      -2.476  12.606  21.979  0.00  0.00    +0.000 N 
ATOM     29  H   UNL     1      -2.737  11.817  22.548  0.00  0.00    +0.000 HD
BRANCH  28  30
ATOM     30  C   UNL     1      -3.437  13.642  21.865  0.00  0.00    +0.000 A 
ATOM     31  C   UNL     1      -3.659  14.548  22.910  0.00  0.00    +0.000 A 
ATOM     32  C   UNL     1      -4.646  15.527  22.817  0.00  0.00    +0.000 A 
ATOM     33  C   UNL     1      -5.430  15.609  21.675  0.00  0.00    +0.000 A 
ATOM     34  C   UNL     1      -5.204  14.728  20.615  0.00  0.00    +0.000 A 
ATOM     35  C   UNL     1      -4.172  13.778  20.664  0.00  0.00    +0.000 A 
BRANCH  35  36
ATOM     36  N   UNL     1      -4.069  12.851  19.603  0.00  0.00    +0.000 N 
ATOM     37  H   UNL     1      -4.960  12.692  19.137  0.00  0.00    +0.000 HD
ATOM     38  H   UNL     1      -3.342  13.054  18.934  0.00  0.00    +0.000 HD
ENDBRANCH  35  36
ENDBRANCH  28  30
ENDBRANCH  25  26
ENDBRANCH   4  24
TORSDOF 7
ENDMDL
MODEL 4
REMARK VINA RESULT:      -8.1      9.606     13.973
REMARK  Name = 
REMARK  8 active torsions:
REMARK  status: ('A' for Active; 'I' for Inactive)
REMARK    1  A    between atoms: C_1  and  N_2
REMARK    2  A    between atoms: C_4  and  C_5
REMARK    3  A    between atoms: C_8  and  C_9
REMARK    4  A    between atoms: C_10  and  C_11
REMARK    5  A    between atoms: N_13  and  C_14
REMARK    6  A    between atoms: C_19  and  N_20
REMARK    7  A    between atoms: C_23  and  C_24
REMARK    8  A    between atoms: N_26  and  C_27
REMARK                            x       y       z     vdW  Elec       q    Type
REMARK                         _______ _______ _______ _____ _____    ______ ____
ROOT
ATOM      1  C   UNL     1       1.623   7.861  20.420  0.00  0.00    +0.000 A 
ATOM      2  C   UNL     1       1.010   7.834  21.679  0.00  0.00    +0.000 A 
ATOM      3  C   UNL     1       0.192   8.885  22.097  0.00  0.00    +0.000 A 
ATOM      4  C   UNL     1      -0.017   9.995  21.273  0.00  0.00    +0.000 A 
ATOM      5  C   UNL     1       0.601  10.031  20.019  0.00  0.00    +0.000 A 
ATOM      6  C   UNL     1       1.421   8.982  19.601  0.00  0.00    +0.000 A 
ENDROOT
BRANCH   1  10
ATOM      7  C   UNL     1       1.840   3.095  20.519  0.00  0.00    +0.000 C 
ATOM      8  N   UNL     1       2.410   4.311  19.943  0.00  0.00    +0.000 NA
ATOM      9  C   UNL     1       2.262   5.449  20.864  0.00  0.00    +0.000 C 
ATOM     10  C   UNL     1       2.451   6.679  19.963  0.00  0.00    +0.000 C 
ATOM     11  C   UNL     1       2.093   6.181  18.552  0.00  0.00    +0.000 C 
ATOM     12  C   UNL     1       1.690   4.721  18.728  0.00  0.00    +0.000 C 
BRANCH  11  13
ATOM     13  C   UNL     1       3.259   6.341  17.587  0.00  0.00    +0.000 C 
ATOM     14  O   UNL     1       3.580   7.467  17.214  0.00  0.00    +0.000 OA
ATOM     15  N   UNL     1       3.877   5.158  17.210  0.00  0.00    +0.000 N 
ATOM     16  H   UNL     1       3.400   4.296  17.471  0.00  0.00    +0.000 HD
BRANCH  15  17
ATOM     17  C   UNL     1       5.007   5.042  16.373  0.00  0.00    +0.000 A 
ATOM     18  C   UNL     1       6.296   5.407  16.778  0.00  0.00    +0.000 A 
ATOM     19  C   UNL     1       7.378   5.305  15.900  0.00  0.00    +0.000 A 
ATOM     20  C   UNL     1       7.170   4.830  14.614  0.00  0.00    +0.000 A 
ATOM     21  F   UNL     1       8.204   4.749  13.766  0.00  0.00    +0.000 F 
ATOM     22  C   UNL     1       5.906   4.438  14.196  0.00  0.00    +0.000 A 
ATOM     23  C   UNL     1       4.823   4.532  15.079  0.00  0.00    +0.000 A 
ENDBRANCH  15  17
ENDBRANCH  11  13
ENDBRANCH   1  10
BRANCH   4  24
ATOM     24  C   UNL     1      -0.935  11.075  21.631  0.00  0.00    +0.000 C 
ATOM     25  C   UNL     1      -1.071  11.601  22.862  0.00  0.00    +0.000 C 
BRANCH  25  26
ATOM     26  C   UNL     1      -2.120  12.633  23.063  0.00  0.00    +0.000 C 
ATOM     27  O   UNL     1      -1.816  13.753  23.462  0.00  0.00    +0.000 OA
ATOM     28  N   UNL     1      -3.389  12.180  22.767  0.00  0.00    +0.000 N 
ATOM     29  H   UNL     1      -3.530  11.187  22.682  0.00  0.00    +0.000 HD
BRANCH  28  30
ATOM     30  C   UNL     1      -4.557  12.983  22.735  0.00  0.00    +0.000 A 
ATOM     31  C   UNL     1      -4.821  13.843  21.661  0.00  0.00    +0.000 A 
ATOM     32  C   UNL     1      -5.938  14.674  21.661  0.00  0.00    +0.000 A 
ATOM     33  C   UNL     1      -6.808  14.659  22.742  0.00  0.00    +0.000 A 
ATOM     34  C   UNL     1      -6.572  13.790  23.810  0.00  0.00    +0.000 A 
ATOM     35  C   UNL     1      -5.487  12.899  23.797  0.00  0.00    +0.000 A 
BRANCH  35  36
ATOM     36  N   UNL     1      -5.248  12.125  24.954  0.00  0.00    +0.000 N 
ATOM     37  H   UNL     1      -4.824  12.667  25.705  0.00  0.00    +0.000 HD
ATOM     38  H   UNL     1      -6.047  11.608  25.289  0.00  0.00    +0.000 HD
ENDBRANCH  35  36
ENDBRANCH  28  30
ENDBRANCH  25  26
ENDBRANCH   4  24
TORSDOF 7
ENDMDL
MODEL 5
REMARK VINA RESULT:      -8.1      9.682     13.734
REMARK  Name = 
REMARK  8 active torsions:
REMARK  status: ('A' for Active; 'I' for Inactive)
REMARK    1  A    between atoms: C_1  and  N_2
REMARK    2  A    between atoms: C_4  and  C_5
REMARK    3  A    between atoms: C_8  and  C_9
REMARK    4  A    between atoms: C_10  and  C_11
REMARK    5  A    between atoms: N_13  and  C_14
REMARK    6  A    between atoms: C_19  and  N_20
REMARK    7  A    between atoms: C_23  and  C_24
REMARK    8  A    between atoms: N_26  and  C_27
REMARK                            x       y       z     vdW  Elec       q    Type
REMARK                         _______ _______ _______ _____ _____    ______ ____
ROOT
ATOM      1  C   UNL     1       2.760   6.888  19.285  0.00  0.00    +0.000 A 
ATOM      2  C   UNL     1       2.430   7.963  18.450  0.00  0.00    +0.000 A 
ATOM      3  C   UNL     1       1.514   8.932  18.865  0.00  0.00    +0.000 A 
ATOM      4  C   UNL     1       0.896   8.838  20.115  0.00  0.00    +0.000 A 
ATOM      5  C   UNL     1       1.216   7.761  20.948  0.00  0.00    +0.000 A 
ATOM      6  C   UNL     1       2.129   6.790  20.533  0.00  0.00    +0.000 A 
ENDROOT
BRANCH   1  10
ATOM      7  C   UNL     1       4.262   2.405  19.932  0.00  0.00    +0.000 C 
ATOM      8  N   UNL     1       4.401   3.612  19.120  0.00  0.00    +0.000 NA
ATOM      9  C   UNL     1       4.078   4.814  19.905  0.00  0.00    +0.000 C 
ATOM     10  C   UNL     1       3.806   5.887  18.840  0.00  0.00    +0.000 C 
ATOM     11  C   UNL     1       3.406   5.092  17.585  0.00  0.00    +0.000 C 
ATOM     12  C   UNL     1       3.439   3.627  18.008  0.00  0.00    +0.000 C 
BRANCH  11  13
ATOM     13  C   UNL     1       4.344   5.372  16.420  0.00  0.00    +0.000 C 
ATOM     14  O   UNL     1       4.752   6.517  16.239  0.00  0.00    +0.000 OA
ATOM     15  N   UNL     1       4.670   4.268  15.647  0.00  0.00    +0.000 N 
ATOM     16  H   UNL     1       4.131   3.420  15.821  0.00  0.00    +0.000 HD
BRANCH  15  17
ATOM     17  C   UNL     1       5.557   4.254  14.550  0.00  0.00    +0.000 A 
ATOM     18  C   UNL     1       6.788   4.922  14.558  0.00  0.00    +0.000 A 
ATOM     19  C   UNL     1       7.616   4.907  13.433  0.00  0.00    +0.000 A 
ATOM     20  C   UNL     1       7.215   4.216  12.300  0.00  0.00    +0.000 A 
ATOM     21  F   UNL     1       8.002   4.216  11.215  0.00  0.00    +0.000 F 
ATOM     22  C   UNL     1       6.011   3.526  12.276  0.00  0.00    +0.000 A 
ATOM     23  C   UNL     1       5.185   3.534  13.406  0.00  0.00    +0.000 A 
ENDBRANCH  15  17
ENDBRANCH  11  13
ENDBRANCH   1  10
BRANCH   4  24
ATOM     24  C   UNL     1       0.001   9.874  20.627  0.00  0.00    +0.000 C 
ATOM     25  C   UNL     1      -0.506  10.888  19.903  0.00  0.00    +0.000 C 
BRANCH  25  26
ATOM     26  C   UNL     1      -1.328  11.904  20.610  0.00  0.00    +0.000 C 
ATOM     27  O   UNL     1      -2.084  12.635  19.979  0.00  0.00    +0.000 OA
ATOM     28  N   UNL     1      -1.125  11.908  21.975  0.00  0.00    +0.000 N 
ATOM     29  H   UNL     1      -0.316  11.431  22.336  0.00  0.00    +0.000 HD
BRANCH  28  30
ATOM     30  C   UNL     1      -1.871  12.670  22.909  0.00  0.00    +0.000 A 
ATOM     31  C   UNL     1      -3.064  12.185  23.459  0.00  0.00    +0.000 A 
ATOM     32  C   UNL     1      -3.825  12.961  24.331  0.00  0.00    +0.000 A 
ATOM     33  C   UNL     1      -3.401  14.241  24.662  0.00  0.00    +0.000 A 
ATOM     34  C   UNL     1      -2.201  14.730  24.140  0.00  0.00    +0.000 A 
ATOM     35  C   UNL     1      -1.390  13.938  23.313  0.00  0.00    +0.000 A 
BRANCH  35  36
ATOM     36  N   UNL     1      -0.245  14.533  22.737  0.00  0.00    +0.000 N 
ATOM     37  H   UNL     1       0.436  13.844  22.422  0.00  0.00    +0.000 HD
ATOM     38  H   UNL     1      -0.440  15.206  22.010  0.00  0.00    +0.000 HD
ENDBRANCH  35  36
ENDBRANCH  28  30
ENDBRANCH  25  26
ENDBRANCH   4  24
TORSDOF 7
ENDMDL
MODEL 6
REMARK VINA RESULT:      -8.0      8.540     13.465
REMARK  Name = 
REMARK  8 active torsions:
REMARK  status: ('A' for Active; 'I' for Inactive)
REMARK    1  A    between atoms: C_1  and  N_2
REMARK    2  A    between atoms: C_4  and  C_5
REMARK    3  A    between atoms: C_8  and  C_9
REMARK    4  A    between atoms: C_10  and  C_11
REMARK    5  A    between atoms: N_13  and  C_14
REMARK    6  A    between atoms: C_19  and  N_20
REMARK    7  A    between atoms: C_23  and  C_24
REMARK    8  A    between atoms: N_26  and  C_27
REMARK                            x       y       z     vdW  Elec       q    Type
REMARK                         _______ _______ _______ _____ _____    ______ ____
ROOT
ATOM      1  C   UNL     1       2.051   7.063  19.797  0.00  0.00    +0.000 A 
ATOM      2  C   UNL     1       1.401   7.510  20.954  0.00  0.00    +0.000 A 
ATOM      3  C   UNL     1       0.848   8.791  21.011  0.00  0.00    +0.000 A 
ATOM      4  C   UNL     1       0.948   9.658  19.918  0.00  0.00    +0.000 A 
ATOM      5  C   UNL     1       1.605   9.218  18.765  0.00  0.00    +0.000 A 
ATOM      6  C   UNL     1       2.161   7.939  18.708  0.00  0.00    +0.000 A 
ENDROOT
BRANCH   1  10
ATOM      7  C   UNL     1       1.445   2.683  21.593  0.00  0.00    +0.000 C 
ATOM      8  N   UNL     1       2.128   3.479  20.576  0.00  0.00    +0.000 NA
ATOM      9  C   UNL     1       2.317   4.866  21.032  0.00  0.00    +0.000 C 
ATOM     10  C   UNL     1       2.584   5.647  19.736  0.00  0.00    +0.000 C 
ATOM     11  C   UNL     1       1.942   4.790  18.632  0.00  0.00    +0.000 C 
ATOM     12  C   UNL     1       1.320   3.599  19.353  0.00  0.00    +0.000 C 
BRANCH  11  13
ATOM     13  C   UNL     1       2.963   4.359  17.590  0.00  0.00    +0.000 C 
ATOM     14  O   UNL     1       2.856   3.252  17.066  0.00  0.00    +0.000 OA
ATOM     15  N   UNL     1       3.953   5.291  17.313  0.00  0.00    +0.000 N 
ATOM     16  H   UNL     1       4.005   6.092  17.940  0.00  0.00    +0.000 HD
BRANCH  15  17
ATOM     17  C   UNL     1       4.978   5.153  16.354  0.00  0.00    +0.000 A 
ATOM     18  C   UNL     1       4.799   4.484  15.138  0.00  0.00    +0.000 A 
ATOM     19  C   UNL     1       5.857   4.345  14.235  0.00  0.00    +0.000 A 
ATOM     20  C   UNL     1       7.095   4.883  14.548  0.00  0.00    +0.000 A 
ATOM     21  F   UNL     1       8.114   4.735  13.690  0.00  0.00    +0.000 F 
ATOM     22  C   UNL     1       7.292   5.573  15.737  0.00  0.00    +0.000 A 
ATOM     23  C   UNL     1       6.230   5.720  16.637  0.00  0.00    +0.000 A 
ENDBRANCH  15  17
ENDBRANCH  11  13
ENDBRANCH   1  10
BRANCH   4  24
ATOM     24  C   UNL     1       0.308  10.972  19.899  0.00  0.00    +0.000 C 
ATOM     25  C   UNL     1       0.495  11.912  18.955  0.00  0.00    +0.000 C 
BRANCH  25  26
ATOM     26  C   UNL     1      -0.169  13.228  19.145  0.00  0.00    +0.000 C 
ATOM     27  O   UNL     1      -1.364  13.283  19.415  0.00  0.00    +0.000 OA
ATOM     28  N   UNL     1       0.689  14.296  18.976  0.00  0.00    +0.000 N 
ATOM     29  H   UNL     1       1.575  14.127  18.528  0.00  0.00    +0.000 HD
BRANCH  28  30
ATOM     30  C   UNL     1       0.365  15.652  19.232  0.00  0.00    +0.000 A 
ATOM     31  C   UNL     1      -0.403  16.401  18.331  0.00  0.00    +0.000 A 
ATOM     32  C   UNL     1      -0.668  17.749  18.557  0.00  0.00    +0.000 A 
ATOM     33  C   UNL     1      -0.163  18.370  19.690  0.00  0.00    +0.000 A 
ATOM     34  C   UNL     1       0.584  17.631  20.610  0.00  0.00    +0.000 A 
ATOM     35  C   UNL     1       0.806  16.257  20.432  0.00  0.00    +0.000 A 
BRANCH  35  36
ATOM     36  N   UNL     1       1.659  15.597  21.345  0.00  0.00    +0.000 N 
ATOM     37  H   UNL     1       2.618  15.539  21.010  0.00  0.00    +0.000 HD
ATOM     38  H   UNL     1       1.626  15.955  22.287  0.00  0.00    +0.000 HD
ENDBRANCH  35  36
ENDBRANCH  28  30
ENDBRANCH  25  26
ENDBRANCH   4  24
TORSDOF 7
ENDMDL
MODEL 7
REMARK VINA RESULT:      -8.0      8.127     13.335
REMARK  Name = 
REMARK  8 active torsions:
REMARK  status: ('A' for Active; 'I' for Inactive)
REMARK    1  A    between atoms: C_1  and  N_2
REMARK    2  A    between atoms: C_4  and  C_5
REMARK    3  A    between atoms: C_8  and  C_9
REMARK    4  A    between atoms: C_10  and  C_11
REMARK    5  A    between atoms: N_13  and  C_14
REMARK    6  A    between atoms: C_19  and  N_20
REMARK    7  A    between atoms: C_23  and  C_24
REMARK    8  A    between atoms: N_26  and  C_27
REMARK                            x       y       z     vdW  Elec       q    Type
REMARK                         _______ _______ _______ _____ _____    ______ ____
ROOT
ATOM      1  C   UNL     1       2.100   6.909  19.711  0.00  0.00    +0.000 A 
ATOM      2  C   UNL     1       2.208   7.656  18.532  0.00  0.00    +0.000 A 
ATOM      3  C   UNL     1       1.731   8.967  18.473  0.00  0.00    +0.000 A 
ATOM      4  C   UNL     1       1.121   9.553  19.586  0.00  0.00    +0.000 A 
ATOM      5  C   UNL     1       1.004   8.807  20.763  0.00  0.00    +0.000 A 
ATOM      6  C   UNL     1       1.477   7.495  20.822  0.00  0.00    +0.000 A 
ENDROOT
BRANCH   1  10
ATOM      7  C   UNL     1       1.448   2.583  21.618  0.00  0.00    +0.000 C 
ATOM      8  N   UNL     1       2.212   3.364  20.648  0.00  0.00    +0.000 NA
ATOM      9  C   UNL     1       2.303   4.774  21.062  0.00  0.00    +0.000 C 
ATOM     10  C   UNL     1       2.685   5.513  19.770  0.00  0.00    +0.000 C 
ATOM     11  C   UNL     1       2.198   4.590  18.640  0.00  0.00    +0.000 C 
ATOM     12  C   UNL     1       1.541   3.405  19.340  0.00  0.00    +0.000 C 
BRANCH  11  13
ATOM     13  C   UNL     1       3.343   4.158  17.736  0.00  0.00    +0.000 C 
ATOM     14  O   UNL     1       3.624   2.965  17.652  0.00  0.00    +0.000 OA
ATOM     15  N   UNL     1       3.981   5.188  17.061  0.00  0.00    +0.000 N 
ATOM     16  H   UNL     1       3.745   6.134  17.354  0.00  0.00    +0.000 HD
BRANCH  15  17
ATOM     17  C   UNL     1       5.031   5.044  16.128  0.00  0.00    +0.000 A 
ATOM     18  C   UNL     1       4.872   4.398  14.897  0.00  0.00    +0.000 A 
ATOM     19  C   UNL     1       5.951   4.251  14.022  0.00  0.00    +0.000 A 
ATOM     20  C   UNL     1       7.191   4.759  14.377  0.00  0.00    +0.000 A 
ATOM     21  F   UNL     1       8.230   4.603  13.546  0.00  0.00    +0.000 F 
ATOM     22  C   UNL     1       7.369   5.425  15.582  0.00  0.00    +0.000 A 
ATOM     23  C   UNL     1       6.285   5.580  16.455  0.00  0.00    +0.000 A 
ENDBRANCH  15  17
ENDBRANCH  11  13
ENDBRANCH   1  10
BRANCH   4  24
ATOM     24  C   UNL     1       0.689  10.950  19.599  0.00  0.00    +0.000 C 
ATOM     25  C   UNL     1       1.280  11.938  20.296  0.00  0.00    +0.000 C 
BRANCH  25  26
ATOM     26  C   UNL     1       0.650  13.283  20.263  0.00  0.00    +0.000 C 
ATOM     27  O   UNL     1      -0.225  13.575  21.071  0.00  0.00    +0.000 OA
ATOM     28  N   UNL     1       1.150  14.090  19.261  0.00  0.00    +0.000 N 
ATOM     29  H   UNL     1       1.685  13.658  18.526  0.00  0.00    +0.000 HD
BRANCH  28  30
ATOM     30  C   UNL     1       0.835  15.461  19.083  0.00  0.00    +0.000 A 
ATOM     31  C   UNL     1      -0.412  15.866  18.593  0.00  0.00    +0.000 A 
ATOM     32  C   UNL     1      -0.696  17.210  18.363  0.00  0.00    +0.000 A 
ATOM     33  C   UNL     1       0.272  18.171  18.618  0.00  0.00    +0.000 A 
ATOM     34  C   UNL     1       1.514  17.786  19.130  0.00  0.00    +0.000 A 
ATOM     35  C   UNL     1       1.793  16.443  19.428  0.00  0.00    +0.000 A 
BRANCH  35  36
ATOM     36  N   UNL     1       3.103  16.112  19.842  0.00  0.00    +0.000 N 
ATOM     37  H   UNL     1       3.541  16.855  20.382  0.00  0.00    +0.000 HD
ATOM     38  H   UNL     1       3.184  15.225  20.316  0.00  0.00    +0.000 HD
ENDBRANCH  35  36
ENDBRANCH  28  30
ENDBRANCH  25  26
ENDBRANCH   4  24
TORSDOF 7
ENDMDL
MODEL 8
REMARK VINA RESULT:      -8.0      9.722     13.910
REMARK  Name = 
REMARK  8 active torsions:
REMARK  status: ('A' for Active; 'I' for Inactive)
REMARK    1  A    between atoms: C_1  and  N_2
REMARK    2  A    between atoms: C_4  and  C_5
REMARK    3  A    between atoms: C_8  and  C_9
REMARK    4  A    between atoms: C_10  and  C_11
REMARK    5  A    between atoms: N_13  and  C_14
REMARK    6  A    between atoms: C_19  and  N_20
REMARK    7  A    between atoms: C_23  and  C_24
REMARK    8  A    between atoms: N_26  and  C_27
REMARK                            x       y       z     vdW  Elec       q    Type
REMARK                         _______ _______ _______ _____ _____    ______ ____
ROOT
ATOM      1  C   UNL     1       1.834   7.027  20.125  0.00  0.00    +0.000 A 
ATOM      2  C   UNL     1       1.193   7.358  21.326  0.00  0.00    +0.000 A 
ATOM      3  C   UNL     1       0.615   8.616  21.502  0.00  0.00    +0.000 A 
ATOM      4  C   UNL     1       0.681   9.578  20.489  0.00  0.00    +0.000 A 
ATOM      5  C   UNL     1       1.329   9.255  19.292  0.00  0.00    +0.000 A 
ATOM      6  C   UNL     1       1.910   7.998  19.116  0.00  0.00    +0.000 A 
ENDROOT
BRANCH   1  10
ATOM      7  C   UNL     1       1.572   2.555  21.771  0.00  0.00    +0.000 C 
ATOM      8  N   UNL     1       2.103   3.417  20.718  0.00  0.00    +0.000 NA
ATOM      9  C   UNL     1       2.309   4.788  21.213  0.00  0.00    +0.000 C 
ATOM     10  C   UNL     1       2.394   5.633  19.933  0.00  0.00    +0.000 C 
ATOM     11  C   UNL     1       1.645   4.806  18.875  0.00  0.00    +0.000 C 
ATOM     12  C   UNL     1       1.149   3.564  19.608  0.00  0.00    +0.000 C 
BRANCH  11  13
ATOM     13  C   UNL     1       2.543   4.454  17.698  0.00  0.00    +0.000 C 
ATOM     14  O   UNL     1       2.180   3.592  16.902  0.00  0.00    +0.000 OA
ATOM     15  N   UNL     1       3.729   5.170  17.627  0.00  0.00    +0.000 N 
ATOM     16  H   UNL     1       3.965   5.733  18.443  0.00  0.00    +0.000 HD
BRANCH  15  17
ATOM     17  C   UNL     1       4.700   5.069  16.608  0.00  0.00    +0.000 A 
ATOM     18  C   UNL     1       5.134   6.169  15.857  0.00  0.00    +0.000 A 
ATOM     19  C   UNL     1       6.074   6.011  14.836  0.00  0.00    +0.000 A 
ATOM     20  C   UNL     1       6.586   4.751  14.570  0.00  0.00    +0.000 A 
ATOM     21  F   UNL     1       7.475   4.597  13.579  0.00  0.00    +0.000 F 
ATOM     22  C   UNL     1       6.192   3.649  15.317  0.00  0.00    +0.000 A 
ATOM     23  C   UNL     1       5.256   3.809  16.346  0.00  0.00    +0.000 A 
ENDBRANCH  15  17
ENDBRANCH  11  13
ENDBRANCH   1  10
BRANCH   4  24
ATOM     24  C   UNL     1       0.015  10.874  20.594  0.00  0.00    +0.000 C 
ATOM     25  C   UNL     1      -0.796  11.407  19.661  0.00  0.00    +0.000 C 
BRANCH  25  26
ATOM     26  C   UNL     1      -1.316  12.779  19.895  0.00  0.00    +0.000 C 
ATOM     27  O   UNL     1      -0.869  13.726  19.257  0.00  0.00    +0.000 OA
ATOM     28  N   UNL     1      -2.294  12.828  20.868  0.00  0.00    +0.000 N 
ATOM     29  H   UNL     1      -2.400  12.032  21.475  0.00  0.00    +0.000 HD
BRANCH  28  30
ATOM     30  C   UNL     1      -3.061  13.974  21.198  0.00  0.00    +0.000 A 
ATOM     31  C   UNL     1      -2.604  14.914  22.130  0.00  0.00    +0.000 A 
ATOM     32  C   UNL     1      -3.387  16.006  22.496  0.00  0.00    +0.000 A 
ATOM     33  C   UNL     1      -4.646  16.170  21.935  0.00  0.00    +0.000 A 
ATOM     34  C   UNL     1      -5.106  15.254  20.986  0.00  0.00    +0.000 A 
ATOM     35  C   UNL     1      -4.305  14.184  20.557  0.00  0.00    +0.000 A 
BRANCH  35  36
ATOM     36  N   UNL     1      -4.874  13.238  19.677  0.00  0.00    +0.000 N 
ATOM     37  H   UNL     1      -4.566  12.288  19.873  0.00  0.00    +0.000 HD
ATOM     38  H   UNL     1      -5.879  13.283  19.601  0.00  0.00    +0.000 HD
ENDBRANCH  35  36
ENDBRANCH  28  30
ENDBRANCH  25  26
ENDBRANCH   4  24
TORSDOF 7
ENDMDL
MODEL 9
REMARK VINA RESULT:      -7.9      9.322     13.612
REMARK  Name = 
REMARK  8 active torsions:
REMARK  status: ('A' for Active; 'I' for Inactive)
REMARK    1  A    between atoms: C_1  and  N_2
REMARK    2  A    between atoms: C_4  and  C_5
REMARK    3  A    between atoms: C_8  and  C_9
REMARK    4  A    between atoms: C_10  and  C_11
REMARK    5  A    between atoms: N_13  and  C_14
REMARK    6  A    between atoms: C_19  and  N_20
REMARK    7  A    between atoms: C_23  and  C_24
REMARK    8  A    between atoms: N_26  and  C_27
REMARK                            x       y       z     vdW  Elec       q    Type
REMARK                         _______ _______ _______ _____ _____    ______ ____
ROOT
ATOM      1  C   UNL     1       2.195   6.899  19.737  0.00  0.00    +0.000 A 
ATOM      2  C   UNL     1       1.507   7.411  20.844  0.00  0.00    +0.000 A 
ATOM      3  C   UNL     1       0.889   8.662  20.782  0.00  0.00    +0.000 A 
ATOM      4  C   UNL     1       0.960   9.434  19.619  0.00  0.00    +0.000 A 
ATOM      5  C   UNL     1       1.654   8.930  18.514  0.00  0.00    +0.000 A 
ATOM      6  C   UNL     1       2.275   7.682  18.576  0.00  0.00    +0.000 A 
ENDROOT
BRANCH   1  10
ATOM      7  C   UNL     1       1.607   2.578  21.676  0.00  0.00    +0.000 C 
ATOM      8  N   UNL     1       2.359   3.363  20.700  0.00  0.00    +0.000 NA
ATOM      9  C   UNL     1       2.429   4.777  21.103  0.00  0.00    +0.000 C 
ATOM     10  C   UNL     1       2.800   5.512  19.806  0.00  0.00    +0.000 C 
ATOM     11  C   UNL     1       2.326   4.574  18.683  0.00  0.00    +0.000 C 
ATOM     12  C   UNL     1       1.687   3.384  19.392  0.00  0.00    +0.000 C 
BRANCH  11  13
ATOM     13  C   UNL     1       3.476   4.152  17.781  0.00  0.00    +0.000 C 
ATOM     14  O   UNL     1       3.780   2.963  17.711  0.00  0.00    +0.000 OA
ATOM     15  N   UNL     1       4.094   5.184  17.091  0.00  0.00    +0.000 N 
ATOM     16  H   UNL     1       3.840   6.130  17.373  0.00  0.00    +0.000 HD
BRANCH  15  17
ATOM     17  C   UNL     1       5.143   5.049  16.157  0.00  0.00    +0.000 A 
ATOM     18  C   UNL     1       6.453   5.469  16.418  0.00  0.00    +0.000 A 
ATOM     19  C   UNL     1       7.450   5.344  15.447  0.00  0.00    +0.000 A 
ATOM     20  C   UNL     1       7.137   4.791  14.215  0.00  0.00    +0.000 A 
ATOM     21  F   UNL     1       8.090   4.687  13.278  0.00  0.00    +0.000 F 
ATOM     22  C   UNL     1       5.852   4.344  13.941  0.00  0.00    +0.000 A 
ATOM     23  C   UNL     1       4.855   4.461  14.917  0.00  0.00    +0.000 A 
ENDBRANCH  15  17
ENDBRANCH  11  13
ENDBRANCH   1  10
BRANCH   4  24
ATOM     24  C   UNL     1       0.254  10.706  19.478  0.00  0.00    +0.000 C 
ATOM     25  C   UNL     1      -0.859  11.054  20.151  0.00  0.00    +0.000 C 
BRANCH  25  26
ATOM     26  C   UNL     1      -1.495  12.354  19.815  0.00  0.00    +0.000 C 
ATOM     27  O   UNL     1      -2.504  12.386  19.118  0.00  0.00    +0.000 OA
ATOM     28  N   UNL     1      -0.830  13.437  20.352  0.00  0.00    +0.000 N 
ATOM     29  H   UNL     1       0.105  13.296  20.698  0.00  0.00    +0.000 HD
BRANCH  28  30
ATOM     30  C   UNL     1      -1.286  14.779  20.311  0.00  0.00    +0.000 A 
ATOM     31  C   UNL     1      -2.421  15.185  21.023  0.00  0.00    +0.000 A 
ATOM     32  C   UNL     1      -2.901  16.489  20.933  0.00  0.00    +0.000 A 
ATOM     33  C   UNL     1      -2.250  17.408  20.122  0.00  0.00    +0.000 A 
ATOM     34  C   UNL     1      -1.102  17.025  19.424  0.00  0.00    +0.000 A 
ATOM     35  C   UNL     1      -0.567  15.733  19.555  0.00  0.00    +0.000 A 
BRANCH  35  36
ATOM     36  N   UNL     1       0.532  15.383  18.739  0.00  0.00    +0.000 N 
ATOM     37  H   UNL     1       1.107  14.652  19.153  0.00  0.00    +0.000 HD
ATOM     38  H   UNL     1       0.295  15.159  17.785  0.00  0.00    +0.000 HD
ENDBRANCH  35  36
ENDBRANCH  28  30
ENDBRANCH  25  26
ENDBRANCH   4  24
TORSDOF 7
ENDMDL
