MODEL 1
REMARK VINA RESULT:      -7.1      0.000      0.000
REMARK  Name = 
REMARK  8 active torsions:
REMARK  status: ('A' for Active; 'I' for Inactive)
REMARK    1  A    between atoms: C_1  and  C_2
REMARK    2  A    between atoms: C_2  and  O_3
REMARK    3  A    between atoms: O_3  and  C_4
REMARK    4  A    between atoms: C_4  and  C_6
REMARK    5  A    between atoms: C_7  and  O_8
REMARK    6  A    between atoms: C_10  and  O_11
REMARK    7  A    between atoms: C_15  and  C_16
REMARK    8  A    between atoms: C_19  and  O_20
REMARK                            x       y       z     vdW  Elec       q    Type
REMARK                         _______ _______ _______ _____ _____    ______ ____
ROOT
ATOM      1  C   UNL     1       3.704   4.073  18.554  0.00  0.00    +0.000 A 
ATOM      2  C   UNL     1       2.440   4.658  18.391  0.00  0.00    +0.000 A 
ATOM      3  C   UNL     1       2.316   5.993  18.017  0.00  0.00    +0.000 A 
ATOM      4  C   UNL     1       3.462   6.752  17.803  0.00  0.00    +0.000 A 
ATOM      5  C   UNL     1       4.739   6.192  17.933  0.00  0.00    +0.000 A 
ATOM      6  C   UNL     1       4.851   4.833  18.264  0.00  0.00    +0.000 A 
ATOM      7  O   UNL     1       6.069   4.198  18.289  0.00  0.00    +0.000 OA
ATOM      8  C   UNL     1       7.094   4.802  17.476  0.00  0.00    +0.000 C 
ATOM      9  C   UNL     1       7.253   6.254  17.925  0.00  0.00    +0.000 C 
ATOM     10  C   UNL     1       5.964   7.034  17.693  0.00  0.00    +0.000 C 
ENDROOT
BRANCH   8  11
ATOM     11  C   UNL     1       6.869   4.524  15.991  0.00  0.00    +0.000 A 
ATOM     12  C   UNL     1       5.888   3.626  15.540  0.00  0.00    +0.000 A 
ATOM     13  C   UNL     1       5.712   3.377  14.175  0.00  0.00    +0.000 A 
ATOM     14  C   UNL     1       6.505   4.041  13.248  0.00  0.00    +0.000 A 
ATOM     15  C   UNL     1       7.460   4.959  13.661  0.00  0.00    +0.000 A 
ATOM     16  C   UNL     1       7.633   5.207  15.024  0.00  0.00    +0.000 A 
BRANCH  14  17
ATOM     17  O   UNL     1       6.371   3.820  11.910  0.00  0.00    +0.000 OA
ATOM     18  H   UNL     1       6.172   4.666  11.476  0.00  0.00    +0.000 HD
ENDBRANCH  14  17
ENDBRANCH   8  11
BRANCH   1  19
ATOM     19  C   UNL     1       3.771   2.688  19.070  0.00  0.00    +0.000 C 
ATOM     20  O   UNL     1       3.499   1.721  18.369  0.00  0.00    +0.000 OA
BRANCH  19  21
ATOM     21  O   UNL     1       3.948   2.686  20.410  0.00  0.00    +0.000 OA
BRANCH  21  23
ATOM     22  C   UNL     1       2.183   3.444  21.825  0.00  0.00    +0.000 C 
ATOM     23  C   UNL     1       2.849   2.229  21.203  0.00  0.00    +0.000 C 
ENDBRANCH  21  23
ENDBRANCH  19  21
ENDBRANCH   1  19
BRANCH   2  24
ATOM     24  O   UNL     1       1.263   3.980  18.586  0.00  0.00    +0.000 OA
ATOM     25  H   UNL     1       0.927   3.675  17.713  0.00  0.00    +0.000 HD
ENDBRANCH   2  24
BRANCH   4  26
ATOM     26  O   UNL     1       3.358   8.067  17.442  0.00  0.00    +0.000 OA
ATOM     27  H   UNL     1       4.062   8.269  16.800  0.00  0.00    +0.000 HD
ENDBRANCH   4  26
TORSDOF 7
ENDMDL
MODEL 2
REMARK VINA RESULT:      -6.9      2.402      6.189
REMARK  Name = 
REMARK  8 active torsions:
REMARK  status: ('A' for Active; 'I' for Inactive)
REMARK    1  A    between atoms: C_1  and  C_2
REMARK    2  A    between atoms: C_2  and  O_3
REMARK    3  A    between atoms: O_3  and  C_4
REMARK    4  A    between atoms: C_4  and  C_6
REMARK    5  A    between atoms: C_7  and  O_8
REMARK    6  A    between atoms: C_10  and  O_11
REMARK    7  A    between atoms: C_15  and  C_16
REMARK    8  A    between atoms: C_19  and  O_20
REMARK                            x       y       z     vdW  Elec       q    Type
REMARK                         _______ _______ _______ _____ _____    ______ ____
ROOT
ATOM      1  C   UNL     1       5.343   4.981  18.276  0.00  0.00    +0.000 A 
ATOM      2  C   UNL     1       5.387   4.436  16.984  0.00  0.00    +0.000 A 
ATOM      3  C   UNL     1       4.282   3.778  16.451  0.00  0.00    +0.000 A 
ATOM      4  C   UNL     1       3.123   3.663  17.212  0.00  0.00    +0.000 A 
ATOM      5  C   UNL     1       3.037   4.219  18.494  0.00  0.00    +0.000 A 
ATOM      6  C   UNL     1       4.142   4.920  19.002  0.00  0.00    +0.000 A 
ATOM      7  O   UNL     1       4.077   5.588  20.202  0.00  0.00    +0.000 OA
ATOM      8  C   UNL     1       2.754   5.977  20.620  0.00  0.00    +0.000 C 
ATOM      9  C   UNL     1       1.892   4.716  20.677  0.00  0.00    +0.000 C 
ATOM     10  C   UNL     1       1.770   4.084  19.296  0.00  0.00    +0.000 C 
ENDROOT
BRANCH   8  11
ATOM     11  C   UNL     1       2.240   7.170  19.816  0.00  0.00    +0.000 A 
ATOM     12  C   UNL     1       2.527   7.331  18.451  0.00  0.00    +0.000 A 
ATOM     13  C   UNL     1       2.057   8.439  17.742  0.00  0.00    +0.000 A 
ATOM     14  C   UNL     1       1.277   9.389  18.389  0.00  0.00    +0.000 A 
ATOM     15  C   UNL     1       0.948   9.242  19.728  0.00  0.00    +0.000 A 
ATOM     16  C   UNL     1       1.418   8.132  20.434  0.00  0.00    +0.000 A 
BRANCH  14  17
ATOM     17  O   UNL     1       0.807  10.489  17.735  0.00  0.00    +0.000 OA
ATOM     18  H   UNL     1       1.565  11.012  17.426  0.00  0.00    +0.000 HD
ENDBRANCH  14  17
ENDBRANCH   8  11
BRANCH   1  19
ATOM     19  C   UNL     1       6.586   5.560  18.832  0.00  0.00    +0.000 C 
ATOM     20  O   UNL     1       7.081   5.154  19.876  0.00  0.00    +0.000 OA
BRANCH  19  21
ATOM     21  O   UNL     1       6.931   6.682  18.160  0.00  0.00    +0.000 OA
BRANCH  21  23
ATOM     22  C   UNL     1       8.198   8.691  17.935  0.00  0.00    +0.000 C 
ATOM     23  C   UNL     1       8.173   7.291  18.523  0.00  0.00    +0.000 C 
ENDBRANCH  21  23
ENDBRANCH  19  21
ENDBRANCH   1  19
BRANCH   2  24
ATOM     24  O   UNL     1       6.491   4.503  16.173  0.00  0.00    +0.000 OA
ATOM     25  H   UNL     1       6.357   5.223  15.517  0.00  0.00    +0.000 HD
ENDBRANCH   2  24
BRANCH   4  26
ATOM     26  O   UNL     1       2.031   3.015  16.706  0.00  0.00    +0.000 OA
ATOM     27  H   UNL     1       1.770   2.314  17.328  0.00  0.00    +0.000 HD
ENDBRANCH   4  26
TORSDOF 7
ENDMDL
MODEL 3
REMARK VINA RESULT:      -6.4      2.229      5.951
REMARK  Name = 
REMARK  8 active torsions:
REMARK  status: ('A' for Active; 'I' for Inactive)
REMARK    1  A    between atoms: C_1  and  C_2
REMARK    2  A    between atoms: C_2  and  O_3
REMARK    3  A    between atoms: O_3  and  C_4
REMARK    4  A    between atoms: C_4  and  C_6
REMARK    5  A    between atoms: C_7  and  O_8
REMARK    6  A    between atoms: C_10  and  O_11
REMARK    7  A    between atoms: C_15  and  C_16
REMARK    8  A    between atoms: C_19  and  O_20
REMARK                            x       y       z     vdW  Elec       q    Type
REMARK                         _______ _______ _______ _____ _____    ______ ____
ROOT
ATOM      1  C   UNL     1       5.626   4.729  18.091  0.00  0.00    +0.000 A 
ATOM      2  C   UNL     1       5.655   4.207  16.790  0.00  0.00    +0.000 A 
ATOM      3  C   UNL     1       4.533   3.590  16.244  0.00  0.00    +0.000 A 
ATOM      4  C   UNL     1       3.371   3.494  17.003  0.00  0.00    +0.000 A 
ATOM      5  C   UNL     1       3.300   4.027  18.295  0.00  0.00    +0.000 A 
ATOM      6  C   UNL     1       4.423   4.688  18.817  0.00  0.00    +0.000 A 
ATOM      7  O   UNL     1       4.377   5.335  20.028  0.00  0.00    +0.000 OA
ATOM      8  C   UNL     1       3.065   5.752  20.454  0.00  0.00    +0.000 C 
ATOM      9  C   UNL     1       2.168   4.515  20.487  0.00  0.00    +0.000 C 
ATOM     10  C   UNL     1       2.029   3.913  19.095  0.00  0.00    +0.000 C 
ENDROOT
BRANCH   8  11
ATOM     11  C   UNL     1       2.585   6.974  19.673  0.00  0.00    +0.000 A 
ATOM     12  C   UNL     1       1.656   7.883  20.205  0.00  0.00    +0.000 A 
ATOM     13  C   UNL     1       1.222   8.986  19.464  0.00  0.00    +0.000 A 
ATOM     14  C   UNL     1       1.729   9.200  18.189  0.00  0.00    +0.000 A 
ATOM     15  C   UNL     1       2.672   8.339  17.648  0.00  0.00    +0.000 A 
ATOM     16  C   UNL     1       3.106   7.239  18.391  0.00  0.00    +0.000 A 
BRANCH  14  17
ATOM     17  O   UNL     1       1.324  10.258  17.431  0.00  0.00    +0.000 OA
ATOM     18  H   UNL     1       1.076  10.986  18.024  0.00  0.00    +0.000 HD
ENDBRANCH  14  17
ENDBRANCH   8  11
BRANCH   1  19
ATOM     19  C   UNL     1       6.885   5.263  18.658  0.00  0.00    +0.000 C 
ATOM     20  O   UNL     1       7.158   5.155  19.847  0.00  0.00    +0.000 OA
BRANCH  19  21
ATOM     21  O   UNL     1       7.527   6.032  17.751  0.00  0.00    +0.000 OA
BRANCH  21  23
ATOM     22  C   UNL     1       8.056   8.352  17.930  0.00  0.00    +0.000 C 
ATOM     23  C   UNL     1       6.996   7.342  17.528  0.00  0.00    +0.000 C 
ENDBRANCH  21  23
ENDBRANCH  19  21
ENDBRANCH   1  19
BRANCH   2  24
ATOM     24  O   UNL     1       6.762   4.259  15.980  0.00  0.00    +0.000 OA
ATOM     25  H   UNL     1       7.564   4.120  16.533  0.00  0.00    +0.000 HD
ENDBRANCH   2  24
BRANCH   4  26
ATOM     26  O   UNL     1       2.261   2.886  16.484  0.00  0.00    +0.000 OA
ATOM     27  H   UNL     1       2.461   1.944  16.341  0.00  0.00    +0.000 HD
ENDBRANCH   4  26
TORSDOF 7
ENDMDL
MODEL 4
REMARK VINA RESULT:      -6.2      0.954      1.475
REMARK  Name = 
REMARK  8 active torsions:
REMARK  status: ('A' for Active; 'I' for Inactive)
REMARK    1  A    between atoms: C_1  and  C_2
REMARK    2  A    between atoms: C_2  and  O_3
REMARK    3  A    between atoms: O_3  and  C_4
REMARK    4  A    between atoms: C_4  and  C_6
REMARK    5  A    between atoms: C_7  and  O_8
REMARK    6  A    between atoms: C_10  and  O_11
REMARK    7  A    between atoms: C_15  and  C_16
REMARK    8  A    between atoms: C_19  and  O_20
REMARK                            x       y       z     vdW  Elec       q    Type
REMARK                         _______ _______ _______ _____ _____    ______ ____
ROOT
ATOM      1  C   UNL     1       4.009   4.346  19.140  0.00  0.00    +0.000 A 
ATOM      2  C   UNL     1       2.717   4.893  19.103  0.00  0.00    +0.000 A 
ATOM      3  C   UNL     1       2.502   6.178  18.615  0.00  0.00    +0.000 A 
ATOM      4  C   UNL     1       3.583   6.926  18.159  0.00  0.00    +0.000 A 
ATOM      5  C   UNL     1       4.881   6.401  18.158  0.00  0.00    +0.000 A 
ATOM      6  C   UNL     1       5.079   5.087  18.609  0.00  0.00    +0.000 A 
ATOM      7  O   UNL     1       6.307   4.476  18.521  0.00  0.00    +0.000 OA
ATOM      8  C   UNL     1       7.186   5.004  17.509  0.00  0.00    +0.000 C 
ATOM      9  C   UNL     1       7.364   6.498  17.778  0.00  0.00    +0.000 C 
ATOM     10  C   UNL     1       6.034   7.230  17.657  0.00  0.00    +0.000 C 
ENDROOT
BRANCH   8  11
ATOM     11  C   UNL     1       6.759   4.565  16.110  0.00  0.00    +0.000 A 
ATOM     12  C   UNL     1       5.716   3.648  15.901  0.00  0.00    +0.000 A 
ATOM     13  C   UNL     1       5.354   3.252  14.610  0.00  0.00    +0.000 A 
ATOM     14  C   UNL     1       6.020   3.786  13.514  0.00  0.00    +0.000 A 
ATOM     15  C   UNL     1       7.032   4.719  13.687  0.00  0.00    +0.000 A 
ATOM     16  C   UNL     1       7.391   5.115  14.977  0.00  0.00    +0.000 A 
BRANCH  14  17
ATOM     17  O   UNL     1       5.703   3.419  12.241  0.00  0.00    +0.000 OA
ATOM     18  H   UNL     1       5.389   2.500  12.254  0.00  0.00    +0.000 HD
ENDBRANCH  14  17
ENDBRANCH   8  11
BRANCH   1  19
ATOM     19  C   UNL     1       4.190   3.025  19.781  0.00  0.00    +0.000 C 
ATOM     20  O   UNL     1       5.174   2.763  20.461  0.00  0.00    +0.000 OA
BRANCH  19  21
ATOM     21  O   UNL     1       3.264   2.148  19.333  0.00  0.00    +0.000 OA
BRANCH  21  23
ATOM     22  C   UNL     1       2.624   2.100  17.035  0.00  0.00    +0.000 C 
ATOM     23  C   UNL     1       3.541   1.501  18.088  0.00  0.00    +0.000 C 
ENDBRANCH  21  23
ENDBRANCH  19  21
ENDBRANCH   1  19
BRANCH   2  24
ATOM     24  O   UNL     1       1.601   4.223  19.537  0.00  0.00    +0.000 OA
ATOM     25  H   UNL     1       1.065   4.831  20.094  0.00  0.00    +0.000 HD
ENDBRANCH   2  24
BRANCH   4  26
ATOM     26  O   UNL     1       3.389   8.193  17.682  0.00  0.00    +0.000 OA
ATOM     27  H   UNL     1       3.099   8.761  18.418  0.00  0.00    +0.000 HD
ENDBRANCH   4  26
TORSDOF 7
ENDMDL
MODEL 5
REMARK VINA RESULT:      -6.2      2.380      6.111
REMARK  Name = 
REMARK  8 active torsions:
REMARK  status: ('A' for Active; 'I' for Inactive)
REMARK    1  A    between atoms: C_1  and  C_2
REMARK    2  A    between atoms: C_2  and  O_3
REMARK    3  A    between atoms: O_3  and  C_4
REMARK    4  A    between atoms: C_4  and  C_6
REMARK    5  A    between atoms: C_7  and  O_8
REMARK    6  A    between atoms: C_10  and  O_11
REMARK    7  A    between atoms: C_15  and  C_16
REMARK    8  A    between atoms: C_19  and  O_20
REMARK                            x       y       z     vdW  Elec       q    Type
REMARK                         _______ _______ _______ _____ _____    ______ ____
ROOT
ATOM      1  C   UNL     1       4.507   4.543  17.998  0.00  0.00    +0.000 A 
ATOM      2  C   UNL     1       4.120   3.818  16.862  0.00  0.00    +0.000 A 
ATOM      3  C   UNL     1       2.859   3.232  16.787  0.00  0.00    +0.000 A 
ATOM      4  C   UNL     1       1.977   3.371  17.854  0.00  0.00    +0.000 A 
ATOM      5  C   UNL     1       2.323   4.110  18.992  0.00  0.00    +0.000 A 
ATOM      6  C   UNL     1       3.579   4.735  19.036  0.00  0.00    +0.000 A 
ATOM      7  O   UNL     1       3.929   5.569  20.070  0.00  0.00    +0.000 OA
ATOM      8  C   UNL     1       2.826   6.174  20.773  0.00  0.00    +0.000 C 
ATOM      9  C   UNL     1       1.928   5.050  21.290  0.00  0.00    +0.000 C 
ATOM     10  C   UNL     1       1.349   4.247  20.132  0.00  0.00    +0.000 C 
ENDROOT
BRANCH   8  11
ATOM     11  C   UNL     1       2.187   7.294  19.956  0.00  0.00    +0.000 A 
ATOM     12  C   UNL     1       1.281   8.208  20.521  0.00  0.00    +0.000 A 
ATOM     13  C   UNL     1       0.698   9.215  19.747  0.00  0.00    +0.000 A 
ATOM     14  C   UNL     1       1.032   9.331  18.404  0.00  0.00    +0.000 A 
ATOM     15  C   UNL     1       1.948   8.465  17.825  0.00  0.00    +0.000 A 
ATOM     16  C   UNL     1       2.531   7.460  18.600  0.00  0.00    +0.000 A 
BRANCH  14  17
ATOM     17  O   UNL     1       0.478  10.294  17.614  0.00  0.00    +0.000 OA
ATOM     18  H   UNL     1      -0.192   9.880  17.047  0.00  0.00    +0.000 HD
ENDBRANCH  14  17
ENDBRANCH   8  11
BRANCH   1  19
ATOM     19  C   UNL     1       5.900   5.037  18.069  0.00  0.00    +0.000 C 
ATOM     20  O   UNL     1       6.699   4.611  18.894  0.00  0.00    +0.000 OA
BRANCH  19  21
ATOM     21  O   UNL     1       6.062   6.122  17.278  0.00  0.00    +0.000 OA
BRANCH  21  23
ATOM     22  C   UNL     1       7.674   7.829  17.701  0.00  0.00    +0.000 C 
ATOM     23  C   UNL     1       7.408   6.513  16.991  0.00  0.00    +0.000 C 
ENDBRANCH  21  23
ENDBRANCH  19  21
ENDBRANCH   1  19
BRANCH   2  24
ATOM     24  O   UNL     1       4.931   3.632  15.771  0.00  0.00    +0.000 OA
ATOM     25  H   UNL     1       5.833   3.398  16.086  0.00  0.00    +0.000 HD
ENDBRANCH   2  24
BRANCH   4  26
ATOM     26  O   UNL     1       0.737   2.797  17.799  0.00  0.00    +0.000 OA
ATOM     27  H   UNL     1       0.692   2.230  17.009  0.00  0.00    +0.000 HD
ENDBRANCH   4  26
TORSDOF 7
ENDMDL
MODEL 6
REMARK VINA RESULT:      -6.2      0.815      1.025
REMARK  Name = 
REMARK  8 active torsions:
REMARK  status: ('A' for Active; 'I' for Inactive)
REMARK    1  A    between atoms: C_1  and  C_2
REMARK    2  A    between atoms: C_2  and  O_3
REMARK    3  A    between atoms: O_3  and  C_4
REMARK    4  A    between atoms: C_4  and  C_6
REMARK    5  A    between atoms: C_7  and  O_8
REMARK    6  A    between atoms: C_10  and  O_11
REMARK    7  A    between atoms: C_15  and  C_16
REMARK    8  A    between atoms: C_19  and  O_20
REMARK                            x       y       z     vdW  Elec       q    Type
REMARK                         _______ _______ _______ _____ _____    ______ ____
ROOT
ATOM      1  C   UNL     1       3.954   3.851  18.573  0.00  0.00    +0.000 A 
ATOM      2  C   UNL     1       2.647   4.353  18.491  0.00  0.00    +0.000 A 
ATOM      3  C   UNL     1       2.414   5.680  18.141  0.00  0.00    +0.000 A 
ATOM      4  C   UNL     1       3.494   6.514  17.870  0.00  0.00    +0.000 A 
ATOM      5  C   UNL     1       4.810   6.039  17.917  0.00  0.00    +0.000 A 
ATOM      6  C   UNL     1       5.030   4.687  18.226  0.00  0.00    +0.000 A 
ATOM      7  O   UNL     1       6.286   4.134  18.172  0.00  0.00    +0.000 OA
ATOM      8  C   UNL     1       7.220   4.810  17.308  0.00  0.00    +0.000 C 
ATOM      9  C   UNL     1       7.309   6.267  17.764  0.00  0.00    +0.000 C 
ATOM     10  C   UNL     1       5.961   6.961  17.617  0.00  0.00    +0.000 C 
ENDROOT
BRANCH   8  11
ATOM     11  C   UNL     1       6.927   4.530  15.836  0.00  0.00    +0.000 A 
ATOM     12  C   UNL     1       5.938   3.618  15.431  0.00  0.00    +0.000 A 
ATOM     13  C   UNL     1       5.699   3.367  14.077  0.00  0.00    +0.000 A 
ATOM     14  C   UNL     1       6.435   4.044  13.113  0.00  0.00    +0.000 A 
ATOM     15  C   UNL     1       7.395   4.975  13.480  0.00  0.00    +0.000 A 
ATOM     16  C   UNL     1       7.631   5.225  14.833  0.00  0.00    +0.000 A 
BRANCH  14  17
ATOM     17  O   UNL     1       6.239   3.822  11.783  0.00  0.00    +0.000 OA
ATOM     18  H   UNL     1       6.994   3.318  11.439  0.00  0.00    +0.000 HD
ENDBRANCH  14  17
ENDBRANCH   8  11
BRANCH   1  19
ATOM     19  C   UNL     1       4.142   2.469  19.067  0.00  0.00    +0.000 C 
ATOM     20  O   UNL     1       3.507   1.526  18.613  0.00  0.00    +0.000 OA
BRANCH  19  21
ATOM     21  O   UNL     1       4.909   2.461  20.180  0.00  0.00    +0.000 OA
BRANCH  21  23
ATOM     22  C   UNL     1       5.658   0.702  21.608  0.00  0.00    +0.000 C 
ATOM     23  C   UNL     1       4.490   1.602  21.244  0.00  0.00    +0.000 C 
ENDBRANCH  21  23
ENDBRANCH  19  21
ENDBRANCH   1  19
BRANCH   2  24
ATOM     24  O   UNL     1       1.531   3.597  18.746  0.00  0.00    +0.000 OA
ATOM     25  H   UNL     1       1.221   3.198  17.901  0.00  0.00    +0.000 HD
ENDBRANCH   2  24
BRANCH   4  26
ATOM     26  O   UNL     1       3.283   7.822  17.530  0.00  0.00    +0.000 OA
ATOM     27  H   UNL     1       3.256   7.890  16.559  0.00  0.00    +0.000 HD
ENDBRANCH   4  26
TORSDOF 7
ENDMDL
MODEL 7
REMARK VINA RESULT:      -6.0     10.079     13.538
REMARK  Name = 
REMARK  8 active torsions:
REMARK  status: ('A' for Active; 'I' for Inactive)
REMARK    1  A    between atoms: C_1  and  C_2
REMARK    2  A    between atoms: C_2  and  O_3
REMARK    3  A    between atoms: O_3  and  C_4
REMARK    4  A    between atoms: C_4  and  C_6
REMARK    5  A    between atoms: C_7  and  O_8
REMARK    6  A    between atoms: C_10  and  O_11
REMARK    7  A    between atoms: C_15  and  C_16
REMARK    8  A    between atoms: C_19  and  O_20
REMARK                            x       y       z     vdW  Elec       q    Type
REMARK                         _______ _______ _______ _____ _____    ______ ____
ROOT
ATOM      1  C   UNL     1      -2.560  12.686  21.437  0.00  0.00    +0.000 A 
ATOM      2  C   UNL     1      -1.934  12.009  22.495  0.00  0.00    +0.000 A 
ATOM      3  C   UNL     1      -2.560  11.887  23.732  0.00  0.00    +0.000 A 
ATOM      4  C   UNL     1      -3.822  12.443  23.916  0.00  0.00    +0.000 A 
ATOM      5  C   UNL     1      -4.486  13.102  22.875  0.00  0.00    +0.000 A 
ATOM      6  C   UNL     1      -3.864  13.178  21.618  0.00  0.00    +0.000 A 
ATOM      7  O   UNL     1      -4.513  13.705  20.528  0.00  0.00    +0.000 OA
ATOM      8  C   UNL     1      -5.952  13.668  20.590  0.00  0.00    +0.000 C 
ATOM      9  C   UNL     1      -6.384  14.402  21.860  0.00  0.00    +0.000 C 
ATOM     10  C   UNL     1      -5.852  13.693  23.099  0.00  0.00    +0.000 C 
ENDROOT
BRANCH   8  11
ATOM     11  C   UNL     1      -6.488  12.258  20.351  0.00  0.00    +0.000 A 
ATOM     12  C   UNL     1      -7.432  11.663  21.204  0.00  0.00    +0.000 A 
ATOM     13  C   UNL     1      -7.895  10.365  20.970  0.00  0.00    +0.000 A 
ATOM     14  C   UNL     1      -7.432   9.657  19.868  0.00  0.00    +0.000 A 
ATOM     15  C   UNL     1      -6.526  10.230  18.989  0.00  0.00    +0.000 A 
ATOM     16  C   UNL     1      -6.065  11.528  19.222  0.00  0.00    +0.000 A 
BRANCH  14  17
ATOM     17  O   UNL     1      -7.853   8.387  19.611  0.00  0.00    +0.000 OA
ATOM     18  H   UNL     1      -8.082   7.961  20.453  0.00  0.00    +0.000 HD
ENDBRANCH  14  17
ENDBRANCH   8  11
BRANCH   1  19
ATOM     19  C   UNL     1      -1.795  12.887  20.187  0.00  0.00    +0.000 C 
ATOM     20  O   UNL     1      -1.455  14.001  19.806  0.00  0.00    +0.000 OA
BRANCH  19  21
ATOM     21  O   UNL     1      -1.737  11.740  19.473  0.00  0.00    +0.000 OA
BRANCH  21  23
ATOM     22  C   UNL     1      -2.631  10.188  17.897  0.00  0.00    +0.000 C 
ATOM     23  C   UNL     1      -2.618  11.638  18.350  0.00  0.00    +0.000 C 
ENDBRANCH  21  23
ENDBRANCH  19  21
ENDBRANCH   1  19
BRANCH   2  24
ATOM     24  O   UNL     1      -0.691  11.438  22.394  0.00  0.00    +0.000 OA
ATOM     25  H   UNL     1      -0.015  12.105  22.653  0.00  0.00    +0.000 HD
ENDBRANCH   2  24
BRANCH   4  26
ATOM     26  O   UNL     1      -4.448  12.338  25.127  0.00  0.00    +0.000 OA
ATOM     27  H   UNL     1      -5.079  13.074  25.216  0.00  0.00    +0.000 HD
ENDBRANCH   4  26
TORSDOF 7
ENDMDL
MODEL 8
REMARK VINA RESULT:      -5.8      5.765      8.949
REMARK  Name = 
REMARK  8 active torsions:
REMARK  status: ('A' for Active; 'I' for Inactive)
REMARK    1  A    between atoms: C_1  and  C_2
REMARK    2  A    between atoms: C_2  and  O_3
REMARK    3  A    between atoms: O_3  and  C_4
REMARK    4  A    between atoms: C_4  and  C_6
REMARK    5  A    between atoms: C_7  and  O_8
REMARK    6  A    between atoms: C_10  and  O_11
REMARK    7  A    between atoms: C_15  and  C_16
REMARK    8  A    between atoms: C_19  and  O_20
REMARK                            x       y       z     vdW  Elec       q    Type
REMARK                         _______ _______ _______ _____ _____    ______ ____
ROOT
ATOM      1  C   UNL     1       1.372   8.888  19.796  0.00  0.00    +0.000 A 
ATOM      2  C   UNL     1       1.219   8.048  20.909  0.00  0.00    +0.000 A 
ATOM      3  C   UNL     1       0.727   8.544  22.113  0.00  0.00    +0.000 A 
ATOM      4  C   UNL     1       0.383   9.888  22.208  0.00  0.00    +0.000 A 
ATOM      5  C   UNL     1       0.499  10.748  21.109  0.00  0.00    +0.000 A 
ATOM      6  C   UNL     1       0.953  10.226  19.887  0.00  0.00    +0.000 A 
ATOM      7  O   UNL     1       0.975  10.990  18.745  0.00  0.00    +0.000 OA
ATOM      8  C   UNL     1       0.056  12.100  18.729  0.00  0.00    +0.000 C 
ATOM      9  C   UNL     1       0.356  12.973  19.947  0.00  0.00    +0.000 C 
ATOM     10  C   UNL     1       0.117  12.199  21.237  0.00  0.00    +0.000 C 
ENDROOT
BRANCH   8  11
ATOM     11  C   UNL     1      -1.381  11.635  18.507  0.00  0.00    +0.000 A 
ATOM     12  C   UNL     1      -1.691  10.510  17.725  0.00  0.00    +0.000 A 
ATOM     13  C   UNL     1      -3.016  10.114  17.526  0.00  0.00    +0.000 A 
ATOM     14  C   UNL     1      -4.045  10.830  18.124  0.00  0.00    +0.000 A 
ATOM     15  C   UNL     1      -3.770  11.926  18.929  0.00  0.00    +0.000 A 
ATOM     16  C   UNL     1      -2.445  12.318  19.128  0.00  0.00    +0.000 A 
BRANCH  14  17
ATOM     17  O   UNL     1      -5.351  10.482  17.947  0.00  0.00    +0.000 OA
ATOM     18  H   UNL     1      -5.517   9.652  18.425  0.00  0.00    +0.000 HD
ENDBRANCH  14  17
ENDBRANCH   8  11
BRANCH   1  19
ATOM     19  C   UNL     1       2.013   8.331  18.584  0.00  0.00    +0.000 C 
ATOM     20  O   UNL     1       1.537   8.489  17.467  0.00  0.00    +0.000 OA
BRANCH  19  21
ATOM     21  O   UNL     1       3.016   7.488  18.920  0.00  0.00    +0.000 OA
BRANCH  21  23
ATOM     22  C   UNL     1       2.865   5.307  17.964  0.00  0.00    +0.000 C 
ATOM     23  C   UNL     1       3.541   6.665  17.875  0.00  0.00    +0.000 C 
ENDBRANCH  21  23
ENDBRANCH  19  21
ENDBRANCH   1  19
BRANCH   2  24
ATOM     24  O   UNL     1       1.538   6.714  20.897  0.00  0.00    +0.000 OA
ATOM     25  H   UNL     1       1.279   6.320  21.761  0.00  0.00    +0.000 HD
ENDBRANCH   2  24
BRANCH   4  26
ATOM     26  O   UNL     1      -0.097  10.393  23.385  0.00  0.00    +0.000 OA
ATOM     27  H   UNL     1       0.657  10.664  23.937  0.00  0.00    +0.000 HD
ENDBRANCH   4  26
TORSDOF 7
ENDMDL
MODEL 9
REMARK VINA RESULT:      -5.7     10.019     13.583
REMARK  Name = 
REMARK  8 active torsions:
REMARK  status: ('A' for Active; 'I' for Inactive)
REMARK    1  A    between atoms: C_1  and  C_2
REMARK    2  A    between atoms: C_2  and  O_3
REMARK    3  A    between atoms: O_3  and  C_4
REMARK    4  A    between atoms: C_4  and  C_6
REMARK    5  A    between atoms: C_7  and  O_8
REMARK    6  A    between atoms: C_10  and  O_11
REMARK    7  A    between atoms: C_15  and  C_16
REMARK    8  A    between atoms: C_19  and  O_20
REMARK                            x       y       z     vdW  Elec       q    Type
REMARK                         _______ _______ _______ _____ _____    ______ ____
ROOT
ATOM      1  C   UNL     1      -2.590  12.913  21.395  0.00  0.00    +0.000 A 
ATOM      2  C   UNL     1      -1.937  12.242  22.440  0.00  0.00    +0.000 A 
ATOM      3  C   UNL     1      -2.563  12.058  23.669  0.00  0.00    +0.000 A 
ATOM      4  C   UNL     1      -3.852  12.547  23.859  0.00  0.00    +0.000 A 
ATOM      5  C   UNL     1      -4.541  13.199  22.829  0.00  0.00    +0.000 A 
ATOM      6  C   UNL     1      -3.917  13.337  21.579  0.00  0.00    +0.000 A 
ATOM      7  O   UNL     1      -4.584  13.858  20.498  0.00  0.00    +0.000 OA
ATOM      8  C   UNL     1      -6.020  13.750  20.549  0.00  0.00    +0.000 C 
ATOM      9  C   UNL     1      -6.495  14.429  21.834  0.00  0.00    +0.000 C 
ATOM     10  C   UNL     1      -5.936  13.716  23.058  0.00  0.00    +0.000 C 
ENDROOT
BRANCH   8  11
ATOM     11  C   UNL     1      -6.485  12.322  20.271  0.00  0.00    +0.000 A 
ATOM     12  C   UNL     1      -5.976  11.565  19.203  0.00  0.00    +0.000 A 
ATOM     13  C   UNL     1      -6.429  10.266  18.961  0.00  0.00    +0.000 A 
ATOM     14  C   UNL     1      -7.383   9.703  19.798  0.00  0.00    +0.000 A 
ATOM     15  C   UNL     1      -7.882  10.412  20.881  0.00  0.00    +0.000 A 
ATOM     16  C   UNL     1      -7.426  11.710  21.122  0.00  0.00    +0.000 A 
BRANCH  14  17
ATOM     17  O   UNL     1      -7.857   8.442  19.591  0.00  0.00    +0.000 OA
ATOM     18  H   UNL     1      -7.143   7.901  19.217  0.00  0.00    +0.000 HD
ENDBRANCH  14  17
ENDBRANCH   8  11
BRANCH   1  19
ATOM     19  C   UNL     1      -1.828  13.183  20.156  0.00  0.00    +0.000 C 
ATOM     20  O   UNL     1      -1.350  14.285  19.914  0.00  0.00    +0.000 OA
BRANCH  19  21
ATOM     21  O   UNL     1      -1.937  12.147  19.294  0.00  0.00    +0.000 OA
BRANCH  21  23
ATOM     22  C   UNL     1      -0.779  10.301  18.323  0.00  0.00    +0.000 C 
ATOM     23  C   UNL     1      -0.763  11.802  18.553  0.00  0.00    +0.000 C 
ENDBRANCH  21  23
ENDBRANCH  19  21
ENDBRANCH   1  19
BRANCH   2  24
ATOM     24  O   UNL     1      -0.667  11.734  22.334  0.00  0.00    +0.000 OA
ATOM     25  H   UNL     1      -0.282  12.025  21.477  0.00  0.00    +0.000 HD
ENDBRANCH   2  24
BRANCH   4  26
ATOM     26  O   UNL     1      -4.480  12.380  25.062  0.00  0.00    +0.000 OA
ATOM     27  H   UNL     1      -4.301  13.160  25.616  0.00  0.00    +0.000 HD
ENDBRANCH   4  26
TORSDOF 7
ENDMDL
