MODEL 1
REMARK VINA RESULT:      -6.7      0.000      0.000
REMARK  Name = 
REMARK  11 active torsions:
REMARK  status: ('A' for Active; 'I' for Inactive)
REMARK    1  A    between atoms: C_1  and  C_2
REMARK    2  A    between atoms: C_2  and  C_3
REMARK    3  A    between atoms: C_3  and  C_4
REMARK    4  A    between atoms: N_6  and  C_7
REMARK    5  A    between atoms: C_7  and  C_8
REMARK    6  A    between atoms: C_7  and  C_29
REMARK    7  A    between atoms: N_13  and  C_14
REMARK    8  A    between atoms: C_14  and  C_15
REMARK    9  A    between atoms: C_14  and  C_21
REMARK   10  A    between atoms: C_29  and  C_30
REMARK   11  A    between atoms: C_29  and  C_31
REMARK                            x       y       z     vdW  Elec       q    Type
REMARK                         _______ _______ _______ _____ _____    ______ ____
ROOT
ATOM      1  C   UNL     1       1.638   9.714  18.244  0.00  0.00    +0.000 C 
ATOM      2  O   UNL     1       1.949  10.671  17.521  0.00  0.00    +0.000 OA
ATOM      3  N   UNL     1       2.219   8.462  18.090  0.00  0.00    +0.000 N 
ATOM      4  C   UNL     1       3.459   8.307  17.316  0.00  0.00    +0.000 C 
ATOM      5  C   UNL     1       4.467   7.391  18.060  0.00  0.00    +0.000 C 
ATOM      6  N   UNL     1       3.917   6.108  18.601  0.00  0.00    +0.000 NA
ATOM      7  C   UNL     1       2.711   6.445  19.393  0.00  0.00    +0.000 C 
ATOM      8  C   UNL     1       1.656   7.211  18.588  0.00  0.00    +0.000 C 
ENDROOT
BRANCH   1   9
ATOM      9  C   UNL     1       0.540   9.864  19.331  0.00  0.00    +0.000 C 
BRANCH   9  12
ATOM     10  C   UNL     1      -1.426  10.581  17.983  0.00  0.00    +0.000 C 
ATOM     11  O   UNL     1      -1.607   9.455  17.520  0.00  0.00    +0.000 OA
ATOM     12  N   UNL     1      -0.415  10.878  18.863  0.00  0.00    +0.000 N 
ATOM     13  H   UNL     1      -0.303  11.825  19.211  0.00  0.00    +0.000 HD
BRANCH  10  14
ATOM     14  C   UNL     1      -2.310  11.747  17.585  0.00  0.00    +0.000 C 
BRANCH  14  16
ATOM     15  C   UNL     1      -4.700  11.435  16.759  0.00  0.00    +0.000 C 
ATOM     16  C   UNL     1      -3.774  11.547  17.963  0.00  0.00    +0.000 C 
ENDBRANCH  14  16
ENDBRANCH  10  14
ENDBRANCH   9  12
BRANCH   9  17
ATOM     17  C   UNL     1       1.126  10.232  20.715  0.00  0.00    +0.000 C 
ATOM     18  C   UNL     1       0.464  11.504  21.262  0.00  0.00    +0.000 C 
ATOM     19  C   UNL     1       0.905   9.103  21.735  0.00  0.00    +0.000 C 
ENDBRANCH   9  17
ENDBRANCH   1   9
BRANCH   6  20
ATOM     20  C   UNL     1       3.639   5.116  17.519  0.00  0.00    +0.000 C 
BRANCH  20  21
ATOM     21  C   UNL     1       4.906   4.820  16.707  0.00  0.00    +0.000 A 
ATOM     22  C   UNL     1       6.169   4.741  17.320  0.00  0.00    +0.000 A 
ATOM     23  C   UNL     1       7.327   4.561  16.562  0.00  0.00    +0.000 A 
ATOM     24  C   UNL     1       7.239   4.484  15.175  0.00  0.00    +0.000 A 
ATOM     25  C   UNL     1       6.000   4.564  14.548  0.00  0.00    +0.000 A 
ATOM     26  C   UNL     1       4.837   4.720  15.308  0.00  0.00    +0.000 A 
ENDBRANCH  20  21
BRANCH  20  27
ATOM     27  C   UNL     1       2.954   3.821  17.998  0.00  0.00    +0.000 A 
ATOM     28  C   UNL     1       3.732   2.718  18.400  0.00  0.00    +0.000 A 
ATOM     29  C   UNL     1       3.133   1.549  18.880  0.00  0.00    +0.000 A 
ATOM     30  C   UNL     1       1.748   1.462  18.980  0.00  0.00    +0.000 A 
ATOM     31  C   UNL     1       0.959   2.529  18.561  0.00  0.00    +0.000 A 
ATOM     32  C   UNL     1       1.555   3.687  18.056  0.00  0.00    +0.000 A 
ENDBRANCH  20  27
ENDBRANCH   6  20
TORSDOF 8
ENDMDL
MODEL 2
REMARK VINA RESULT:      -6.7      0.722      1.146
REMARK  Name = 
REMARK  11 active torsions:
REMARK  status: ('A' for Active; 'I' for Inactive)
REMARK    1  A    between atoms: C_1  and  C_2
REMARK    2  A    between atoms: C_2  and  C_3
REMARK    3  A    between atoms: C_3  and  C_4
REMARK    4  A    between atoms: N_6  and  C_7
REMARK    5  A    between atoms: C_7  and  C_8
REMARK    6  A    between atoms: C_7  and  C_29
REMARK    7  A    between atoms: N_13  and  C_14
REMARK    8  A    between atoms: C_14  and  C_15
REMARK    9  A    between atoms: C_14  and  C_21
REMARK   10  A    between atoms: C_29  and  C_30
REMARK   11  A    between atoms: C_29  and  C_31
REMARK                            x       y       z     vdW  Elec       q    Type
REMARK                         _______ _______ _______ _____ _____    ______ ____
ROOT
ATOM      1  C   UNL     1       1.806   9.840  17.960  0.00  0.00    +0.000 C 
ATOM      2  O   UNL     1       2.262  10.753  17.256  0.00  0.00    +0.000 OA
ATOM      3  N   UNL     1       2.322   8.552  17.910  0.00  0.00    +0.000 N 
ATOM      4  C   UNL     1       3.634   8.298  17.298  0.00  0.00    +0.000 C 
ATOM      5  C   UNL     1       4.486   7.349  18.183  0.00  0.00    +0.000 C 
ATOM      6  N   UNL     1       3.795   6.120  18.685  0.00  0.00    +0.000 NA
ATOM      7  C   UNL     1       2.526   6.553  19.315  0.00  0.00    +0.000 C 
ATOM      8  C   UNL     1       1.626   7.353  18.367  0.00  0.00    +0.000 C 
ENDROOT
BRANCH   1   9
ATOM      9  C   UNL     1       0.597  10.091  18.900  0.00  0.00    +0.000 C 
BRANCH   9  12
ATOM     10  C   UNL     1      -1.682  10.537  18.002  0.00  0.00    +0.000 C 
ATOM     11  O   UNL     1      -2.138   9.483  18.446  0.00  0.00    +0.000 OA
ATOM     12  N   UNL     1      -0.373  10.917  18.168  0.00  0.00    +0.000 N 
ATOM     13  H   UNL     1      -0.042  11.793  17.776  0.00  0.00    +0.000 HD
BRANCH  10  14
ATOM     14  C   UNL     1      -2.545  11.493  17.203  0.00  0.00    +0.000 C 
BRANCH  14  16
ATOM     15  C   UNL     1      -2.868  10.291  14.980  0.00  0.00    +0.000 C 
ATOM     16  C   UNL     1      -3.518  10.785  16.266  0.00  0.00    +0.000 C 
ENDBRANCH  14  16
ENDBRANCH  10  14
ENDBRANCH   9  12
BRANCH   9  17
ATOM     17  C   UNL     1       1.014  10.753  20.235  0.00  0.00    +0.000 C 
ATOM     18  C   UNL     1       0.554  12.216  20.280  0.00  0.00    +0.000 C 
ATOM     19  C   UNL     1       0.399  10.022  21.439  0.00  0.00    +0.000 C 
ENDBRANCH   9  17
ENDBRANCH   1   9
BRANCH   6  20
ATOM     20  C   UNL     1       3.588   5.111  17.603  0.00  0.00    +0.000 C 
BRANCH  20  21
ATOM     21  C   UNL     1       4.893   4.848  16.840  0.00  0.00    +0.000 A 
ATOM     22  C   UNL     1       6.124   4.733  17.510  0.00  0.00    +0.000 A 
ATOM     23  C   UNL     1       7.316   4.585  16.801  0.00  0.00    +0.000 A 
ATOM     24  C   UNL     1       7.297   4.576  15.409  0.00  0.00    +0.000 A 
ATOM     25  C   UNL     1       6.090   4.692  14.727  0.00  0.00    +0.000 A 
ATOM     26  C   UNL     1       4.891   4.817  15.436  0.00  0.00    +0.000 A 
ENDBRANCH  20  21
BRANCH  20  27
ATOM     27  C   UNL     1       2.927   3.799  18.069  0.00  0.00    +0.000 A 
ATOM     28  C   UNL     1       1.529   3.730  18.230  0.00  0.00    +0.000 A 
ATOM     29  C   UNL     1       0.903   2.538  18.608  0.00  0.00    +0.000 A 
ATOM     30  C   UNL     1       1.657   1.389  18.822  0.00  0.00    +0.000 A 
ATOM     31  C   UNL     1       3.043   1.441  18.698  0.00  0.00    +0.000 A 
ATOM     32  C   UNL     1       3.672   2.638  18.346  0.00  0.00    +0.000 A 
ENDBRANCH  20  27
ENDBRANCH   6  20
TORSDOF 8
ENDMDL
MODEL 3
REMARK VINA RESULT:      -6.3      6.313      9.312
REMARK  Name = 
REMARK  11 active torsions:
REMARK  status: ('A' for Active; 'I' for Inactive)
REMARK    1  A    between atoms: C_1  and  C_2
REMARK    2  A    between atoms: C_2  and  C_3
REMARK    3  A    between atoms: C_3  and  C_4
REMARK    4  A    between atoms: N_6  and  C_7
REMARK    5  A    between atoms: C_7  and  C_8
REMARK    6  A    between atoms: C_7  and  C_29
REMARK    7  A    between atoms: N_13  and  C_14
REMARK    8  A    between atoms: C_14  and  C_15
REMARK    9  A    between atoms: C_14  and  C_21
REMARK   10  A    between atoms: C_29  and  C_30
REMARK   11  A    between atoms: C_29  and  C_31
REMARK                            x       y       z     vdW  Elec       q    Type
REMARK                         _______ _______ _______ _____ _____    ______ ____
ROOT
ATOM      1  C   UNL     1       4.235  14.619  20.013  0.00  0.00    +0.000 C 
ATOM      2  O   UNL     1       4.936  14.595  21.035  0.00  0.00    +0.000 OA
ATOM      3  N   UNL     1       3.062  13.883  19.914  0.00  0.00    +0.000 N 
ATOM      4  C   UNL     1       2.425  13.333  21.118  0.00  0.00    +0.000 C 
ATOM      5  C   UNL     1       0.892  13.579  21.099  0.00  0.00    +0.000 C 
ATOM      6  N   UNL     1       0.187  13.242  19.822  0.00  0.00    +0.000 NA
ATOM      7  C   UNL     1       0.919  13.912  18.722  0.00  0.00    +0.000 C 
ATOM      8  C   UNL     1       2.401  13.525  18.663  0.00  0.00    +0.000 C 
ENDROOT
BRANCH   1   9
ATOM      9  C   UNL     1       4.669  15.444  18.772  0.00  0.00    +0.000 C 
BRANCH   9  12
ATOM     10  C   UNL     1       7.030  14.871  18.230  0.00  0.00    +0.000 C 
ATOM     11  O   UNL     1       6.710  13.909  17.532  0.00  0.00    +0.000 OA
ATOM     12  N   UNL     1       6.117  15.671  18.872  0.00  0.00    +0.000 N 
ATOM     13  H   UNL     1       6.433  16.449  19.443  0.00  0.00    +0.000 HD
BRANCH  10  14
ATOM     14  C   UNL     1       8.486  15.229  18.455  0.00  0.00    +0.000 C 
BRANCH  14  16
ATOM     15  C   UNL     1      10.912  14.522  18.131  0.00  0.00    +0.000 C 
ATOM     16  C   UNL     1       9.454  14.265  17.776  0.00  0.00    +0.000 C 
ENDBRANCH  14  16
ENDBRANCH  10  14
ENDBRANCH   9  12
BRANCH   9  17
ATOM     17  C   UNL     1       3.893  16.776  18.647  0.00  0.00    +0.000 C 
ATOM     18  C   UNL     1       2.992  16.764  17.404  0.00  0.00    +0.000 C 
ATOM     19  C   UNL     1       3.005  17.026  19.877  0.00  0.00    +0.000 C 
ENDBRANCH   9  17
ENDBRANCH   1   9
BRANCH   6  20
ATOM     20  C   UNL     1       0.067  11.766  19.621  0.00  0.00    +0.000 C 
BRANCH  20  21
ATOM     21  C   UNL     1       0.050  11.028  20.966  0.00  0.00    +0.000 A 
ATOM     22  C   UNL     1       0.934   9.968  21.232  0.00  0.00    +0.000 A 
ATOM     23  C   UNL     1       0.851   9.243  22.421  0.00  0.00    +0.000 A 
ATOM     24  C   UNL     1      -0.136   9.554  23.352  0.00  0.00    +0.000 A 
ATOM     25  C   UNL     1      -1.024  10.597  23.107  0.00  0.00    +0.000 A 
ATOM     26  C   UNL     1      -0.927  11.339  21.926  0.00  0.00    +0.000 A 
ENDBRANCH  20  21
BRANCH  20  27
ATOM     27  C   UNL     1      -1.109  11.336  18.722  0.00  0.00    +0.000 A 
ATOM     28  C   UNL     1      -0.964  10.243  17.845  0.00  0.00    +0.000 A 
ATOM     29  C   UNL     1      -2.030   9.807  17.052  0.00  0.00    +0.000 A 
ATOM     30  C   UNL     1      -3.265  10.445  17.126  0.00  0.00    +0.000 A 
ATOM     31  C   UNL     1      -3.421  11.547  17.963  0.00  0.00    +0.000 A 
ATOM     32  C   UNL     1      -2.349  11.999  18.736  0.00  0.00    +0.000 A 
ENDBRANCH  20  27
ENDBRANCH   6  20
TORSDOF 8
ENDMDL
MODEL 4
REMARK VINA RESULT:      -6.2      0.558      1.049
REMARK  Name = 
REMARK  11 active torsions:
REMARK  status: ('A' for Active; 'I' for Inactive)
REMARK    1  A    between atoms: C_1  and  C_2
REMARK    2  A    between atoms: C_2  and  C_3
REMARK    3  A    between atoms: C_3  and  C_4
REMARK    4  A    between atoms: N_6  and  C_7
REMARK    5  A    between atoms: C_7  and  C_8
REMARK    6  A    between atoms: C_7  and  C_29
REMARK    7  A    between atoms: N_13  and  C_14
REMARK    8  A    between atoms: C_14  and  C_15
REMARK    9  A    between atoms: C_14  and  C_21
REMARK   10  A    between atoms: C_29  and  C_30
REMARK   11  A    between atoms: C_29  and  C_31
REMARK                            x       y       z     vdW  Elec       q    Type
REMARK                         _______ _______ _______ _____ _____    ______ ____
ROOT
ATOM      1  C   UNL     1       1.760   9.970  18.094  0.00  0.00    +0.000 C 
ATOM      2  O   UNL     1       2.168  10.870  17.346  0.00  0.00    +0.000 OA
ATOM      3  N   UNL     1       2.275   8.681  18.035  0.00  0.00    +0.000 N 
ATOM      4  C   UNL     1       3.546   8.418  17.347  0.00  0.00    +0.000 C 
ATOM      5  C   UNL     1       4.454   7.486  18.193  0.00  0.00    +0.000 C 
ATOM      6  N   UNL     1       3.799   6.265  18.760  0.00  0.00    +0.000 NA
ATOM      7  C   UNL     1       2.571   6.708  19.460  0.00  0.00    +0.000 C 
ATOM      8  C   UNL     1       1.611   7.490  18.557  0.00  0.00    +0.000 C 
ENDROOT
BRANCH   1   9
ATOM      9  C   UNL     1       0.612  10.235  19.103  0.00  0.00    +0.000 C 
BRANCH   9  12
ATOM     10  C   UNL     1      -1.609  10.636  18.051  0.00  0.00    +0.000 C 
ATOM     11  O   UNL     1      -1.978   9.475  18.225  0.00  0.00    +0.000 OA
ATOM     12  N   UNL     1      -0.375  11.098  18.438  0.00  0.00    +0.000 N 
ATOM     13  H   UNL     1      -0.115  12.064  18.266  0.00  0.00    +0.000 HD
BRANCH  10  14
ATOM     14  C   UNL     1      -2.499  11.649  17.359  0.00  0.00    +0.000 C 
BRANCH  14  16
ATOM     15  C   UNL     1      -4.912  11.634  18.177  0.00  0.00    +0.000 C 
ATOM     16  C   UNL     1      -3.920  11.144  17.130  0.00  0.00    +0.000 C 
ENDBRANCH  14  16
ENDBRANCH  10  14
ENDBRANCH   9  12
BRANCH   9  17
ATOM     17  C   UNL     1       1.118  10.865  20.423  0.00  0.00    +0.000 C 
ATOM     18  C   UNL     1       1.003  12.395  20.372  0.00  0.00    +0.000 C 
ATOM     19  C   UNL     1       0.309  10.365  21.629  0.00  0.00    +0.000 C 
ENDBRANCH   9  17
ENDBRANCH   1   9
BRANCH   6  20
ATOM     20  C   UNL     1       3.528   5.237  17.711  0.00  0.00    +0.000 C 
BRANCH  20  21
ATOM     21  C   UNL     1       4.792   4.934  16.897  0.00  0.00    +0.000 A 
ATOM     22  C   UNL     1       4.724   4.599  15.533  0.00  0.00    +0.000 A 
ATOM     23  C   UNL     1       5.869   4.237  14.824  0.00  0.00    +0.000 A 
ATOM     24  C   UNL     1       7.097   4.180  15.477  0.00  0.00    +0.000 A 
ATOM     25  C   UNL     1       7.186   4.504  16.826  0.00  0.00    +0.000 A 
ATOM     26  C   UNL     1       6.043   4.890  17.533  0.00  0.00    +0.000 A 
ENDBRANCH  20  21
BRANCH  20  27
ATOM     27  C   UNL     1       2.866   3.947  18.236  0.00  0.00    +0.000 A 
ATOM     28  C   UNL     1       3.625   3.011  18.965  0.00  0.00    +0.000 A 
ATOM     29  C   UNL     1       3.036   1.856  19.490  0.00  0.00    +0.000 A 
ATOM     30  C   UNL     1       1.678   1.617  19.305  0.00  0.00    +0.000 A 
ATOM     31  C   UNL     1       0.916   2.513  18.562  0.00  0.00    +0.000 A 
ATOM     32  C   UNL     1       1.508   3.654  18.015  0.00  0.00    +0.000 A 
ENDBRANCH  20  27
ENDBRANCH   6  20
TORSDOF 8
ENDMDL
MODEL 5
REMARK VINA RESULT:      -6.2      2.113      8.648
REMARK  Name = 
REMARK  11 active torsions:
REMARK  status: ('A' for Active; 'I' for Inactive)
REMARK    1  A    between atoms: C_1  and  C_2
REMARK    2  A    between atoms: C_2  and  C_3
REMARK    3  A    between atoms: C_3  and  C_4
REMARK    4  A    between atoms: N_6  and  C_7
REMARK    5  A    between atoms: C_7  and  C_8
REMARK    6  A    between atoms: C_7  and  C_29
REMARK    7  A    between atoms: N_13  and  C_14
REMARK    8  A    between atoms: C_14  and  C_15
REMARK    9  A    between atoms: C_14  and  C_21
REMARK   10  A    between atoms: C_29  and  C_30
REMARK   11  A    between atoms: C_29  and  C_31
REMARK                            x       y       z     vdW  Elec       q    Type
REMARK                         _______ _______ _______ _____ _____    ______ ____
ROOT
ATOM      1  C   UNL     1       2.962   6.441  19.142  0.00  0.00    +0.000 C 
ATOM      2  O   UNL     1       3.383   5.841  20.143  0.00  0.00    +0.000 OA
ATOM      3  N   UNL     1       2.042   7.477  19.245  0.00  0.00    +0.000 N 
ATOM      4  C   UNL     1       1.801   8.133  20.537  0.00  0.00    +0.000 C 
ATOM      5  C   UNL     1       1.761   9.676  20.378  0.00  0.00    +0.000 C 
ATOM      6  N   UNL     1       0.922  10.202  19.256  0.00  0.00    +0.000 NA
ATOM      7  C   UNL     1       1.324   9.480  18.027  0.00  0.00    +0.000 C 
ATOM      8  C   UNL     1       1.199   7.958  18.154  0.00  0.00    +0.000 C 
ENDROOT
BRANCH   1   9
ATOM      9  C   UNL     1       3.414   6.023  17.718  0.00  0.00    +0.000 C 
BRANCH   9  12
ATOM     10  C   UNL     1       2.343   3.786  17.495  0.00  0.00    +0.000 C 
ATOM     11  O   UNL     1       1.217   4.263  17.353  0.00  0.00    +0.000 OA
ATOM     12  N   UNL     1       3.466   4.555  17.680  0.00  0.00    +0.000 N 
ATOM     13  H   UNL     1       4.372   4.114  17.800  0.00  0.00    +0.000 HD
BRANCH  10  14
ATOM     14  C   UNL     1       2.568   2.287  17.503  0.00  0.00    +0.000 C 
BRANCH  14  16
ATOM     15  C   UNL     1       1.789   2.370  19.927  0.00  0.00    +0.000 C 
ATOM     16  C   UNL     1       2.706   1.708  18.907  0.00  0.00    +0.000 C 
ENDBRANCH  14  16
ENDBRANCH  10  14
ENDBRANCH   9  12
BRANCH   9  17
ATOM     17  C   UNL     1       4.771   6.650  17.320  0.00  0.00    +0.000 C 
ATOM     18  C   UNL     1       5.933   5.874  17.956  0.00  0.00    +0.000 C 
ATOM     19  C   UNL     1       4.968   6.640  15.796  0.00  0.00    +0.000 C 
ENDBRANCH   9  17
ENDBRANCH   1   9
BRANCH   6  20
ATOM     20  C   UNL     1      -0.539  10.081  19.545  0.00  0.00    +0.000 C 
BRANCH  20  21
ATOM     21  C   UNL     1      -0.928  10.913  20.773  0.00  0.00    +0.000 A 
ATOM     22  C   UNL     1      -1.170  12.295  20.676  0.00  0.00    +0.000 A 
ATOM     23  C   UNL     1      -1.434  13.060  21.813  0.00  0.00    +0.000 A 
ATOM     24  C   UNL     1      -1.433  12.457  23.067  0.00  0.00    +0.000 A 
ATOM     25  C   UNL     1      -1.192  11.092  23.186  0.00  0.00    +0.000 A 
ATOM     26  C   UNL     1      -0.951  10.319  22.046  0.00  0.00    +0.000 A 
ENDBRANCH  20  21
BRANCH  20  27
ATOM     27  C   UNL     1      -1.457  10.378  18.342  0.00  0.00    +0.000 A 
ATOM     28  C   UNL     1      -2.512   9.501  18.025  0.00  0.00    +0.000 A 
ATOM     29  C   UNL     1      -3.384   9.774  16.966  0.00  0.00    +0.000 A 
ATOM     30  C   UNL     1      -3.227  10.932  16.211  0.00  0.00    +0.000 A 
ATOM     31  C   UNL     1      -2.173  11.798  16.488  0.00  0.00    +0.000 A 
ATOM     32  C   UNL     1      -1.285  11.513  17.528  0.00  0.00    +0.000 A 
ENDBRANCH  20  27
ENDBRANCH   6  20
TORSDOF 8
ENDMDL
MODEL 6
REMARK VINA RESULT:      -6.1      2.606      8.939
REMARK  Name = 
REMARK  11 active torsions:
REMARK  status: ('A' for Active; 'I' for Inactive)
REMARK    1  A    between atoms: C_1  and  C_2
REMARK    2  A    between atoms: C_2  and  C_3
REMARK    3  A    between atoms: C_3  and  C_4
REMARK    4  A    between atoms: N_6  and  C_7
REMARK    5  A    between atoms: C_7  and  C_8
REMARK    6  A    between atoms: C_7  and  C_29
REMARK    7  A    between atoms: N_13  and  C_14
REMARK    8  A    between atoms: C_14  and  C_15
REMARK    9  A    between atoms: C_14  and  C_21
REMARK   10  A    between atoms: C_29  and  C_30
REMARK   11  A    between atoms: C_29  and  C_31
REMARK                            x       y       z     vdW  Elec       q    Type
REMARK                         _______ _______ _______ _____ _____    ______ ____
ROOT
ATOM      1  C   UNL     1       2.390   8.012  18.301  0.00  0.00    +0.000 C 
ATOM      2  O   UNL     1       2.674   8.285  17.126  0.00  0.00    +0.000 OA
ATOM      3  N   UNL     1       1.705   8.905  19.115  0.00  0.00    +0.000 N 
ATOM      4  C   UNL     1       0.987  10.045  18.528  0.00  0.00    +0.000 C 
ATOM      5  C   UNL     1      -0.422  10.200  19.161  0.00  0.00    +0.000 C 
ATOM      6  N   UNL     1      -0.483  10.139  20.656  0.00  0.00    +0.000 NA
ATOM      7  C   UNL     1       0.235   8.914  21.077  0.00  0.00    +0.000 C 
ATOM      8  C   UNL     1       1.682   8.861  20.573  0.00  0.00    +0.000 C 
ENDROOT
BRANCH   1   9
ATOM      9  C   UNL     1       2.836   6.667  18.933  0.00  0.00    +0.000 C 
BRANCH   9  12
ATOM     10  C   UNL     1       5.019   5.505  18.639  0.00  0.00    +0.000 C 
ATOM     11  O   UNL     1       5.189   5.372  19.851  0.00  0.00    +0.000 OA
ATOM     12  N   UNL     1       3.915   6.119  18.100  0.00  0.00    +0.000 N 
ATOM     13  H   UNL     1       3.824   6.211  17.093  0.00  0.00    +0.000 HD
BRANCH  10  14
ATOM     14  C   UNL     1       6.049   5.015  17.641  0.00  0.00    +0.000 C 
BRANCH  14  16
ATOM     15  C   UNL     1       7.563   7.063  17.706  0.00  0.00    +0.000 C 
ATOM     16  C   UNL     1       7.449   5.557  17.907  0.00  0.00    +0.000 C 
ENDBRANCH  14  16
ENDBRANCH  10  14
ENDBRANCH   9  12
BRANCH   9  17
ATOM     17  C   UNL     1       1.666   5.665  19.078  0.00  0.00    +0.000 C 
ATOM     18  C   UNL     1       1.731   4.594  17.980  0.00  0.00    +0.000 C 
ATOM     19  C   UNL     1       1.701   4.954  20.440  0.00  0.00    +0.000 C 
ENDBRANCH   9  17
ENDBRANCH   1   9
BRANCH   6  20
ATOM     20  C   UNL     1       0.063  11.376  21.290  0.00  0.00    +0.000 C 
BRANCH  20  21
ATOM     21  C   UNL     1       0.579  12.356  20.229  0.00  0.00    +0.000 A 
ATOM     22  C   UNL     1       1.951  12.638  20.096  0.00  0.00    +0.000 A 
ATOM     23  C   UNL     1       2.403  13.598  19.190  0.00  0.00    +0.000 A 
ATOM     24  C   UNL     1       1.485  14.309  18.423  0.00  0.00    +0.000 A 
ATOM     25  C   UNL     1       0.124  14.050  18.542  0.00  0.00    +0.000 A 
ATOM     26  C   UNL     1      -0.329  13.071  19.432  0.00  0.00    +0.000 A 
ENDBRANCH  20  21
BRANCH  20  27
ATOM     27  C   UNL     1      -0.896  12.064  22.282  0.00  0.00    +0.000 A 
ATOM     28  C   UNL     1      -0.629  13.372  22.730  0.00  0.00    +0.000 A 
ATOM     29  C   UNL     1      -1.509  14.033  23.594  0.00  0.00    +0.000 A 
ATOM     30  C   UNL     1      -2.676  13.406  24.019  0.00  0.00    +0.000 A 
ATOM     31  C   UNL     1      -2.944  12.102  23.613  0.00  0.00    +0.000 A 
ATOM     32  C   UNL     1      -2.053  11.431  22.771  0.00  0.00    +0.000 A 
ENDBRANCH  20  27
ENDBRANCH   6  20
TORSDOF 8
ENDMDL
MODEL 7
REMARK VINA RESULT:      -5.9      5.031     11.656
REMARK  Name = 
REMARK  11 active torsions:
REMARK  status: ('A' for Active; 'I' for Inactive)
REMARK    1  A    between atoms: C_1  and  C_2
REMARK    2  A    between atoms: C_2  and  C_3
REMARK    3  A    between atoms: C_3  and  C_4
REMARK    4  A    between atoms: N_6  and  C_7
REMARK    5  A    between atoms: C_7  and  C_8
REMARK    6  A    between atoms: C_7  and  C_29
REMARK    7  A    between atoms: N_13  and  C_14
REMARK    8  A    between atoms: C_14  and  C_15
REMARK    9  A    between atoms: C_14  and  C_21
REMARK   10  A    between atoms: C_29  and  C_30
REMARK   11  A    between atoms: C_29  and  C_31
REMARK                            x       y       z     vdW  Elec       q    Type
REMARK                         _______ _______ _______ _____ _____    ______ ____
ROOT
ATOM      1  C   UNL     1       0.245  11.900  21.001  0.00  0.00    +0.000 C 
ATOM      2  O   UNL     1       1.458  12.049  21.210  0.00  0.00    +0.000 OA
ATOM      3  N   UNL     1      -0.711  12.636  21.689  0.00  0.00    +0.000 N 
ATOM      4  C   UNL     1      -0.329  13.850  22.423  0.00  0.00    +0.000 C 
ATOM      5  C   UNL     1      -1.331  15.004  22.150  0.00  0.00    +0.000 C 
ATOM      6  N   UNL     1      -2.783  14.655  22.254  0.00  0.00    +0.000 NA
ATOM      7  C   UNL     1      -3.008  13.451  21.421  0.00  0.00    +0.000 C 
ATOM      8  C   UNL     1      -2.117  12.268  21.818  0.00  0.00    +0.000 C 
ENDROOT
BRANCH   1   9
ATOM      9  C   UNL     1      -0.262  10.841  19.986  0.00  0.00    +0.000 C 
BRANCH   9  12
ATOM     10  C   UNL     1       0.535   8.642  20.837  0.00  0.00    +0.000 C 
ATOM     11  O   UNL     1      -0.397   8.534  21.633  0.00  0.00    +0.000 OA
ATOM     12  N   UNL     1       0.688   9.720  20.001  0.00  0.00    +0.000 N 
ATOM     13  H   UNL     1       1.479   9.766  19.366  0.00  0.00    +0.000 HD
BRANCH  10  14
ATOM     14  C   UNL     1       1.615   7.582  20.741  0.00  0.00    +0.000 C 
BRANCH  14  16
ATOM     15  C   UNL     1       2.547   6.100  18.890  0.00  0.00    +0.000 C 
ATOM     16  C   UNL     1       2.276   7.520  19.368  0.00  0.00    +0.000 C 
ENDBRANCH  14  16
ENDBRANCH  10  14
ENDBRANCH   9  12
BRANCH   9  17
ATOM     17  C   UNL     1      -0.433  11.422  18.562  0.00  0.00    +0.000 C 
ATOM     18  C   UNL     1      -1.815  11.068  17.996  0.00  0.00    +0.000 C 
ATOM     19  C   UNL     1      -0.294  12.952  18.560  0.00  0.00    +0.000 C 
ENDBRANCH   9  17
ENDBRANCH   1   9
BRANCH   6  20
ATOM     20  C   UNL     1      -3.213  14.465  23.673  0.00  0.00    +0.000 C 
BRANCH  20  21
ATOM     21  C   UNL     1      -2.753  15.637  24.548  0.00  0.00    +0.000 A 
ATOM     22  C   UNL     1      -3.135  16.960  24.262  0.00  0.00    +0.000 A 
ATOM     23  C   UNL     1      -2.639  18.029  25.009  0.00  0.00    +0.000 A 
ATOM     24  C   UNL     1      -1.732  17.791  26.038  0.00  0.00    +0.000 A 
ATOM     25  C   UNL     1      -1.339  16.491  26.335  0.00  0.00    +0.000 A 
ATOM     26  C   UNL     1      -1.853  15.416  25.603  0.00  0.00    +0.000 A 
ENDBRANCH  20  21
BRANCH  20  27
ATOM     27  C   UNL     1      -4.716  14.175  23.852  0.00  0.00    +0.000 A 
ATOM     28  C   UNL     1      -5.659  15.209  23.692  0.00  0.00    +0.000 A 
ATOM     29  C   UNL     1      -7.030  14.961  23.806  0.00  0.00    +0.000 A 
ATOM     30  C   UNL     1      -7.489  13.674  24.071  0.00  0.00    +0.000 A 
ATOM     31  C   UNL     1      -6.574  12.643  24.263  0.00  0.00    +0.000 A 
ATOM     32  C   UNL     1      -5.203  12.896  24.176  0.00  0.00    +0.000 A 
ENDBRANCH  20  27
ENDBRANCH   6  20
TORSDOF 8
ENDMDL
MODEL 8
REMARK VINA RESULT:      -5.9      6.180      9.096
REMARK  Name = 
REMARK  11 active torsions:
REMARK  status: ('A' for Active; 'I' for Inactive)
REMARK    1  A    between atoms: C_1  and  C_2
REMARK    2  A    between atoms: C_2  and  C_3
REMARK    3  A    between atoms: C_3  and  C_4
REMARK    4  A    between atoms: N_6  and  C_7
REMARK    5  A    between atoms: C_7  and  C_8
REMARK    6  A    between atoms: C_7  and  C_29
REMARK    7  A    between atoms: N_13  and  C_14
REMARK    8  A    between atoms: C_14  and  C_15
REMARK    9  A    between atoms: C_14  and  C_21
REMARK   10  A    between atoms: C_29  and  C_30
REMARK   11  A    between atoms: C_29  and  C_31
REMARK                            x       y       z     vdW  Elec       q    Type
REMARK                         _______ _______ _______ _____ _____    ______ ____
ROOT
ATOM      1  C   UNL     1       2.020  15.968  19.616  0.00  0.00    +0.000 C 
ATOM      2  O   UNL     1       1.631  17.074  19.213  0.00  0.00    +0.000 OA
ATOM      3  N   UNL     1       1.187  14.856  19.613  0.00  0.00    +0.000 N 
ATOM      4  C   UNL     1      -0.050  14.854  18.820  0.00  0.00    +0.000 C 
ATOM      5  C   UNL     1      -0.210  13.520  18.043  0.00  0.00    +0.000 C 
ATOM      6  N   UNL     1       0.017  12.267  18.831  0.00  0.00    +0.000 NA
ATOM      7  C   UNL     1       1.319  12.409  19.522  0.00  0.00    +0.000 C 
ATOM      8  C   UNL     1       1.395  13.654  20.414  0.00  0.00    +0.000 C 
ENDROOT
BRANCH   1   9
ATOM      9  C   UNL     1       3.450  15.789  20.190  0.00  0.00    +0.000 C 
BRANCH   9  12
ATOM     10  C   UNL     1       3.485  16.153  22.652  0.00  0.00    +0.000 C 
ATOM     11  O   UNL     1       3.309  14.960  22.901  0.00  0.00    +0.000 OA
ATOM     12  N   UNL     1       3.565  16.650  21.375  0.00  0.00    +0.000 N 
ATOM     13  H   UNL     1       3.705  17.644  21.222  0.00  0.00    +0.000 HD
BRANCH  10  14
ATOM     14  C   UNL     1       3.603  17.179  23.762  0.00  0.00    +0.000 C 
BRANCH  14  16
ATOM     15  C   UNL     1       1.111  17.701  23.650  0.00  0.00    +0.000 C 
ATOM     16  C   UNL     1       2.304  17.374  24.539  0.00  0.00    +0.000 C 
ENDBRANCH  14  16
ENDBRANCH  10  14
ENDBRANCH   9  12
BRANCH   9  17
ATOM     17  C   UNL     1       4.549  16.107  19.148  0.00  0.00    +0.000 C 
ATOM     18  C   UNL     1       5.429  17.270  19.627  0.00  0.00    +0.000 C 
ATOM     19  C   UNL     1       5.457  14.892  18.902  0.00  0.00    +0.000 C 
ENDBRANCH   9  17
ENDBRANCH   1   9
BRANCH   6  20
ATOM     20  C   UNL     1      -1.109  11.986  19.772  0.00  0.00    +0.000 C 
BRANCH  20  21
ATOM     21  C   UNL     1      -2.381  11.599  19.007  0.00  0.00    +0.000 A 
ATOM     22  C   UNL     1      -2.339  10.721  17.910  0.00  0.00    +0.000 A 
ATOM     23  C   UNL     1      -3.487  10.447  17.165  0.00  0.00    +0.000 A 
ATOM     24  C   UNL     1      -4.688  11.069  17.491  0.00  0.00    +0.000 A 
ATOM     25  C   UNL     1      -4.750  11.944  18.571  0.00  0.00    +0.000 A 
ATOM     26  C   UNL     1      -3.607  12.202  19.333  0.00  0.00    +0.000 A 
ENDBRANCH  20  21
BRANCH  20  27
ATOM     27  C   UNL     1      -0.778  10.965  20.879  0.00  0.00    +0.000 A 
ATOM     28  C   UNL     1      -0.259   9.700  20.541  0.00  0.00    +0.000 A 
ATOM     29  C   UNL     1       0.090   8.775  21.530  0.00  0.00    +0.000 A 
ATOM     30  C   UNL     1      -0.061   9.098  22.875  0.00  0.00    +0.000 A 
ATOM     31  C   UNL     1      -0.600  10.331  23.231  0.00  0.00    +0.000 A 
ATOM     32  C   UNL     1      -0.974  11.245  22.243  0.00  0.00    +0.000 A 
ENDBRANCH  20  27
ENDBRANCH   6  20
TORSDOF 8
ENDMDL
MODEL 9
REMARK VINA RESULT:      -5.9      2.545      8.831
REMARK  Name = 
REMARK  11 active torsions:
REMARK  status: ('A' for Active; 'I' for Inactive)
REMARK    1  A    between atoms: C_1  and  C_2
REMARK    2  A    between atoms: C_2  and  C_3
REMARK    3  A    between atoms: C_3  and  C_4
REMARK    4  A    between atoms: N_6  and  C_7
REMARK    5  A    between atoms: C_7  and  C_8
REMARK    6  A    between atoms: C_7  and  C_29
REMARK    7  A    between atoms: N_13  and  C_14
REMARK    8  A    between atoms: C_14  and  C_15
REMARK    9  A    between atoms: C_14  and  C_21
REMARK   10  A    between atoms: C_29  and  C_30
REMARK   11  A    between atoms: C_29  and  C_31
REMARK                            x       y       z     vdW  Elec       q    Type
REMARK                         _______ _______ _______ _____ _____    ______ ____
ROOT
ATOM      1  C   UNL     1       2.446   7.960  18.278  0.00  0.00    +0.000 C 
ATOM      2  O   UNL     1       2.772   8.223  17.112  0.00  0.00    +0.000 OA
ATOM      3  N   UNL     1       1.761   8.874  19.069  0.00  0.00    +0.000 N 
ATOM      4  C   UNL     1       1.093  10.032  18.460  0.00  0.00    +0.000 C 
ATOM      5  C   UNL     1      -0.330  10.227  19.049  0.00  0.00    +0.000 C 
ATOM      6  N   UNL     1      -0.439  10.170  20.541  0.00  0.00    +0.000 NA
ATOM      7  C   UNL     1       0.232   8.927  20.986  0.00  0.00    +0.000 C 
ATOM      8  C   UNL     1       1.692   8.833  20.526  0.00  0.00    +0.000 C 
ENDROOT
BRANCH   1   9
ATOM      9  C   UNL     1       2.835   6.604  18.925  0.00  0.00    +0.000 C 
BRANCH   9  12
ATOM     10  C   UNL     1       4.994   5.413  18.588  0.00  0.00    +0.000 C 
ATOM     11  O   UNL     1       5.248   5.387  19.792  0.00  0.00    +0.000 OA
ATOM     12  N   UNL     1       3.855   5.980  18.072  0.00  0.00    +0.000 N 
ATOM     13  H   UNL     1       3.695   5.983  17.070  0.00  0.00    +0.000 HD
BRANCH  10  14
ATOM     14  C   UNL     1       5.955   4.831  17.569  0.00  0.00    +0.000 C 
BRANCH  14  16
ATOM     15  C   UNL     1       5.504   4.740  15.063  0.00  0.00    +0.000 C 
ATOM     16  C   UNL     1       5.251   4.107  16.425  0.00  0.00    +0.000 C 
ENDBRANCH  14  16
ENDBRANCH  10  14
ENDBRANCH   9  12
BRANCH   9  17
ATOM     17  C   UNL     1       1.615   5.673  19.125  0.00  0.00    +0.000 C 
ATOM     18  C   UNL     1       1.595   4.570  18.058  0.00  0.00    +0.000 C 
ATOM     19  C   UNL     1       1.644   5.001  20.507  0.00  0.00    +0.000 C 
ENDBRANCH   9  17
ENDBRANCH   1   9
BRANCH   6  20
ATOM     20  C   UNL     1       0.122  11.394  21.191  0.00  0.00    +0.000 C 
BRANCH  20  21
ATOM     21  C   UNL     1       0.682  12.364  20.143  0.00  0.00    +0.000 A 
ATOM     22  C   UNL     1       2.061  12.625  20.047  0.00  0.00    +0.000 A 
ATOM     23  C   UNL     1       2.552  13.577  19.154  0.00  0.00    +0.000 A 
ATOM     24  C   UNL     1       1.667  14.301  18.361  0.00  0.00    +0.000 A 
ATOM     25  C   UNL     1       0.299  14.063  18.443  0.00  0.00    +0.000 A 
ATOM     26  C   UNL     1      -0.193  13.092  19.321  0.00  0.00    +0.000 A 
ENDBRANCH  20  21
BRANCH  20  27
ATOM     27  C   UNL     1      -0.842  12.100  22.164  0.00  0.00    +0.000 A 
ATOM     28  C   UNL     1      -2.010  11.446  22.600  0.00  0.00    +0.000 A 
ATOM     29  C   UNL     1      -2.877  12.049  23.518  0.00  0.00    +0.000 A 
ATOM     30  C   UNL     1      -2.589  13.313  24.026  0.00  0.00    +0.000 A 
ATOM     31  C   UNL     1      -1.456  13.990  23.585  0.00  0.00    +0.000 A 
ATOM     32  C   UNL     1      -0.604  13.399  22.649  0.00  0.00    +0.000 A 
ENDBRANCH  20  27
ENDBRANCH   6  20
TORSDOF 8
ENDMDL
