MODEL 1
REMARK VINA RESULT:      -9.1      0.000      0.000
REMARK  Name = 
REMARK  3 active torsions:
REMARK  status: ('A' for Active; 'I' for Inactive)
REMARK    1  A    between atoms: C_2  and  C_11
REMARK    2  A    between atoms: N_3  and  C_4
REMARK    3  A    between atoms: C_15  and  N_16
REMARK                            x       y       z     vdW  Elec       q    Type
REMARK                         _______ _______ _______ _____ _____    ______ ____
ROOT
ATOM      1  C   UNL     1       6.832   6.543  17.267  0.00  0.00    +0.000 A 
ATOM      2  C   UNL     1       6.994   6.281  15.909  0.00  0.00    +0.000 A 
ATOM      3  C   UNL     1       6.151   5.355  15.292  0.00  0.00    +0.000 A 
ATOM      4  C   UNL     1       5.160   4.684  16.030  0.00  0.00    +0.000 A 
ATOM      5  C   UNL     1       4.965   4.949  17.391  0.00  0.00    +0.000 A 
ATOM      6  C   UNL     1       5.814   5.896  17.986  0.00  0.00    +0.000 A 
ENDROOT
BRANCH   5   7
ATOM      7  N   UNL     1       4.057   4.218  18.212  0.00  0.00    +0.000 N 
ATOM      8  C   UNL     1       2.685   4.294  18.159  0.00  0.00    +0.000 C 
ATOM      9  O   UNL     1       1.985   5.135  17.612  0.00  0.00    +0.000 OA
ATOM     10  C   UNL     1       2.126   3.035  18.793  0.00  0.00    +0.000 C 
ATOM     11  C   UNL     1       0.798   3.230  19.517  0.00  0.00    +0.000 C 
ATOM     12  C   UNL     1       0.859   3.178  21.007  0.00  0.00    +0.000 C 
ATOM     13  C   UNL     1       1.919   2.749  21.698  0.00  0.00    +0.000 C 
ATOM     14  C   UNL     1       3.188   2.271  21.079  0.00  0.00    +0.000 C 
ATOM     15  C   UNL     1       3.298   2.441  19.563  0.00  0.00    +0.000 C 
ATOM     16  C   UNL     1       4.456   3.330  19.185  0.00  0.00    +0.000 C 
ATOM     17  O   UNL     1       5.559   3.243  19.714  0.00  0.00    +0.000 OA
ENDBRANCH   5   7
BRANCH   1  19
ATOM     18  O   UNL     1       8.405   6.844  18.947  0.00  0.00    +0.000 OA
ATOM     19  C   UNL     1       7.780   7.389  18.044  0.00  0.00    +0.000 C 
ATOM     20  N   UNL     1       7.829   8.725  17.696  0.00  0.00    +0.000 N 
ATOM     21  H   UNL     1       7.124   9.063  17.054  0.00  0.00    +0.000 HD
BRANCH  20  22
ATOM     22  C   UNL     1       8.630   9.704  18.329  0.00  0.00    +0.000 A 
ATOM     23  C   UNL     1       8.944   9.679  19.693  0.00  0.00    +0.000 A 
ATOM     24  C   UNL     1       9.683  10.710  20.278  0.00  0.00    +0.000 A 
ATOM     25  C   UNL     1      10.121  11.777  19.501  0.00  0.00    +0.000 A 
ATOM     26  C   UNL     1       9.842  11.791  18.136  0.00  0.00    +0.000 A 
ATOM     27 CL   UNL     1      10.380  13.113  17.173  0.00  0.00    +0.000 Cl
ATOM     28  C   UNL     1       9.113  10.756  17.544  0.00  0.00    +0.000 A 
ENDBRANCH  20  22
ENDBRANCH   1  19
TORSDOF 3
ENDMDL
MODEL 2
REMARK VINA RESULT:      -8.7      1.023      1.128
REMARK  Name = 
REMARK  3 active torsions:
REMARK  status: ('A' for Active; 'I' for Inactive)
REMARK    1  A    between atoms: C_2  and  C_11
REMARK    2  A    between atoms: N_3  and  C_4
REMARK    3  A    between atoms: C_15  and  N_16
REMARK                            x       y       z     vdW  Elec       q    Type
REMARK                         _______ _______ _______ _____ _____    ______ ____
ROOT
ATOM      1  C   UNL     1       6.907   6.611  17.188  0.00  0.00    +0.000 A 
ATOM      2  C   UNL     1       7.217   6.181  15.900  0.00  0.00    +0.000 A 
ATOM      3  C   UNL     1       6.370   5.268  15.269  0.00  0.00    +0.000 A 
ATOM      4  C   UNL     1       5.228   4.777  15.925  0.00  0.00    +0.000 A 
ATOM      5  C   UNL     1       4.886   5.213  17.211  0.00  0.00    +0.000 A 
ATOM      6  C   UNL     1       5.743   6.144  17.819  0.00  0.00    +0.000 A 
ENDROOT
BRANCH   5   7
ATOM      7  N   UNL     1       3.808   4.665  17.967  0.00  0.00    +0.000 N 
ATOM      8  C   UNL     1       3.018   5.355  18.858  0.00  0.00    +0.000 C 
ATOM      9  O   UNL     1       3.210   6.454  19.360  0.00  0.00    +0.000 OA
ATOM     10  C   UNL     1       1.728   4.577  19.032  0.00  0.00    +0.000 C 
ATOM     11  C   UNL     1       1.112   4.683  20.423  0.00  0.00    +0.000 C 
ATOM     12  C   UNL     1       1.210   3.458  21.270  0.00  0.00    +0.000 C 
ATOM     13  C   UNL     1       1.573   2.257  20.811  0.00  0.00    +0.000 C 
ATOM     14  C   UNL     1       1.938   1.976  19.393  0.00  0.00    +0.000 C 
ATOM     15  C   UNL     1       2.037   3.194  18.473  0.00  0.00    +0.000 C 
ATOM     16  C   UNL     1       3.422   3.346  17.897  0.00  0.00    +0.000 C 
ATOM     17  O   UNL     1       4.070   2.398  17.467  0.00  0.00    +0.000 OA
ENDBRANCH   5   7
BRANCH   1  19
ATOM     18  O   UNL     1       8.422   6.906  18.922  0.00  0.00    +0.000 OA
ATOM     19  C   UNL     1       7.828   7.455  18.000  0.00  0.00    +0.000 C 
ATOM     20  N   UNL     1       7.890   8.791  17.658  0.00  0.00    +0.000 N 
ATOM     21  H   UNL     1       7.207   9.132  16.993  0.00  0.00    +0.000 HD
BRANCH  20  22
ATOM     22  C   UNL     1       8.669   9.768  18.321  0.00  0.00    +0.000 A 
ATOM     23  C   UNL     1       8.978   9.711  19.685  0.00  0.00    +0.000 A 
ATOM     24  C   UNL     1       9.694  10.740  20.302  0.00  0.00    +0.000 A 
ATOM     25  C   UNL     1      10.115  11.837  19.557  0.00  0.00    +0.000 A 
ATOM     26  C   UNL     1       9.840  11.883  18.192  0.00  0.00    +0.000 A 
ATOM     27 CL   UNL     1      10.356  13.242  17.268  0.00  0.00    +0.000 Cl
ATOM     28  C   UNL     1       9.134  10.851  17.569  0.00  0.00    +0.000 A 
ENDBRANCH  20  22
ENDBRANCH   1  19
TORSDOF 3
ENDMDL
MODEL 3
REMARK VINA RESULT:      -8.4      6.468      8.633
REMARK  Name = 
REMARK  3 active torsions:
REMARK  status: ('A' for Active; 'I' for Inactive)
REMARK    1  A    between atoms: C_2  and  C_11
REMARK    2  A    between atoms: N_3  and  C_4
REMARK    3  A    between atoms: C_15  and  N_16
REMARK                            x       y       z     vdW  Elec       q    Type
REMARK                         _______ _______ _______ _____ _____    ______ ____
ROOT
ATOM      1  C   UNL     1       0.420   9.800  19.864  0.00  0.00    +0.000 A 
ATOM      2  C   UNL     1       0.451  10.076  21.229  0.00  0.00    +0.000 A 
ATOM      3  C   UNL     1       1.172   9.232  22.075  0.00  0.00    +0.000 A 
ATOM      4  C   UNL     1       1.846   8.110  21.564  0.00  0.00    +0.000 A 
ATOM      5  C   UNL     1       1.847   7.826  20.193  0.00  0.00    +0.000 A 
ATOM      6  C   UNL     1       1.129   8.698  19.359  0.00  0.00    +0.000 A 
ENDROOT
BRANCH   5   7
ATOM      7  N   UNL     1       2.414   6.643  19.635  0.00  0.00    +0.000 N 
ATOM      8  C   UNL     1       3.320   6.595  18.600  0.00  0.00    +0.000 C 
ATOM      9  O   UNL     1       3.627   7.477  17.810  0.00  0.00    +0.000 OA
ATOM     10  C   UNL     1       4.032   5.258  18.668  0.00  0.00    +0.000 C 
ATOM     11  C   UNL     1       4.439   4.692  17.311  0.00  0.00    +0.000 C 
ATOM     12  C   UNL     1       3.650   3.518  16.836  0.00  0.00    +0.000 C 
ATOM     13  C   UNL     1       2.808   2.821  17.604  0.00  0.00    +0.000 C 
ATOM     14  C   UNL     1       2.536   3.122  19.039  0.00  0.00    +0.000 C 
ATOM     15  C   UNL     1       3.162   4.407  19.583  0.00  0.00    +0.000 C 
ATOM     16  C   UNL     1       2.112   5.373  20.073  0.00  0.00    +0.000 C 
ATOM     17  O   UNL     1       1.145   5.021  20.739  0.00  0.00    +0.000 OA
ENDBRANCH   5   7
BRANCH   1  19
ATOM     18  O   UNL     1      -0.089  11.674  18.593  0.00  0.00    +0.000 OA
ATOM     19  C   UNL     1      -0.448  10.545  18.910  0.00  0.00    +0.000 C 
ATOM     20  N   UNL     1      -1.602   9.902  18.507  0.00  0.00    +0.000 N 
ATOM     21  H   UNL     1      -1.852   9.050  18.993  0.00  0.00    +0.000 HD
BRANCH  20  22
ATOM     22  C   UNL     1      -2.577  10.444  17.638  0.00  0.00    +0.000 A 
ATOM     23  C   UNL     1      -3.618  11.274  18.072  0.00  0.00    +0.000 A 
ATOM     24  C   UNL     1      -4.594  11.725  17.179  0.00  0.00    +0.000 A 
ATOM     25  C   UNL     1      -4.535  11.355  15.840  0.00  0.00    +0.000 A 
ATOM     26  C   UNL     1      -3.482  10.558  15.396  0.00  0.00    +0.000 A 
ATOM     27 CL   UNL     1      -3.409  10.095  13.739  0.00  0.00    +0.000 Cl
ATOM     28  C   UNL     1      -2.498  10.114  16.282  0.00  0.00    +0.000 A 
ENDBRANCH  20  22
ENDBRANCH   1  19
TORSDOF 3
ENDMDL
MODEL 4
REMARK VINA RESULT:      -8.4      1.100      1.392
REMARK  Name = 
REMARK  3 active torsions:
REMARK  status: ('A' for Active; 'I' for Inactive)
REMARK    1  A    between atoms: C_2  and  C_11
REMARK    2  A    between atoms: N_3  and  C_4
REMARK    3  A    between atoms: C_15  and  N_16
REMARK                            x       y       z     vdW  Elec       q    Type
REMARK                         _______ _______ _______ _____ _____    ______ ____
ROOT
ATOM      1  C   UNL     1       6.983   6.761  17.289  0.00  0.00    +0.000 A 
ATOM      2  C   UNL     1       7.172   6.473  15.940  0.00  0.00    +0.000 A 
ATOM      3  C   UNL     1       6.330   5.548  15.320  0.00  0.00    +0.000 A 
ATOM      4  C   UNL     1       5.314   4.903  16.046  0.00  0.00    +0.000 A 
ATOM      5  C   UNL     1       5.092   5.194  17.398  0.00  0.00    +0.000 A 
ATOM      6  C   UNL     1       5.940   6.140  17.996  0.00  0.00    +0.000 A 
ENDROOT
BRANCH   5   7
ATOM      7  N   UNL     1       4.156   4.490  18.210  0.00  0.00    +0.000 N 
ATOM      8  C   UNL     1       2.799   4.710  18.249  0.00  0.00    +0.000 C 
ATOM      9  O   UNL     1       2.165   5.663  17.818  0.00  0.00    +0.000 OA
ATOM     10  C   UNL     1       2.142   3.463  18.810  0.00  0.00    +0.000 C 
ATOM     11  C   UNL     1       0.883   3.728  19.629  0.00  0.00    +0.000 C 
ATOM     12  C   UNL     1       1.018   3.538  21.102  0.00  0.00    +0.000 C 
ATOM     13  C   UNL     1       2.060   2.944  21.689  0.00  0.00    +0.000 C 
ATOM     14  C   UNL     1       3.236   2.395  20.955  0.00  0.00    +0.000 C 
ATOM     15  C   UNL     1       3.283   2.687  19.454  0.00  0.00    +0.000 C 
ATOM     16  C   UNL     1       4.508   3.483  19.079  0.00  0.00    +0.000 C 
ATOM     17  O   UNL     1       5.622   3.238  19.530  0.00  0.00    +0.000 OA
ENDBRANCH   5   7
BRANCH   1  19
ATOM     18  O   UNL     1       8.510   7.073  19.010  0.00  0.00    +0.000 OA
ATOM     19  C   UNL     1       7.925   7.608  18.073  0.00  0.00    +0.000 C 
ATOM     20  N   UNL     1       8.014   8.932  17.693  0.00  0.00    +0.000 N 
ATOM     21  H   UNL     1       7.336   9.267  17.020  0.00  0.00    +0.000 HD
BRANCH  20  22
ATOM     22  C   UNL     1       8.816   9.911  18.324  0.00  0.00    +0.000 A 
ATOM     23  C   UNL     1       9.855  10.590  17.677  0.00  0.00    +0.000 A 
ATOM     24  C   UNL     1      10.660  11.498  18.370  0.00  0.00    +0.000 A 
ATOM     25  C   UNL     1      10.428  11.741  19.720  0.00  0.00    +0.000 A 
ATOM     26  C   UNL     1       9.374  11.095  20.361  0.00  0.00    +0.000 A 
ATOM     27 CL   UNL     1       9.087  11.391  22.033  0.00  0.00    +0.000 Cl
ATOM     28  C   UNL     1       8.559  10.195  19.669  0.00  0.00    +0.000 A 
ENDBRANCH  20  22
ENDBRANCH   1  19
TORSDOF 3
ENDMDL
MODEL 5
REMARK VINA RESULT:      -8.2      5.212      7.310
REMARK  Name = 
REMARK  3 active torsions:
REMARK  status: ('A' for Active; 'I' for Inactive)
REMARK    1  A    between atoms: C_2  and  C_11
REMARK    2  A    between atoms: N_3  and  C_4
REMARK    3  A    between atoms: C_15  and  N_16
REMARK                            x       y       z     vdW  Elec       q    Type
REMARK                         _______ _______ _______ _____ _____    ______ ____
ROOT
ATOM      1  C   UNL     1       4.075   5.849  17.573  0.00  0.00    +0.000 A 
ATOM      2  C   UNL     1       4.285   4.879  18.550  0.00  0.00    +0.000 A 
ATOM      3  C   UNL     1       3.642   5.007  19.783  0.00  0.00    +0.000 A 
ATOM      4  C   UNL     1       2.805   6.106  20.044  0.00  0.00    +0.000 A 
ATOM      5  C   UNL     1       2.562   7.081  19.069  0.00  0.00    +0.000 A 
ATOM      6  C   UNL     1       3.206   6.922  17.831  0.00  0.00    +0.000 A 
ENDROOT
BRANCH   5   7
ATOM      7  N   UNL     1       1.818   8.272  19.315  0.00  0.00    +0.000 N 
ATOM      8  C   UNL     1       1.598   9.285  18.410  0.00  0.00    +0.000 C 
ATOM      9  O   UNL     1       2.163   9.498  17.347  0.00  0.00    +0.000 OA
ATOM     10  C   UNL     1       0.384  10.066  18.875  0.00  0.00    +0.000 C 
ATOM     11  C   UNL     1       0.426  11.554  18.541  0.00  0.00    +0.000 C 
ATOM     12  C   UNL     1       0.656  12.470  19.696  0.00  0.00    +0.000 C 
ATOM     13  C   UNL     1       0.587  12.094  20.975  0.00  0.00    +0.000 C 
ATOM     14  C   UNL     1       0.279  10.708  21.428  0.00  0.00    +0.000 C 
ATOM     15  C   UNL     1       0.193   9.649  20.327  0.00  0.00    +0.000 C 
ATOM     16  C   UNL     1       1.220   8.561  20.520  0.00  0.00    +0.000 C 
ATOM     17  O   UNL     1       1.460   8.062  21.614  0.00  0.00    +0.000 OA
ENDBRANCH   5   7
BRANCH   1  19
ATOM     18  O   UNL     1       5.007   6.982  15.774  0.00  0.00    +0.000 OA
ATOM     19  C   UNL     1       4.836   5.884  16.294  0.00  0.00    +0.000 C 
ATOM     20  N   UNL     1       5.240   4.662  15.793  0.00  0.00    +0.000 N 
ATOM     21  H   UNL     1       4.869   3.833  16.238  0.00  0.00    +0.000 HD
BRANCH  20  22
ATOM     22  C   UNL     1       5.939   4.469  14.578  0.00  0.00    +0.000 A 
ATOM     23  C   UNL     1       7.112   5.157  14.247  0.00  0.00    +0.000 A 
ATOM     24  C   UNL     1       7.722   4.976  13.003  0.00  0.00    +0.000 A 
ATOM     25  C   UNL     1       7.168   4.097  12.078  0.00  0.00    +0.000 A 
ATOM     26  C   UNL     1       6.020   3.383  12.416  0.00  0.00    +0.000 A 
ATOM     27 CL   UNL     1       5.329   2.297  11.272  0.00  0.00    +0.000 Cl
ATOM     28  C   UNL     1       5.413   3.552  13.662  0.00  0.00    +0.000 A 
ENDBRANCH  20  22
ENDBRANCH   1  19
TORSDOF 3
ENDMDL
MODEL 6
REMARK VINA RESULT:      -8.2      1.148      1.621
REMARK  Name = 
REMARK  3 active torsions:
REMARK  status: ('A' for Active; 'I' for Inactive)
REMARK    1  A    between atoms: C_2  and  C_11
REMARK    2  A    between atoms: N_3  and  C_4
REMARK    3  A    between atoms: C_15  and  N_16
REMARK                            x       y       z     vdW  Elec       q    Type
REMARK                         _______ _______ _______ _____ _____    ______ ____
ROOT
ATOM      1  C   UNL     1       7.064   6.981  17.415  0.00  0.00    +0.000 A 
ATOM      2  C   UNL     1       7.214   6.707  16.058  0.00  0.00    +0.000 A 
ATOM      3  C   UNL     1       6.324   5.826  15.442  0.00  0.00    +0.000 A 
ATOM      4  C   UNL     1       5.298   5.210  16.180  0.00  0.00    +0.000 A 
ATOM      5  C   UNL     1       5.115   5.488  17.540  0.00  0.00    +0.000 A 
ATOM      6  C   UNL     1       6.012   6.391  18.135  0.00  0.00    +0.000 A 
ENDROOT
BRANCH   5   7
ATOM      7  N   UNL     1       4.169   4.808  18.362  0.00  0.00    +0.000 N 
ATOM      8  C   UNL     1       3.910   3.457  18.341  0.00  0.00    +0.000 C 
ATOM      9  O   UNL     1       4.223   2.630  17.497  0.00  0.00    +0.000 OA
ATOM     10  C   UNL     1       3.263   3.089  19.663  0.00  0.00    +0.000 C 
ATOM     11  C   UNL     1       2.249   1.953  19.574  0.00  0.00    +0.000 C 
ATOM     12  C   UNL     1       0.818   2.350  19.722  0.00  0.00    +0.000 C 
ATOM     13  C   UNL     1       0.414   3.549  20.150  0.00  0.00    +0.000 C 
ATOM     14  C   UNL     1       1.334   4.658  20.531  0.00  0.00    +0.000 C 
ATOM     15  C   UNL     1       2.820   4.420  20.256  0.00  0.00    +0.000 C 
ATOM     16  C   UNL     1       3.379   5.439  19.296  0.00  0.00    +0.000 C 
ATOM     17  O   UNL     1       3.117   6.634  19.370  0.00  0.00    +0.000 OA
ENDBRANCH   5   7
BRANCH   1  19
ATOM     18  O   UNL     1       8.671   7.195  19.077  0.00  0.00    +0.000 OA
ATOM     19  C   UNL     1       8.054   7.779  18.192  0.00  0.00    +0.000 C 
ATOM     20  N   UNL     1       8.149   9.117  17.864  0.00  0.00    +0.000 N 
ATOM     21  H   UNL     1       7.448   9.491  17.238  0.00  0.00    +0.000 HD
BRANCH  20  22
ATOM     22  C   UNL     1       8.995  10.054  18.500  0.00  0.00    +0.000 A 
ATOM     23  C   UNL     1       9.045  10.230  19.888  0.00  0.00    +0.000 A 
ATOM     24  C   UNL     1       9.850  11.220  20.458  0.00  0.00    +0.000 A 
ATOM     25  C   UNL     1      10.620  12.042  19.642  0.00  0.00    +0.000 A 
ATOM     26  C   UNL     1      10.602  11.850  18.263  0.00  0.00    +0.000 A 
ATOM     27 CL   UNL     1      11.552  12.869  17.251  0.00  0.00    +0.000 Cl
ATOM     28  C   UNL     1       9.807  10.854  17.690  0.00  0.00    +0.000 A 
ENDBRANCH  20  22
ENDBRANCH   1  19
TORSDOF 3
ENDMDL
MODEL 7
REMARK VINA RESULT:      -8.2      6.660      8.816
REMARK  Name = 
REMARK  3 active torsions:
REMARK  status: ('A' for Active; 'I' for Inactive)
REMARK    1  A    between atoms: C_2  and  C_11
REMARK    2  A    between atoms: N_3  and  C_4
REMARK    3  A    between atoms: C_15  and  N_16
REMARK                            x       y       z     vdW  Elec       q    Type
REMARK                         _______ _______ _______ _____ _____    ______ ____
ROOT
ATOM      1  C   UNL     1       0.325   9.854  19.835  0.00  0.00    +0.000 A 
ATOM      2  C   UNL     1       0.313  10.130  21.200  0.00  0.00    +0.000 A 
ATOM      3  C   UNL     1       1.039   9.307  22.064  0.00  0.00    +0.000 A 
ATOM      4  C   UNL     1       1.761   8.208  21.569  0.00  0.00    +0.000 A 
ATOM      5  C   UNL     1       1.805   7.926  20.198  0.00  0.00    +0.000 A 
ATOM      6  C   UNL     1       1.081   8.777  19.347  0.00  0.00    +0.000 A 
ENDROOT
BRANCH   5   7
ATOM      7  N   UNL     1       2.423   6.762  19.654  0.00  0.00    +0.000 N 
ATOM      8  C   UNL     1       3.325   6.742  18.615  0.00  0.00    +0.000 C 
ATOM      9  O   UNL     1       3.589   7.626  17.812  0.00  0.00    +0.000 OA
ATOM     10  C   UNL     1       4.098   5.440  18.698  0.00  0.00    +0.000 C 
ATOM     11  C   UNL     1       4.525   4.874  17.347  0.00  0.00    +0.000 C 
ATOM     12  C   UNL     1       3.788   3.659  16.892  0.00  0.00    +0.000 C 
ATOM     13  C   UNL     1       2.982   2.935  17.673  0.00  0.00    +0.000 C 
ATOM     14  C   UNL     1       2.702   3.243  19.105  0.00  0.00    +0.000 C 
ATOM     15  C   UNL     1       3.271   4.562  19.629  0.00  0.00    +0.000 C 
ATOM     16  C   UNL     1       2.181   5.487  20.110  0.00  0.00    +0.000 C 
ATOM     17  O   UNL     1       1.234   5.100  20.785  0.00  0.00    +0.000 OA
ENDBRANCH   5   7
BRANCH   1  19
ATOM     18  O   UNL     1      -0.260  11.742  18.617  0.00  0.00    +0.000 OA
ATOM     19  C   UNL     1      -0.542  10.573  18.860  0.00  0.00    +0.000 C 
ATOM     20  N   UNL     1      -1.611   9.861  18.355  0.00  0.00    +0.000 N 
ATOM     21  H   UNL     1      -1.819   8.969  18.786  0.00  0.00    +0.000 HD
BRANCH  20  22
ATOM     22  C   UNL     1      -2.573  10.365  17.449  0.00  0.00    +0.000 A 
ATOM     23  C   UNL     1      -2.473  10.222  16.060  0.00  0.00    +0.000 A 
ATOM     24  C   UNL     1      -3.419  10.800  15.210  0.00  0.00    +0.000 A 
ATOM     25  C   UNL     1      -4.481  11.524  15.742  0.00  0.00    +0.000 A 
ATOM     26  C   UNL     1      -4.606  11.640  17.124  0.00  0.00    +0.000 A 
ATOM     27 CL   UNL     1      -5.918  12.538  17.786  0.00  0.00    +0.000 Cl
ATOM     28  C   UNL     1      -3.669  11.053  17.979  0.00  0.00    +0.000 A 
ENDBRANCH  20  22
ENDBRANCH   1  19
TORSDOF 3
ENDMDL
MODEL 8
REMARK VINA RESULT:      -8.2      8.176      9.879
REMARK  Name = 
REMARK  3 active torsions:
REMARK  status: ('A' for Active; 'I' for Inactive)
REMARK    1  A    between atoms: C_2  and  C_11
REMARK    2  A    between atoms: N_3  and  C_4
REMARK    3  A    between atoms: C_15  and  N_16
REMARK                            x       y       z     vdW  Elec       q    Type
REMARK                         _______ _______ _______ _____ _____    ______ ____
ROOT
ATOM      1  C   UNL     1       0.791  10.592  19.082  0.00  0.00    +0.000 A 
ATOM      2  C   UNL     1       1.533  11.708  18.701  0.00  0.00    +0.000 A 
ATOM      3  C   UNL     1       0.874  12.921  18.493  0.00  0.00    +0.000 A 
ATOM      4  C   UNL     1      -0.519  13.017  18.651  0.00  0.00    +0.000 A 
ATOM      5  C   UNL     1      -1.281  11.914  19.055  0.00  0.00    +0.000 A 
ATOM      6  C   UNL     1      -0.596  10.709  19.275  0.00  0.00    +0.000 A 
ENDROOT
BRANCH   5   7
ATOM      7  N   UNL     1      -2.705  11.923  19.119  0.00  0.00    +0.000 N 
ATOM      8  C   UNL     1      -3.460  12.354  20.186  0.00  0.00    +0.000 C 
ATOM      9  O   UNL     1      -3.106  12.570  21.337  0.00  0.00    +0.000 OA
ATOM     10  C   UNL     1      -4.849  12.678  19.671  0.00  0.00    +0.000 C 
ATOM     11  C   UNL     1      -5.970  12.414  20.671  0.00  0.00    +0.000 C 
ATOM     12  C   UNL     1      -6.837  11.236  20.375  0.00  0.00    +0.000 C 
ATOM     13  C   UNL     1      -6.837  10.579  19.212  0.00  0.00    +0.000 C 
ATOM     14  C   UNL     1      -5.966  10.925  18.053  0.00  0.00    +0.000 C 
ATOM     15  C   UNL     1      -4.916  12.009  18.304  0.00  0.00    +0.000 C 
ATOM     16  C   UNL     1      -3.517  11.487  18.097  0.00  0.00    +0.000 C 
ATOM     17  O   UNL     1      -3.210  10.768  17.152  0.00  0.00    +0.000 OA
ENDBRANCH   5   7
BRANCH   1  19
ATOM     18  O   UNL     1       1.317   8.661  20.258  0.00  0.00    +0.000 OA
ATOM     19  C   UNL     1       1.376   9.225  19.170  0.00  0.00    +0.000 C 
ATOM     20  N   UNL     1       1.971   8.743  18.021  0.00  0.00    +0.000 N 
ATOM     21  H   UNL     1       2.102   9.394  17.258  0.00  0.00    +0.000 HD
BRANCH  20  22
ATOM     22  C   UNL     1       2.617   7.490  17.901  0.00  0.00    +0.000 A 
ATOM     23  C   UNL     1       3.960   7.348  17.533  0.00  0.00    +0.000 A 
ATOM     24  C   UNL     1       4.527   6.082  17.363  0.00  0.00    +0.000 A 
ATOM     25  C   UNL     1       3.755   4.943  17.566  0.00  0.00    +0.000 A 
ATOM     26  C   UNL     1       2.428   5.077  17.966  0.00  0.00    +0.000 A 
ATOM     27 CL   UNL     1       1.470   3.668  18.215  0.00  0.00    +0.000 Cl
ATOM     28  C   UNL     1       1.860   6.341  18.149  0.00  0.00    +0.000 A 
ENDBRANCH  20  22
ENDBRANCH   1  19
TORSDOF 3
ENDMDL
MODEL 9
REMARK VINA RESULT:      -8.2      5.386      7.528
REMARK  Name = 
REMARK  3 active torsions:
REMARK  status: ('A' for Active; 'I' for Inactive)
REMARK    1  A    between atoms: C_2  and  C_11
REMARK    2  A    between atoms: N_3  and  C_4
REMARK    3  A    between atoms: C_15  and  N_16
REMARK                            x       y       z     vdW  Elec       q    Type
REMARK                         _______ _______ _______ _____ _____    ______ ____
ROOT
ATOM      1  C   UNL     1       2.495   7.687  18.792  0.00  0.00    +0.000 A 
ATOM      2  C   UNL     1       2.173   6.977  19.946  0.00  0.00    +0.000 A 
ATOM      3  C   UNL     1       2.788   5.745  20.178  0.00  0.00    +0.000 A 
ATOM      4  C   UNL     1       3.709   5.219  19.255  0.00  0.00    +0.000 A 
ATOM      5  C   UNL     1       4.064   5.926  18.100  0.00  0.00    +0.000 A 
ATOM      6  C   UNL     1       3.445   7.170  17.896  0.00  0.00    +0.000 A 
ENDROOT
BRANCH   5   7
ATOM      7  N   UNL     1       4.900   5.392  17.076  0.00  0.00    +0.000 N 
ATOM      8  C   UNL     1       6.044   5.978  16.584  0.00  0.00    +0.000 C 
ATOM      9  O   UNL     1       6.435   7.129  16.722  0.00  0.00    +0.000 OA
ATOM     10  C   UNL     1       6.874   4.893  15.925  0.00  0.00    +0.000 C 
ATOM     11  C   UNL     1       7.690   5.365  14.726  0.00  0.00    +0.000 C 
ATOM     12  C   UNL     1       7.205   4.906  13.392  0.00  0.00    +0.000 C 
ATOM     13  C   UNL     1       6.285   3.953  13.217  0.00  0.00    +0.000 C 
ATOM     14  C   UNL     1       5.611   3.223  14.328  0.00  0.00    +0.000 C 
ATOM     15  C   UNL     1       5.907   3.731  15.740  0.00  0.00    +0.000 C 
ATOM     16  C   UNL     1       4.654   4.198  16.438  0.00  0.00    +0.000 C 
ATOM     17  O   UNL     1       3.598   3.578  16.390  0.00  0.00    +0.000 OA
ENDBRANCH   5   7
BRANCH   1  19
ATOM     18  O   UNL     1       2.008   9.359  17.257  0.00  0.00    +0.000 OA
ATOM     19  C   UNL     1       1.777   8.926  18.381  0.00  0.00    +0.000 C 
ATOM     20  N   UNL     1       0.949   9.493  19.329  0.00  0.00    +0.000 N 
ATOM     21  H   UNL     1       1.000   9.123  20.270  0.00  0.00    +0.000 HD
BRANCH  20  22
ATOM     22  C   UNL     1       0.208  10.685  19.158  0.00  0.00    +0.000 A 
ATOM     23  C   UNL     1       0.734  11.960  19.397  0.00  0.00    +0.000 A 
ATOM     24  C   UNL     1      -0.065  13.100  19.277  0.00  0.00    +0.000 A 
ATOM     25  C   UNL     1      -1.401  12.976  18.910  0.00  0.00    +0.000 A 
ATOM     26  C   UNL     1      -1.922  11.713  18.637  0.00  0.00    +0.000 A 
ATOM     27 CL   UNL     1      -3.576  11.556  18.186  0.00  0.00    +0.000 Cl
ATOM     28  C   UNL     1      -1.123  10.571  18.744  0.00  0.00    +0.000 A 
ENDBRANCH  20  22
ENDBRANCH   1  19
TORSDOF 3
ENDMDL
