MODEL 1
REMARK VINA RESULT:      -7.8      0.000      0.000
REMARK  Name = 
REMARK  6 active torsions:
REMARK  status: ('A' for Active; 'I' for Inactive)
REMARK    1  A    between atoms: C_2  and  C_20
REMARK    2  A    between atoms: N_3  and  C_4
REMARK    3  A    between atoms: C_4  and  C_5
REMARK    4  A    between atoms: C_8  and  S_9
REMARK    5  A    between atoms: S_9  and  C_10
REMARK    6  A    between atoms: C_10  and  C_11
REMARK                            x       y       z     vdW  Elec       q    Type
REMARK                         _______ _______ _______ _____ _____    ______ ____
ROOT
ATOM      1  C   UNL     1       7.579   6.551  17.863  0.00  0.00    +0.000 A 
ATOM      2  N   UNL     1       7.082   7.350  16.941  0.00  0.00    +0.000 NA
ATOM      3  N   UNL     1       7.540   8.617  17.239  0.00  0.00    +0.000 NA
ATOM      4  C   UNL     1       8.290   8.508  18.318  0.00  0.00    +0.000 A 
ATOM      5  O   UNL     1       8.390   7.208  18.751  0.00  0.00    +0.000 OA
ENDROOT
BRANCH   1   6
ATOM      6  C   UNL     1       7.358   5.096  18.058  0.00  0.00    +0.000 C 
BRANCH   6   9
ATOM      7  O   UNL     1       4.723   4.740  17.240  0.00  0.00    +0.000 OA
ATOM      8  C   UNL     1       4.974   4.675  18.437  0.00  0.00    +0.000 C 
ATOM      9  N   UNL     1       6.242   4.849  18.955  0.00  0.00    +0.000 N 
ATOM     10  H   UNL     1       6.441   4.501  19.884  0.00  0.00    +0.000 HD
BRANCH   8  11
ATOM     11  C   UNL     1       3.897   4.375  19.423  0.00  0.00    +0.000 A 
ATOM     12  C   UNL     1       3.771   3.073  19.922  0.00  0.00    +0.000 A 
ATOM     13  C   UNL     1       2.754   2.769  20.833  0.00  0.00    +0.000 A 
ATOM     14  C   UNL     1       1.857   3.757  21.235  0.00  0.00    +0.000 A 
ATOM     15  C   UNL     1       1.970   5.051  20.726  0.00  0.00    +0.000 A 
ATOM     16  C   UNL     1       2.985   5.363  19.820  0.00  0.00    +0.000 A 
ENDBRANCH   8  11
ENDBRANCH   6   9
ENDBRANCH   1   6
BRANCH   4  17
ATOM     17  S   UNL     1       9.105   9.833  19.091  0.00  0.00    +0.000 S 
BRANCH  17  18
ATOM     18  C   UNL     1       8.751  11.176  17.913  0.00  0.00    +0.000 C 
BRANCH  18  19
ATOM     19  C   UNL     1       9.833  12.254  17.888  0.00  0.00    +0.000 C 
ATOM     20  O   UNL     1      11.001  12.008  17.567  0.00  0.00    +0.000 OA
ATOM     21  N   UNL     1       9.447  13.546  18.224  0.00  0.00    +0.000 N 
ATOM     22  C   UNL     1       8.104  13.986  18.612  0.00  0.00    +0.000 C 
ATOM     23  C   UNL     1       7.703  15.222  17.797  0.00  0.00    +0.000 C 
ATOM     24  O   UNL     1       8.669  16.274  17.954  0.00  0.00    +0.000 OA
ATOM     25  C   UNL     1       9.966  15.850  17.504  0.00  0.00    +0.000 C 
ATOM     26  C   UNL     1      10.450  14.616  18.274  0.00  0.00    +0.000 C 
ENDBRANCH  18  19
ENDBRANCH  17  18
ENDBRANCH   4  17
TORSDOF 6
ENDMDL
MODEL 2
REMARK VINA RESULT:      -7.7      2.591     10.097
REMARK  Name = 
REMARK  6 active torsions:
REMARK  status: ('A' for Active; 'I' for Inactive)
REMARK    1  A    between atoms: C_2  and  C_20
REMARK    2  A    between atoms: N_3  and  C_4
REMARK    3  A    between atoms: C_4  and  C_5
REMARK    4  A    between atoms: C_8  and  S_9
REMARK    5  A    between atoms: S_9  and  C_10
REMARK    6  A    between atoms: C_10  and  C_11
REMARK                            x       y       z     vdW  Elec       q    Type
REMARK                         _______ _______ _______ _____ _____    ______ ____
ROOT
ATOM      1  C   UNL     1       7.637   7.556  17.803  0.00  0.00    +0.000 A 
ATOM      2  N   UNL     1       6.726   8.052  16.992  0.00  0.00    +0.000 NA
ATOM      3  N   UNL     1       6.215   6.983  16.284  0.00  0.00    +0.000 NA
ATOM      4  C   UNL     1       6.843   5.907  16.712  0.00  0.00    +0.000 A 
ATOM      5  O   UNL     1       7.741   6.192  17.712  0.00  0.00    +0.000 OA
ENDROOT
BRANCH   1   6
ATOM      6  C   UNL     1       8.538   8.267  18.746  0.00  0.00    +0.000 C 
BRANCH   6   9
ATOM      7  O   UNL     1       9.399  10.406  20.301  0.00  0.00    +0.000 OA
ATOM      8  C   UNL     1       9.354  10.551  19.086  0.00  0.00    +0.000 C 
ATOM      9  N   UNL     1       8.930   9.564  18.220  0.00  0.00    +0.000 N 
ATOM     10  H   UNL     1       9.188   9.628  17.244  0.00  0.00    +0.000 HD
BRANCH   8  11
ATOM     11  C   UNL     1       9.788  11.832  18.458  0.00  0.00    +0.000 A 
ATOM     12  C   UNL     1       9.016  12.984  18.653  0.00  0.00    +0.000 A 
ATOM     13  C   UNL     1       9.396  14.190  18.055  0.00  0.00    +0.000 A 
ATOM     14  C   UNL     1      10.536  14.245  17.255  0.00  0.00    +0.000 A 
ATOM     15  C   UNL     1      11.298  13.095  17.046  0.00  0.00    +0.000 A 
ATOM     16  C   UNL     1      10.926  11.889  17.642  0.00  0.00    +0.000 A 
ENDBRANCH   8  11
ENDBRANCH   6   9
ENDBRANCH   1   6
BRANCH   4  17
ATOM     17  S   UNL     1       6.550   4.297  16.129  0.00  0.00    +0.000 S 
BRANCH  17  18
ATOM     18  C   UNL     1       4.862   4.017  16.752  0.00  0.00    +0.000 C 
BRANCH  18  19
ATOM     19  C   UNL     1       4.821   3.660  18.237  0.00  0.00    +0.000 C 
ATOM     20  O   UNL     1       5.724   3.984  19.017  0.00  0.00    +0.000 OA
ATOM     21  N   UNL     1       3.705   2.968  18.690  0.00  0.00    +0.000 N 
ATOM     22  C   UNL     1       2.559   2.530  17.888  0.00  0.00    +0.000 C 
ATOM     23  C   UNL     1       1.252   2.951  18.572  0.00  0.00    +0.000 C 
ATOM     24  O   UNL     1       1.186   2.435  19.911  0.00  0.00    +0.000 OA
ATOM     25  C   UNL     1       2.278   2.928  20.705  0.00  0.00    +0.000 C 
ATOM     26  C   UNL     1       3.631   2.546  20.094  0.00  0.00    +0.000 C 
ENDBRANCH  18  19
ENDBRANCH  17  18
ENDBRANCH   4  17
TORSDOF 6
ENDMDL
MODEL 3
REMARK VINA RESULT:      -7.6      6.162      8.768
REMARK  Name = 
REMARK  6 active torsions:
REMARK  status: ('A' for Active; 'I' for Inactive)
REMARK    1  A    between atoms: C_2  and  C_20
REMARK    2  A    between atoms: N_3  and  C_4
REMARK    3  A    between atoms: C_4  and  C_5
REMARK    4  A    between atoms: C_8  and  S_9
REMARK    5  A    between atoms: S_9  and  C_10
REMARK    6  A    between atoms: C_10  and  C_11
REMARK                            x       y       z     vdW  Elec       q    Type
REMARK                         _______ _______ _______ _____ _____    ______ ____
ROOT
ATOM      1  C   UNL     1       2.126   6.056  19.740  0.00  0.00    +0.000 A 
ATOM      2  N   UNL     1       1.963   5.505  20.925  0.00  0.00    +0.000 NA
ATOM      3  N   UNL     1       1.830   4.149  20.706  0.00  0.00    +0.000 NA
ATOM      4  C   UNL     1       1.925   3.962  19.404  0.00  0.00    +0.000 A 
ATOM      5  O   UNL     1       2.153   5.135  18.726  0.00  0.00    +0.000 OA
ENDROOT
BRANCH   1   6
ATOM      6  C   UNL     1       2.255   7.493  19.386  0.00  0.00    +0.000 C 
BRANCH   6   9
ATOM      7  O   UNL     1       0.709   9.712  18.736  0.00  0.00    +0.000 OA
ATOM      8  C   UNL     1       0.821   9.407  19.917  0.00  0.00    +0.000 C 
ATOM      9  N   UNL     1       1.574   8.336  20.354  0.00  0.00    +0.000 N 
ATOM     10  H   UNL     1       1.397   7.961  21.277  0.00  0.00    +0.000 HD
BRANCH   8  11
ATOM     11  C   UNL     1       0.114  10.187  20.972  0.00  0.00    +0.000 A 
ATOM     12  C   UNL     1      -0.214   9.560  22.180  0.00  0.00    +0.000 A 
ATOM     13  C   UNL     1      -0.896  10.271  23.174  0.00  0.00    +0.000 A 
ATOM     14  C   UNL     1      -1.261  11.599  22.958  0.00  0.00    +0.000 A 
ATOM     15  C   UNL     1      -0.950  12.220  21.749  0.00  0.00    +0.000 A 
ATOM     16  C   UNL     1      -0.267  11.518  20.755  0.00  0.00    +0.000 A 
ENDBRANCH   8  11
ENDBRANCH   6   9
ENDBRANCH   1   6
BRANCH   4  17
ATOM     17  S   UNL     1       1.826   2.414  18.621  0.00  0.00    +0.000 S 
BRANCH  17  18
ATOM     18  C   UNL     1       3.475   2.322  17.853  0.00  0.00    +0.000 C 
BRANCH  18  19
ATOM     19  C   UNL     1       4.552   3.052  18.653  0.00  0.00    +0.000 C 
ATOM     20  O   UNL     1       4.819   2.754  19.823  0.00  0.00    +0.000 OA
ATOM     21  N   UNL     1       5.247   4.064  18.002  0.00  0.00    +0.000 N 
ATOM     22  C   UNL     1       5.048   4.516  16.622  0.00  0.00    +0.000 C 
ATOM     23  C   UNL     1       6.397   4.582  15.895  0.00  0.00    +0.000 C 
ATOM     24  O   UNL     1       7.318   5.430  16.600  0.00  0.00    +0.000 OA
ATOM     25  C   UNL     1       7.557   4.934  17.928  0.00  0.00    +0.000 C 
ATOM     26  C   UNL     1       6.255   4.841  18.732  0.00  0.00    +0.000 C 
ENDBRANCH  18  19
ENDBRANCH  17  18
ENDBRANCH   4  17
TORSDOF 6
ENDMDL
MODEL 4
REMARK VINA RESULT:      -7.6      5.484      7.610
REMARK  Name = 
REMARK  6 active torsions:
REMARK  status: ('A' for Active; 'I' for Inactive)
REMARK    1  A    between atoms: C_2  and  C_20
REMARK    2  A    between atoms: N_3  and  C_4
REMARK    3  A    between atoms: C_4  and  C_5
REMARK    4  A    between atoms: C_8  and  S_9
REMARK    5  A    between atoms: S_9  and  C_10
REMARK    6  A    between atoms: C_10  and  C_11
REMARK                            x       y       z     vdW  Elec       q    Type
REMARK                         _______ _______ _______ _____ _____    ______ ____
ROOT
ATOM      1  C   UNL     1       5.410   4.386  18.944  0.00  0.00    +0.000 A 
ATOM      2  N   UNL     1       4.978   3.218  19.374  0.00  0.00    +0.000 NA
ATOM      3  N   UNL     1       3.727   3.443  19.913  0.00  0.00    +0.000 NA
ATOM      4  C   UNL     1       3.478   4.730  19.774  0.00  0.00    +0.000 A 
ATOM      5  O   UNL     1       4.495   5.389  19.127  0.00  0.00    +0.000 OA
ENDROOT
BRANCH   1   6
ATOM      6  C   UNL     1       6.719   4.732  18.334  0.00  0.00    +0.000 C 
BRANCH   6   9
ATOM      7  O   UNL     1       6.257   6.480  16.220  0.00  0.00    +0.000 OA
ATOM      8  C   UNL     1       6.526   5.313  15.962  0.00  0.00    +0.000 C 
ATOM      9  N   UNL     1       6.760   4.358  16.930  0.00  0.00    +0.000 N 
ATOM     10  H   UNL     1       7.255   3.514  16.673  0.00  0.00    +0.000 HD
BRANCH   8  11
ATOM     11  C   UNL     1       6.639   4.855  14.548  0.00  0.00    +0.000 A 
ATOM     12  C   UNL     1       5.766   3.866  14.078  0.00  0.00    +0.000 A 
ATOM     13  C   UNL     1       5.871   3.410  12.760  0.00  0.00    +0.000 A 
ATOM     14  C   UNL     1       6.852   3.930  11.916  0.00  0.00    +0.000 A 
ATOM     15  C   UNL     1       7.733   4.903  12.387  0.00  0.00    +0.000 A 
ATOM     16  C   UNL     1       7.631   5.365  13.700  0.00  0.00    +0.000 A 
ENDBRANCH   8  11
ENDBRANCH   6   9
ENDBRANCH   1   6
BRANCH   4  17
ATOM     17  S   UNL     1       2.017   5.513  20.294  0.00  0.00    +0.000 S 
BRANCH  17  18
ATOM     18  C   UNL     1       2.320   7.211  19.708  0.00  0.00    +0.000 C 
BRANCH  18  19
ATOM     19  C   UNL     1       1.477   8.257  20.437  0.00  0.00    +0.000 C 
ATOM     20  O   UNL     1       1.153   8.131  21.623  0.00  0.00    +0.000 OA
ATOM     21  N   UNL     1       1.101   9.381  19.713  0.00  0.00    +0.000 N 
ATOM     22  C   UNL     1       1.420   9.669  18.312  0.00  0.00    +0.000 C 
ATOM     23  C   UNL     1       1.984  11.090  18.185  0.00  0.00    +0.000 C 
ATOM     24  O   UNL     1       1.067  12.055  18.726  0.00  0.00    +0.000 OA
ATOM     25  C   UNL     1       0.819  11.801  20.119  0.00  0.00    +0.000 C 
ATOM     26  C   UNL     1       0.244  10.396  20.338  0.00  0.00    +0.000 C 
ENDBRANCH  18  19
ENDBRANCH  17  18
ENDBRANCH   4  17
TORSDOF 6
ENDMDL
MODEL 5
REMARK VINA RESULT:      -7.5      2.165     10.163
REMARK  Name = 
REMARK  6 active torsions:
REMARK  status: ('A' for Active; 'I' for Inactive)
REMARK    1  A    between atoms: C_2  and  C_20
REMARK    2  A    between atoms: N_3  and  C_4
REMARK    3  A    between atoms: C_4  and  C_5
REMARK    4  A    between atoms: C_8  and  S_9
REMARK    5  A    between atoms: S_9  and  C_10
REMARK    6  A    between atoms: C_10  and  C_11
REMARK                            x       y       z     vdW  Elec       q    Type
REMARK                         _______ _______ _______ _____ _____    ______ ____
ROOT
ATOM      1  C   UNL     1       8.268   8.260  18.357  0.00  0.00    +0.000 A 
ATOM      2  N   UNL     1       7.737   8.477  17.172  0.00  0.00    +0.000 NA
ATOM      3  N   UNL     1       7.245   7.262  16.739  0.00  0.00    +0.000 NA
ATOM      4  C   UNL     1       7.505   6.386  17.689  0.00  0.00    +0.000 A 
ATOM      5  O   UNL     1       8.125   6.962  18.772  0.00  0.00    +0.000 OA
ENDROOT
BRANCH   1   6
ATOM      6  C   UNL     1       8.991   9.205  19.246  0.00  0.00    +0.000 C 
BRANCH   6   9
ATOM      7  O   UNL     1       9.643  11.636  20.430  0.00  0.00    +0.000 OA
ATOM      8  C   UNL     1       9.731  11.540  19.212  0.00  0.00    +0.000 C 
ATOM      9  N   UNL     1       9.420  10.387  18.519  0.00  0.00    +0.000 N 
ATOM     10  H   UNL     1       9.782  10.269  17.582  0.00  0.00    +0.000 HD
BRANCH   8  11
ATOM     11  C   UNL     1      10.212  12.688  18.393  0.00  0.00    +0.000 A 
ATOM     12  C   UNL     1       9.643  13.953  18.588  0.00  0.00    +0.000 A 
ATOM     13  C   UNL     1      10.068  15.038  17.814  0.00  0.00    +0.000 A 
ATOM     14  C   UNL     1      11.048  14.860  16.839  0.00  0.00    +0.000 A 
ATOM     15  C   UNL     1      11.604  13.598  16.631  0.00  0.00    +0.000 A 
ATOM     16  C   UNL     1      11.188  12.512  17.402  0.00  0.00    +0.000 A 
ENDBRANCH   8  11
ENDBRANCH   6   9
ENDBRANCH   1   6
BRANCH   4  17
ATOM     17  S   UNL     1       7.077   4.703  17.622  0.00  0.00    +0.000 S 
BRANCH  17  18
ATOM     18  C   UNL     1       5.636   4.679  18.736  0.00  0.00    +0.000 C 
BRANCH  18  19
ATOM     19  C   UNL     1       4.351   4.225  18.046  0.00  0.00    +0.000 C 
ATOM     20  O   UNL     1       4.353   3.715  16.920  0.00  0.00    +0.000 OA
ATOM     21  N   UNL     1       3.164   4.388  18.750  0.00  0.00    +0.000 N 
ATOM     22  C   UNL     1       3.011   4.963  20.089  0.00  0.00    +0.000 C 
ATOM     23  C   UNL     1       2.156   4.036  20.961  0.00  0.00    +0.000 C 
ATOM     24  O   UNL     1       0.882   3.785  20.346  0.00  0.00    +0.000 OA
ATOM     25  C   UNL     1       1.047   3.157  19.064  0.00  0.00    +0.000 C 
ATOM     26  C   UNL     1       1.889   4.024  18.121  0.00  0.00    +0.000 C 
ENDBRANCH  18  19
ENDBRANCH  17  18
ENDBRANCH   4  17
TORSDOF 6
ENDMDL
MODEL 6
REMARK VINA RESULT:      -7.5      2.269     10.368
REMARK  Name = 
REMARK  6 active torsions:
REMARK  status: ('A' for Active; 'I' for Inactive)
REMARK    1  A    between atoms: C_2  and  C_20
REMARK    2  A    between atoms: N_3  and  C_4
REMARK    3  A    between atoms: C_4  and  C_5
REMARK    4  A    between atoms: C_8  and  S_9
REMARK    5  A    between atoms: S_9  and  C_10
REMARK    6  A    between atoms: C_10  and  C_11
REMARK                            x       y       z     vdW  Elec       q    Type
REMARK                         _______ _______ _______ _____ _____    ______ ____
ROOT
ATOM      1  C   UNL     1       8.284   8.371  18.389  0.00  0.00    +0.000 A 
ATOM      2  N   UNL     1       7.701   8.586  17.227  0.00  0.00    +0.000 NA
ATOM      3  N   UNL     1       7.289   7.352  16.766  0.00  0.00    +0.000 NA
ATOM      4  C   UNL     1       7.643   6.467  17.677  0.00  0.00    +0.000 A 
ATOM      5  O   UNL     1       8.251   7.053  18.762  0.00  0.00    +0.000 OA
ENDROOT
BRANCH   1   6
ATOM      6  C   UNL     1       8.960   9.339  19.290  0.00  0.00    +0.000 C 
BRANCH   6   9
ATOM      7  O   UNL     1      10.402  11.439  20.406  0.00  0.00    +0.000 OA
ATOM      8  C   UNL     1      10.124  11.493  19.214  0.00  0.00    +0.000 C 
ATOM      9  N   UNL     1       9.401  10.516  18.560  0.00  0.00    +0.000 N 
ATOM     10  H   UNL     1       9.455  10.463  17.551  0.00  0.00    +0.000 HD
BRANCH   8  11
ATOM     11  C   UNL     1      10.582  12.640  18.380  0.00  0.00    +0.000 A 
ATOM     12  C   UNL     1      11.812  12.554  17.717  0.00  0.00    +0.000 A 
ATOM     13  C   UNL     1      12.268  13.628  16.946  0.00  0.00    +0.000 A 
ATOM     14  C   UNL     1      11.504  14.790  16.846  0.00  0.00    +0.000 A 
ATOM     15  C   UNL     1      10.286  14.885  17.519  0.00  0.00    +0.000 A 
ATOM     16  C   UNL     1       9.824  13.815  18.287  0.00  0.00    +0.000 A 
ENDBRANCH   8  11
ENDBRANCH   6   9
ENDBRANCH   1   6
BRANCH   4  17
ATOM     17  S   UNL     1       7.342   4.760  17.563  0.00  0.00    +0.000 S 
BRANCH  17  18
ATOM     18  C   UNL     1       5.522   4.746  17.489  0.00  0.00    +0.000 C 
BRANCH  18  19
ATOM     19  C   UNL     1       4.866   4.541  18.853  0.00  0.00    +0.000 C 
ATOM     20  O   UNL     1       5.037   5.329  19.790  0.00  0.00    +0.000 OA
ATOM     21  N   UNL     1       4.041   3.433  18.998  0.00  0.00    +0.000 N 
ATOM     22  C   UNL     1       3.738   2.426  17.977  0.00  0.00    +0.000 C 
ATOM     23  C   UNL     1       2.222   2.211  17.889  0.00  0.00    +0.000 C 
ATOM     24  O   UNL     1       1.682   1.843  19.169  0.00  0.00    +0.000 OA
ATOM     25  C   UNL     1       1.926   2.871  20.143  0.00  0.00    +0.000 C 
ATOM     26  C   UNL     1       3.426   3.148  20.300  0.00  0.00    +0.000 C 
ENDBRANCH  18  19
ENDBRANCH  17  18
ENDBRANCH   4  17
TORSDOF 6
ENDMDL
MODEL 7
REMARK VINA RESULT:      -7.5      2.603     10.009
REMARK  Name = 
REMARK  6 active torsions:
REMARK  status: ('A' for Active; 'I' for Inactive)
REMARK    1  A    between atoms: C_2  and  C_20
REMARK    2  A    between atoms: N_3  and  C_4
REMARK    3  A    between atoms: C_4  and  C_5
REMARK    4  A    between atoms: C_8  and  S_9
REMARK    5  A    between atoms: S_9  and  C_10
REMARK    6  A    between atoms: C_10  and  C_11
REMARK                            x       y       z     vdW  Elec       q    Type
REMARK                         _______ _______ _______ _____ _____    ______ ____
ROOT
ATOM      1  C   UNL     1       7.689   7.458  17.679  0.00  0.00    +0.000 A 
ATOM      2  N   UNL     1       8.180   7.039  16.530  0.00  0.00    +0.000 NA
ATOM      3  N   UNL     1       7.209   6.238  15.964  0.00  0.00    +0.000 NA
ATOM      4  C   UNL     1       6.190   6.225  16.800  0.00  0.00    +0.000 A 
ATOM      5  O   UNL     1       6.412   7.014  17.902  0.00  0.00    +0.000 OA
ENDROOT
BRANCH   1   6
ATOM      6  C   UNL     1       8.333   8.296  18.722  0.00  0.00    +0.000 C 
BRANCH   6   9
ATOM      7  O   UNL     1       9.297  10.420  20.238  0.00  0.00    +0.000 OA
ATOM      8  C   UNL     1       9.256  10.545  19.020  0.00  0.00    +0.000 C 
ATOM      9  N   UNL     1       8.785   9.563  18.173  0.00  0.00    +0.000 N 
ATOM     10  H   UNL     1       9.043   9.598  17.195  0.00  0.00    +0.000 HD
BRANCH   8  11
ATOM     11  C   UNL     1       9.748  11.793  18.369  0.00  0.00    +0.000 A 
ATOM     12  C   UNL     1      10.929  11.753  17.619  0.00  0.00    +0.000 A 
ATOM     13  C   UNL     1      11.417  12.918  17.019  0.00  0.00    +0.000 A 
ATOM     14  C   UNL     1      10.734  14.124  17.176  0.00  0.00    +0.000 A 
ATOM     15  C   UNL     1       9.566  14.170  17.937  0.00  0.00    +0.000 A 
ATOM     16  C   UNL     1       9.073  13.010  18.536  0.00  0.00    +0.000 A 
ENDBRANCH   8  11
ENDBRANCH   6   9
ENDBRANCH   1   6
BRANCH   4  17
ATOM     17  S   UNL     1       4.709   5.356  16.535  0.00  0.00    +0.000 S 
BRANCH  17  18
ATOM     18  C   UNL     1       3.892   5.586  18.146  0.00  0.00    +0.000 C 
BRANCH  18  19
ATOM     19  C   UNL     1       4.209   4.474  19.144  0.00  0.00    +0.000 C 
ATOM     20  O   UNL     1       5.354   4.276  19.568  0.00  0.00    +0.000 OA
ATOM     21  N   UNL     1       3.145   3.696  19.583  0.00  0.00    +0.000 N 
ATOM     22  C   UNL     1       1.742   3.823  19.180  0.00  0.00    +0.000 C 
ATOM     23  C   UNL     1       0.842   3.855  20.422  0.00  0.00    +0.000 C 
ATOM     24  O   UNL     1       1.053   2.691  21.237  0.00  0.00    +0.000 OA
ATOM     25  C   UNL     1       2.418   2.619  21.683  0.00  0.00    +0.000 C 
ATOM     26  C   UNL     1       3.391   2.576  20.499  0.00  0.00    +0.000 C 
ENDBRANCH  18  19
ENDBRANCH  17  18
ENDBRANCH   4  17
TORSDOF 6
ENDMDL
MODEL 8
REMARK VINA RESULT:      -7.4      5.927      7.879
REMARK  Name = 
REMARK  6 active torsions:
REMARK  status: ('A' for Active; 'I' for Inactive)
REMARK    1  A    between atoms: C_2  and  C_20
REMARK    2  A    between atoms: N_3  and  C_4
REMARK    3  A    between atoms: C_4  and  C_5
REMARK    4  A    between atoms: C_8  and  S_9
REMARK    5  A    between atoms: S_9  and  C_10
REMARK    6  A    between atoms: C_10  and  C_11
REMARK                            x       y       z     vdW  Elec       q    Type
REMARK                         _______ _______ _______ _____ _____    ______ ____
ROOT
ATOM      1  C   UNL     1       5.528   4.319  18.867  0.00  0.00    +0.000 A 
ATOM      2  N   UNL     1       5.233   3.208  19.509  0.00  0.00    +0.000 NA
ATOM      3  N   UNL     1       3.930   3.347  19.944  0.00  0.00    +0.000 NA
ATOM      4  C   UNL     1       3.516   4.530  19.535  0.00  0.00    +0.000 A 
ATOM      5  O   UNL     1       4.474   5.192  18.806  0.00  0.00    +0.000 OA
ENDROOT
BRANCH   1   6
ATOM      6  C   UNL     1       6.815   4.729  18.249  0.00  0.00    +0.000 C 
BRANCH   6   9
ATOM      7  O   UNL     1       6.170   6.391  16.114  0.00  0.00    +0.000 OA
ATOM      8  C   UNL     1       6.543   5.250  15.871  0.00  0.00    +0.000 C 
ATOM      9  N   UNL     1       6.875   4.337  16.851  0.00  0.00    +0.000 N 
ATOM     10  H   UNL     1       7.443   3.538  16.601  0.00  0.00    +0.000 HD
BRANCH   8  11
ATOM     11  C   UNL     1       6.682   4.782  14.463  0.00  0.00    +0.000 A 
ATOM     12  C   UNL     1       7.653   5.367  13.641  0.00  0.00    +0.000 A 
ATOM     13  C   UNL     1       7.784   4.954  12.311  0.00  0.00    +0.000 A 
ATOM     14  C   UNL     1       6.941   3.969  11.798  0.00  0.00    +0.000 A 
ATOM     15  C   UNL     1       5.962   3.396  12.610  0.00  0.00    +0.000 A 
ATOM     16  C   UNL     1       5.828   3.801  13.939  0.00  0.00    +0.000 A 
ENDBRANCH   8  11
ENDBRANCH   6   9
ENDBRANCH   1   6
BRANCH   4  17
ATOM     17  S   UNL     1       1.930   5.174  19.829  0.00  0.00    +0.000 S 
BRANCH  17  18
ATOM     18  C   UNL     1       2.339   6.903  20.227  0.00  0.00    +0.000 C 
BRANCH  18  19
ATOM     19  C   UNL     1       2.025   7.873  19.089  0.00  0.00    +0.000 C 
ATOM     20  O   UNL     1       2.314   7.623  17.913  0.00  0.00    +0.000 OA
ATOM     21  N   UNL     1       1.372   9.052  19.425  0.00  0.00    +0.000 N 
ATOM     22  C   UNL     1       0.959   9.474  20.767  0.00  0.00    +0.000 C 
ATOM     23  C   UNL     1      -0.508   9.920  20.746  0.00  0.00    +0.000 C 
ATOM     24  O   UNL     1      -0.712  10.963  19.779  0.00  0.00    +0.000 OA
ATOM     25  C   UNL     1      -0.369  10.512  18.458  0.00  0.00    +0.000 C 
ATOM     26  C   UNL     1       1.091  10.050  18.387  0.00  0.00    +0.000 C 
ENDBRANCH  18  19
ENDBRANCH  17  18
ENDBRANCH   4  17
TORSDOF 6
ENDMDL
MODEL 9
REMARK VINA RESULT:      -7.4      2.113      2.339
REMARK  Name = 
REMARK  6 active torsions:
REMARK  status: ('A' for Active; 'I' for Inactive)
REMARK    1  A    between atoms: C_2  and  C_20
REMARK    2  A    between atoms: N_3  and  C_4
REMARK    3  A    between atoms: C_4  and  C_5
REMARK    4  A    between atoms: C_8  and  S_9
REMARK    5  A    between atoms: S_9  and  C_10
REMARK    6  A    between atoms: C_10  and  C_11
REMARK                            x       y       z     vdW  Elec       q    Type
REMARK                         _______ _______ _______ _____ _____    ______ ____
ROOT
ATOM      1  C   UNL     1       7.177   5.761  17.658  0.00  0.00    +0.000 A 
ATOM      2  N   UNL     1       7.898   5.792  18.759  0.00  0.00    +0.000 NA
ATOM      3  N   UNL     1       8.332   7.094  18.902  0.00  0.00    +0.000 NA
ATOM      4  C   UNL     1       7.844   7.772  17.882  0.00  0.00    +0.000 A 
ATOM      5  O   UNL     1       7.063   6.991  17.065  0.00  0.00    +0.000 OA
ENDROOT
BRANCH   1   6
ATOM      6  C   UNL     1       6.521   4.602  17.001  0.00  0.00    +0.000 C 
BRANCH   6   9
ATOM      7  O   UNL     1       3.967   5.703  17.040  0.00  0.00    +0.000 OA
ATOM      8  C   UNL     1       4.187   4.717  17.734  0.00  0.00    +0.000 C 
ATOM      9  N   UNL     1       5.418   4.098  17.802  0.00  0.00    +0.000 N 
ATOM     10  H   UNL     1       5.468   3.146  18.142  0.00  0.00    +0.000 HD
BRANCH   8  11
ATOM     11  C   UNL     1       3.099   4.104  18.547  0.00  0.00    +0.000 A 
ATOM     12  C   UNL     1       2.072   3.406  17.900  0.00  0.00    +0.000 A 
ATOM     13  C   UNL     1       1.031   2.842  18.646  0.00  0.00    +0.000 A 
ATOM     14  C   UNL     1       1.008   2.985  20.032  0.00  0.00    +0.000 A 
ATOM     15  C   UNL     1       2.021   3.694  20.678  0.00  0.00    +0.000 A 
ATOM     16  C   UNL     1       3.064   4.256  19.940  0.00  0.00    +0.000 A 
ENDBRANCH   8  11
ENDBRANCH   6   9
ENDBRANCH   1   6
BRANCH   4  17
ATOM     17  S   UNL     1       8.104   9.469  17.611  0.00  0.00    +0.000 S 
BRANCH  17  18
ATOM     18  C   UNL     1       9.100   9.893  19.075  0.00  0.00    +0.000 C 
BRANCH  18  19
ATOM     19  C   UNL     1      10.050  11.065  18.836  0.00  0.00    +0.000 C 
ATOM     20  O   UNL     1      10.566  11.280  17.734  0.00  0.00    +0.000 OA
ATOM     21  N   UNL     1      10.300  11.906  19.914  0.00  0.00    +0.000 N 
ATOM     22  C   UNL     1       9.753  11.782  21.268  0.00  0.00    +0.000 C 
ATOM     23  C   UNL     1       9.174  13.128  21.723  0.00  0.00    +0.000 C 
ATOM     24  O   UNL     1      10.167  14.164  21.647  0.00  0.00    +0.000 OA
ATOM     25  C   UNL     1      10.643  14.321  20.300  0.00  0.00    +0.000 C 
ATOM     26  C   UNL     1      11.247  13.018  19.765  0.00  0.00    +0.000 C 
ENDBRANCH  18  19
ENDBRANCH  17  18
ENDBRANCH   4  17
TORSDOF 6
ENDMDL
