MODEL 1
REMARK VINA RESULT:      -7.9      0.000      0.000
REMARK  Name = 
REMARK  3 active torsions:
REMARK  status: ('A' for Active; 'I' for Inactive)
REMARK    1  A    between atoms: C_7  and  C_8
REMARK    2  A    between atoms: C_8  and  S_9
REMARK    3  A    between atoms: S_9  and  C_10
REMARK                            x       y       z     vdW  Elec       q    Type
REMARK                         _______ _______ _______ _____ _____    ______ ____
ROOT
ATOM      1  C   UNL     1       5.484   4.796  17.906  0.00  0.00    +0.000 A 
ATOM      2  N   UNL     1       4.712   3.816  17.363  0.00  0.00    +0.000 NA
ATOM      3  N   UNL     1       4.844   3.446  16.063  0.00  0.00    +0.000 NA
ATOM      4  C   UNL     1       5.779   4.122  15.341  0.00  0.00    +0.000 A 
ATOM      5  C   UNL     1       6.527   5.104  15.966  0.00  0.00    +0.000 A 
ATOM      6  N   UNL     1       6.433   5.492  17.246  0.00  0.00    +0.000 NA
ATOM      7  N   UNL     1       7.386   5.632  15.047  0.00  0.00    +0.000 N 
ATOM      8  C   UNL     1       7.227   5.010  13.827  0.00  0.00    +0.000 A 
ATOM      9  C   UNL     1       7.902   5.228  12.620  0.00  0.00    +0.000 A 
ATOM     10  C   UNL     1       7.537   4.443  11.527  0.00  0.00    +0.000 A 
ATOM     11  C   UNL     1       6.532   3.487  11.630  0.00  0.00    +0.000 A 
ATOM     12  C   UNL     1       5.860   3.282  12.847  0.00  0.00    +0.000 A 
ATOM     13  C   UNL     1       6.211   4.052  13.980  0.00  0.00    +0.000 A 
ATOM     14  H   UNL     1       8.040   6.373  15.247  0.00  0.00    +0.000 HD
ENDROOT
BRANCH   1  15
ATOM     15  S   UNL     1       5.156   5.400  19.552  0.00  0.00    +0.000 S 
BRANCH  15  16
ATOM     16  C   UNL     1       3.397   5.873  19.468  0.00  0.00    +0.000 C 
BRANCH  16  23
ATOM     17 CL   UNL     1       1.339   4.483  17.497  0.00  0.00    +0.000 Cl
ATOM     18  C   UNL     1       1.599   4.048  19.148  0.00  0.00    +0.000 A 
ATOM     19  C   UNL     1       0.848   2.976  19.653  0.00  0.00    +0.000 A 
ATOM     20  C   UNL     1       1.007   2.561  20.974  0.00  0.00    +0.000 A 
ATOM     21  C   UNL     1       1.918   3.218  21.794  0.00  0.00    +0.000 A 
ATOM     22  C   UNL     1       2.666   4.290  21.294  0.00  0.00    +0.000 A 
ATOM     23  C   UNL     1       2.520   4.731  19.962  0.00  0.00    +0.000 A 
ENDBRANCH  16  23
ENDBRANCH  15  16
ENDBRANCH   1  15
TORSDOF 3
ENDMDL
MODEL 2
REMARK VINA RESULT:      -7.9      5.177      8.649
REMARK  Name = 
REMARK  3 active torsions:
REMARK  status: ('A' for Active; 'I' for Inactive)
REMARK    1  A    between atoms: C_7  and  C_8
REMARK    2  A    between atoms: C_8  and  S_9
REMARK    3  A    between atoms: S_9  and  C_10
REMARK                            x       y       z     vdW  Elec       q    Type
REMARK                         _______ _______ _______ _____ _____    ______ ____
ROOT
ATOM      1  C   UNL     1       2.201   8.244  18.658  0.00  0.00    +0.000 A 
ATOM      2  N   UNL     1       1.666   9.272  17.943  0.00  0.00    +0.000 NA
ATOM      3  N   UNL     1       0.814  10.163  18.511  0.00  0.00    +0.000 NA
ATOM      4  C   UNL     1       0.520   9.957  19.824  0.00  0.00    +0.000 A 
ATOM      5  C   UNL     1       1.107   8.891  20.483  0.00  0.00    +0.000 A 
ATOM      6  N   UNL     1       1.958   7.996  19.961  0.00  0.00    +0.000 NA
ATOM      7  N   UNL     1       0.663   8.893  21.772  0.00  0.00    +0.000 N 
ATOM      8  C   UNL     1      -0.200   9.946  21.982  0.00  0.00    +0.000 A 
ATOM      9  C   UNL     1      -0.875  10.328  23.148  0.00  0.00    +0.000 A 
ATOM     10  C   UNL     1      -1.696  11.454  23.078  0.00  0.00    +0.000 A 
ATOM     11  C   UNL     1      -1.845  12.163  21.892  0.00  0.00    +0.000 A 
ATOM     12  C   UNL     1      -1.165  11.767  20.728  0.00  0.00    +0.000 A 
ATOM     13  C   UNL     1      -0.316  10.636  20.763  0.00  0.00    +0.000 A 
ATOM     14  H   UNL     1       0.937   8.212  22.464  0.00  0.00    +0.000 HD
ENDROOT
BRANCH   1  15
ATOM     15  S   UNL     1       3.155   6.976  17.844  0.00  0.00    +0.000 S 
BRANCH  15  16
ATOM     16  C   UNL     1       3.499   5.797  19.192  0.00  0.00    +0.000 C 
BRANCH  16  23
ATOM     17 CL   UNL     1       4.257   3.699  16.939  0.00  0.00    +0.000 Cl
ATOM     18  C   UNL     1       2.946   3.546  18.054  0.00  0.00    +0.000 A 
ATOM     19  C   UNL     1       2.164   2.385  17.967  0.00  0.00    +0.000 A 
ATOM     20  C   UNL     1       1.093   2.185  18.836  0.00  0.00    +0.000 A 
ATOM     21  C   UNL     1       0.803   3.149  19.798  0.00  0.00    +0.000 A 
ATOM     22  C   UNL     1       1.581   4.309  19.885  0.00  0.00    +0.000 A 
ATOM     23  C   UNL     1       2.666   4.535  19.014  0.00  0.00    +0.000 A 
ENDBRANCH  16  23
ENDBRANCH  15  16
ENDBRANCH   1  15
TORSDOF 3
ENDMDL
MODEL 3
REMARK VINA RESULT:      -7.8      4.723      8.124
REMARK  Name = 
REMARK  3 active torsions:
REMARK  status: ('A' for Active; 'I' for Inactive)
REMARK    1  A    between atoms: C_7  and  C_8
REMARK    2  A    between atoms: C_8  and  S_9
REMARK    3  A    between atoms: S_9  and  C_10
REMARK                            x       y       z     vdW  Elec       q    Type
REMARK                         _______ _______ _______ _____ _____    ______ ____
ROOT
ATOM      1  C   UNL     1       2.629   7.364  18.540  0.00  0.00    +0.000 A 
ATOM      2  N   UNL     1       2.059   8.368  17.820  0.00  0.00    +0.000 NA
ATOM      3  N   UNL     1       1.251   9.290  18.404  0.00  0.00    +0.000 NA
ATOM      4  C   UNL     1       1.038   9.139  19.739  0.00  0.00    +0.000 A 
ATOM      5  C   UNL     1       1.656   8.094  20.402  0.00  0.00    +0.000 A 
ATOM      6  N   UNL     1       2.465   7.169  19.865  0.00  0.00    +0.000 NA
ATOM      7  N   UNL     1       1.292   8.151  21.716  0.00  0.00    +0.000 N 
ATOM      8  C   UNL     1       0.452   9.220  21.937  0.00  0.00    +0.000 A 
ATOM      9  C   UNL     1      -0.146   9.655  23.125  0.00  0.00    +0.000 A 
ATOM     10  C   UNL     1      -0.960  10.786  23.061  0.00  0.00    +0.000 A 
ATOM     11  C   UNL     1      -1.177  11.450  21.860  0.00  0.00    +0.000 A 
ATOM     12  C   UNL     1      -0.574  11.000  20.673  0.00  0.00    +0.000 A 
ATOM     13  C   UNL     1       0.267   9.863  20.700  0.00  0.00    +0.000 A 
ATOM     14  H   UNL     1       1.603   7.495  22.416  0.00  0.00    +0.000 HD
ENDROOT
BRANCH   1  15
ATOM     15  S   UNL     1       3.521   6.055  17.720  0.00  0.00    +0.000 S 
BRANCH  15  16
ATOM     16  C   UNL     1       2.296   4.705  17.660  0.00  0.00    +0.000 C 
BRANCH  16  23
ATOM     17 CL   UNL     1       4.972   3.408  18.761  0.00  0.00    +0.000 Cl
ATOM     18  C   UNL     1       3.434   3.355  19.545  0.00  0.00    +0.000 A 
ATOM     19  C   UNL     1       3.369   2.699  20.783  0.00  0.00    +0.000 A 
ATOM     20  C   UNL     1       2.165   2.621  21.481  0.00  0.00    +0.000 A 
ATOM     21  C   UNL     1       1.021   3.201  20.941  0.00  0.00    +0.000 A 
ATOM     22  C   UNL     1       1.083   3.853  19.705  0.00  0.00    +0.000 A 
ATOM     23  C   UNL     1       2.288   3.941  18.978  0.00  0.00    +0.000 A 
ENDBRANCH  16  23
ENDBRANCH  15  16
ENDBRANCH   1  15
TORSDOF 3
ENDMDL
MODEL 4
REMARK VINA RESULT:      -7.8      3.776      6.408
REMARK  Name = 
REMARK  3 active torsions:
REMARK  status: ('A' for Active; 'I' for Inactive)
REMARK    1  A    between atoms: C_7  and  C_8
REMARK    2  A    between atoms: C_8  and  S_9
REMARK    3  A    between atoms: S_9  and  C_10
REMARK                            x       y       z     vdW  Elec       q    Type
REMARK                         _______ _______ _______ _____ _____    ______ ____
ROOT
ATOM      1  C   UNL     1       4.346   5.844  18.410  0.00  0.00    +0.000 A 
ATOM      2  N   UNL     1       4.137   6.572  17.279  0.00  0.00    +0.000 NA
ATOM      3  N   UNL     1       3.244   7.595  17.248  0.00  0.00    +0.000 NA
ATOM      4  C   UNL     1       2.568   7.834  18.405  0.00  0.00    +0.000 A 
ATOM      5  C   UNL     1       2.839   7.052  19.514  0.00  0.00    +0.000 A 
ATOM      6  N   UNL     1       3.717   6.040  19.587  0.00  0.00    +0.000 NA
ATOM      7  N   UNL     1       2.046   7.478  20.538  0.00  0.00    +0.000 N 
ATOM      8  C   UNL     1       1.260   8.534  20.131  0.00  0.00    +0.000 A 
ATOM      9  C   UNL     1       0.318   9.276  20.853  0.00  0.00    +0.000 A 
ATOM     10  C   UNL     1      -0.340  10.308  20.184  0.00  0.00    +0.000 A 
ATOM     11  C   UNL     1      -0.076  10.583  18.847  0.00  0.00    +0.000 A 
ATOM     12  C   UNL     1       0.870   9.828  18.133  0.00  0.00    +0.000 A 
ATOM     13  C   UNL     1       1.564   8.780  18.780  0.00  0.00    +0.000 A 
ATOM     14  H   UNL     1       2.045   7.067  21.459  0.00  0.00    +0.000 HD
ENDROOT
BRANCH   1  15
ATOM     15  S   UNL     1       5.371   4.385  18.370  0.00  0.00    +0.000 S 
BRANCH  15  16
ATOM     16  C   UNL     1       4.163   3.047  18.097  0.00  0.00    +0.000 C 
BRANCH  16  23
ATOM     17 CL   UNL     1       1.232   4.112  17.525  0.00  0.00    +0.000 Cl
ATOM     18  C   UNL     1       1.795   3.478  19.031  0.00  0.00    +0.000 A 
ATOM     19  C   UNL     1       0.870   3.412  20.083  0.00  0.00    +0.000 A 
ATOM     20  C   UNL     1       1.246   2.906  21.326  0.00  0.00    +0.000 A 
ATOM     21  C   UNL     1       2.552   2.464  21.519  0.00  0.00    +0.000 A 
ATOM     22  C   UNL     1       3.477   2.532  20.471  0.00  0.00    +0.000 A 
ATOM     23  C   UNL     1       3.120   3.043  19.206  0.00  0.00    +0.000 A 
ENDBRANCH  16  23
ENDBRANCH  15  16
ENDBRANCH   1  15
TORSDOF 3
ENDMDL
MODEL 5
REMARK VINA RESULT:      -7.7      0.564      1.678
REMARK  Name = 
REMARK  3 active torsions:
REMARK  status: ('A' for Active; 'I' for Inactive)
REMARK    1  A    between atoms: C_7  and  C_8
REMARK    2  A    between atoms: C_8  and  S_9
REMARK    3  A    between atoms: S_9  and  C_10
REMARK                            x       y       z     vdW  Elec       q    Type
REMARK                         _______ _______ _______ _____ _____    ______ ____
ROOT
ATOM      1  C   UNL     1       5.733   5.408  17.826  0.00  0.00    +0.000 A 
ATOM      2  N   UNL     1       6.791   6.177  17.450  0.00  0.00    +0.000 NA
ATOM      3  N   UNL     1       7.303   6.114  16.193  0.00  0.00    +0.000 NA
ATOM      4  C   UNL     1       6.706   5.230  15.347  0.00  0.00    +0.000 A 
ATOM      5  C   UNL     1       5.633   4.487  15.804  0.00  0.00    +0.000 A 
ATOM      6  N   UNL     1       5.094   4.526  17.031  0.00  0.00    +0.000 NA
ATOM      7  N   UNL     1       5.210   3.683  14.786  0.00  0.00    +0.000 N 
ATOM      8  C   UNL     1       5.978   3.888  13.661  0.00  0.00    +0.000 A 
ATOM      9  C   UNL     1       5.889   3.290  12.398  0.00  0.00    +0.000 A 
ATOM     10  C   UNL     1       6.806   3.693  11.428  0.00  0.00    +0.000 A 
ATOM     11  C   UNL     1       7.778   4.646  11.708  0.00  0.00    +0.000 A 
ATOM     12  C   UNL     1       7.859   5.236  12.981  0.00  0.00    +0.000 A 
ATOM     13  C   UNL     1       6.940   4.860  13.987  0.00  0.00    +0.000 A 
ATOM     14  H   UNL     1       4.442   3.034  14.862  0.00  0.00    +0.000 HD
ENDROOT
BRANCH   1  15
ATOM     15  S   UNL     1       5.208   5.362  19.530  0.00  0.00    +0.000 S 
BRANCH  15  16
ATOM     16  C   UNL     1       3.452   5.841  19.428  0.00  0.00    +0.000 C 
BRANCH  16  23
ATOM     17 CL   UNL     1       1.425   4.407  17.455  0.00  0.00    +0.000 Cl
ATOM     18  C   UNL     1       1.658   4.008  19.119  0.00  0.00    +0.000 A 
ATOM     19  C   UNL     1       0.900   2.947  19.636  0.00  0.00    +0.000 A 
ATOM     20  C   UNL     1       1.037   2.561  20.967  0.00  0.00    +0.000 A 
ATOM     21  C   UNL     1       1.936   3.237  21.787  0.00  0.00    +0.000 A 
ATOM     22  C   UNL     1       2.692   4.297  21.275  0.00  0.00    +0.000 A 
ATOM     23  C   UNL     1       2.567   4.709  19.933  0.00  0.00    +0.000 A 
ENDBRANCH  16  23
ENDBRANCH  15  16
ENDBRANCH   1  15
TORSDOF 3
ENDMDL
MODEL 6
REMARK VINA RESULT:      -7.6      4.796      8.319
REMARK  Name = 
REMARK  3 active torsions:
REMARK  status: ('A' for Active; 'I' for Inactive)
REMARK    1  A    between atoms: C_7  and  C_8
REMARK    2  A    between atoms: C_8  and  S_9
REMARK    3  A    between atoms: S_9  and  C_10
REMARK                            x       y       z     vdW  Elec       q    Type
REMARK                         _______ _______ _______ _____ _____    ______ ____
ROOT
ATOM      1  C   UNL     1       2.584   7.858  18.401  0.00  0.00    +0.000 A 
ATOM      2  N   UNL     1       2.052   8.912  17.724  0.00  0.00    +0.000 NA
ATOM      3  N   UNL     1       1.218   9.796  18.330  0.00  0.00    +0.000 NA
ATOM      4  C   UNL     1       0.940   9.555  19.641  0.00  0.00    +0.000 A 
ATOM      5  C   UNL     1       1.523   8.463  20.259  0.00  0.00    +0.000 A 
ATOM      6  N   UNL     1       2.356   7.574  19.700  0.00  0.00    +0.000 NA
ATOM      7  N   UNL     1       1.097   8.432  21.555  0.00  0.00    +0.000 N 
ATOM      8  C   UNL     1       0.249   9.489  21.808  0.00  0.00    +0.000 A 
ATOM      9  C   UNL     1      -0.405   9.844  22.993  0.00  0.00    +0.000 A 
ATOM     10  C   UNL     1      -1.213  10.981  22.968  0.00  0.00    +0.000 A 
ATOM     11  C   UNL     1      -1.370  11.727  21.805  0.00  0.00    +0.000 A 
ATOM     12  C   UNL     1      -0.711  11.356  20.621  0.00  0.00    +0.000 A 
ATOM     13  C   UNL     1       0.125  10.216  20.611  0.00  0.00    +0.000 A 
ATOM     14  H   UNL     1       1.372   7.728  22.222  0.00  0.00    +0.000 HD
ENDROOT
BRANCH   1  15
ATOM     15  S   UNL     1       3.512   6.602  17.537  0.00  0.00    +0.000 S 
BRANCH  15  16
ATOM     16  C   UNL     1       4.017   5.475  18.878  0.00  0.00    +0.000 C 
BRANCH  16  23
ATOM     17 CL   UNL     1       2.217   4.715  21.376  0.00  0.00    +0.000 Cl
ATOM     18  C   UNL     1       2.329   3.813  19.907  0.00  0.00    +0.000 A 
ATOM     19  C   UNL     1       1.541   2.657  19.804  0.00  0.00    +0.000 A 
ATOM     20  C   UNL     1       1.571   1.880  18.647  0.00  0.00    +0.000 A 
ATOM     21  C   UNL     1       2.390   2.260  17.589  0.00  0.00    +0.000 A 
ATOM     22  C   UNL     1       3.179   3.411  17.689  0.00  0.00    +0.000 A 
ATOM     23  C   UNL     1       3.169   4.210  18.851  0.00  0.00    +0.000 A 
ENDBRANCH  16  23
ENDBRANCH  15  16
ENDBRANCH   1  15
TORSDOF 3
ENDMDL
MODEL 7
REMARK VINA RESULT:      -7.5      5.523      8.860
REMARK  Name = 
REMARK  3 active torsions:
REMARK  status: ('A' for Active; 'I' for Inactive)
REMARK    1  A    between atoms: C_7  and  C_8
REMARK    2  A    between atoms: C_8  and  S_9
REMARK    3  A    between atoms: S_9  and  C_10
REMARK                            x       y       z     vdW  Elec       q    Type
REMARK                         _______ _______ _______ _____ _____    ______ ____
ROOT
ATOM      1  C   UNL     1       1.844   8.091  19.266  0.00  0.00    +0.000 A 
ATOM      2  N   UNL     1       1.761   7.745  20.580  0.00  0.00    +0.000 NA
ATOM      3  N   UNL     1       1.038   8.481  21.463  0.00  0.00    +0.000 NA
ATOM      4  C   UNL     1       0.421   9.585  20.959  0.00  0.00    +0.000 A 
ATOM      5  C   UNL     1       0.550   9.867  19.611  0.00  0.00    +0.000 A 
ATOM      6  N   UNL     1       1.246   9.163  18.706  0.00  0.00    +0.000 NA
ATOM      7  N   UNL     1      -0.150  11.008  19.348  0.00  0.00    +0.000 N 
ATOM      8  C   UNL     1      -0.749  11.480  20.495  0.00  0.00    +0.000 A 
ATOM      9  C   UNL     1      -1.561  12.606  20.680  0.00  0.00    +0.000 A 
ATOM     10  C   UNL     1      -2.041  12.850  21.966  0.00  0.00    +0.000 A 
ATOM     11  C   UNL     1      -1.717  12.012  23.027  0.00  0.00    +0.000 A 
ATOM     12  C   UNL     1      -0.898  10.888  22.829  0.00  0.00    +0.000 A 
ATOM     13  C   UNL     1      -0.400  10.602  21.536  0.00  0.00    +0.000 A 
ATOM     14  H   UNL     1      -0.211  11.434  18.436  0.00  0.00    +0.000 HD
ENDROOT
BRANCH   1  15
ATOM     15  S   UNL     1       2.956   7.227  18.171  0.00  0.00    +0.000 S 
BRANCH  15  16
ATOM     16  C   UNL     1       3.569   5.860  19.210  0.00  0.00    +0.000 C 
BRANCH  16  23
ATOM     17 CL   UNL     1       4.164   3.936  16.761  0.00  0.00    +0.000 Cl
ATOM     18  C   UNL     1       2.931   3.699  17.948  0.00  0.00    +0.000 A 
ATOM     19  C   UNL     1       2.140   2.547  17.827  0.00  0.00    +0.000 A 
ATOM     20  C   UNL     1       1.130   2.282  18.750  0.00  0.00    +0.000 A 
ATOM     21  C   UNL     1       0.910   3.171  19.798  0.00  0.00    +0.000 A 
ATOM     22  C   UNL     1       1.696   4.322  19.919  0.00  0.00    +0.000 A 
ATOM     23  C   UNL     1       2.720   4.613  18.995  0.00  0.00    +0.000 A 
ENDBRANCH  16  23
ENDBRANCH  15  16
ENDBRANCH   1  15
TORSDOF 3
ENDMDL
MODEL 8
REMARK VINA RESULT:      -7.5      5.512      8.146
REMARK  Name = 
REMARK  3 active torsions:
REMARK  status: ('A' for Active; 'I' for Inactive)
REMARK    1  A    between atoms: C_7  and  C_8
REMARK    2  A    between atoms: C_8  and  S_9
REMARK    3  A    between atoms: S_9  and  C_10
REMARK                            x       y       z     vdW  Elec       q    Type
REMARK                         _______ _______ _______ _____ _____    ______ ____
ROOT
ATOM      1  C   UNL     1       7.419   7.375  17.829  0.00  0.00    +0.000 A 
ATOM      2  N   UNL     1       7.831   6.562  18.839  0.00  0.00    +0.000 NA
ATOM      3  N   UNL     1       7.117   5.465  19.203  0.00  0.00    +0.000 NA
ATOM      4  C   UNL     1       5.967   5.243  18.511  0.00  0.00    +0.000 A 
ATOM      5  C   UNL     1       5.618   6.114  17.494  0.00  0.00    +0.000 A 
ATOM      6  N   UNL     1       6.298   7.200  17.100  0.00  0.00    +0.000 NA
ATOM      7  N   UNL     1       4.440   5.687  16.955  0.00  0.00    +0.000 N 
ATOM      8  C   UNL     1       4.008   4.543  17.590  0.00  0.00    +0.000 A 
ATOM      9  C   UNL     1       2.865   3.769  17.355  0.00  0.00    +0.000 A 
ATOM     10  C   UNL     1       2.672   2.643  18.155  0.00  0.00    +0.000 A 
ATOM     11  C   UNL     1       3.577   2.308  19.156  0.00  0.00    +0.000 A 
ATOM     12  C   UNL     1       4.718   3.096  19.385  0.00  0.00    +0.000 A 
ATOM     13  C   UNL     1       4.952   4.239  18.586  0.00  0.00    +0.000 A 
ATOM     14  H   UNL     1       3.964   6.154  16.199  0.00  0.00    +0.000 HD
ENDROOT
BRANCH   1  15
ATOM     15  S   UNL     1       8.263   8.912  17.503  0.00  0.00    +0.000 S 
BRANCH  15  16
ATOM     16  C   UNL     1       8.854   9.410  19.155  0.00  0.00    +0.000 C 
BRANCH  16  23
ATOM     17 CL   UNL     1       8.884  11.339  21.671  0.00  0.00    +0.000 Cl
ATOM     18  C   UNL     1       9.644  11.657  20.153  0.00  0.00    +0.000 A 
ATOM     19  C   UNL     1      10.349  12.863  20.030  0.00  0.00    +0.000 A 
ATOM     20  C   UNL     1      10.994  13.188  18.838  0.00  0.00    +0.000 A 
ATOM     21  C   UNL     1      10.935  12.305  17.765  0.00  0.00    +0.000 A 
ATOM     22  C   UNL     1      10.230  11.102  17.884  0.00  0.00    +0.000 A 
ATOM     23  C   UNL     1       9.566  10.754  19.078  0.00  0.00    +0.000 A 
ENDBRANCH  16  23
ENDBRANCH  15  16
ENDBRANCH   1  15
TORSDOF 3
ENDMDL
MODEL 9
REMARK VINA RESULT:      -7.4      3.414      7.278
REMARK  Name = 
REMARK  3 active torsions:
REMARK  status: ('A' for Active; 'I' for Inactive)
REMARK    1  A    between atoms: C_7  and  C_8
REMARK    2  A    between atoms: C_8  and  S_9
REMARK    3  A    between atoms: S_9  and  C_10
REMARK                            x       y       z     vdW  Elec       q    Type
REMARK                         _______ _______ _______ _____ _____    ______ ____
ROOT
ATOM      1  C   UNL     1       3.242   4.444  18.644  0.00  0.00    +0.000 A 
ATOM      2  N   UNL     1       2.974   4.389  19.978  0.00  0.00    +0.000 NA
ATOM      3  N   UNL     1       2.443   5.449  20.639  0.00  0.00    +0.000 NA
ATOM      4  C   UNL     1       2.212   6.565  19.894  0.00  0.00    +0.000 A 
ATOM      5  C   UNL     1       2.508   6.541  18.543  0.00  0.00    +0.000 A 
ATOM      6  N   UNL     1       3.024   5.514  17.852  0.00  0.00    +0.000 NA
ATOM      7  N   UNL     1       2.193   7.760  18.018  0.00  0.00    +0.000 N 
ATOM      8  C   UNL     1       1.684   8.587  18.995  0.00  0.00    +0.000 A 
ATOM      9  C   UNL     1       1.228   9.907  18.899  0.00  0.00    +0.000 A 
ATOM     10  C   UNL     1       0.756  10.513  20.063  0.00  0.00    +0.000 A 
ATOM     11  C   UNL     1       0.749   9.834  21.276  0.00  0.00    +0.000 A 
ATOM     12  C   UNL     1       1.213   8.510  21.360  0.00  0.00    +0.000 A 
ATOM     13  C   UNL     1       1.689   7.860  20.198  0.00  0.00    +0.000 A 
ATOM     14  H   UNL     1       2.320   8.006  17.048  0.00  0.00    +0.000 HD
ENDROOT
BRANCH   1  15
ATOM     15  S   UNL     1       4.122   3.115  17.842  0.00  0.00    +0.000 S 
BRANCH  15  16
ATOM     16  C   UNL     1       5.012   3.970  16.499  0.00  0.00    +0.000 C 
BRANCH  16  23
ATOM     17 CL   UNL     1       5.028   6.955  15.431  0.00  0.00    +0.000 Cl
ATOM     18  C   UNL     1       6.050   6.328  16.675  0.00  0.00    +0.000 A 
ATOM     19  C   UNL     1       6.949   7.221  17.276  0.00  0.00    +0.000 A 
ATOM     20  C   UNL     1       7.801   6.792  18.292  0.00  0.00    +0.000 A 
ATOM     21  C   UNL     1       7.755   5.466  18.709  0.00  0.00    +0.000 A 
ATOM     22  C   UNL     1       6.861   4.572  18.110  0.00  0.00    +0.000 A 
ATOM     23  C   UNL     1       5.992   4.982  17.078  0.00  0.00    +0.000 A 
ENDBRANCH  16  23
ENDBRANCH  15  16
ENDBRANCH   1  15
TORSDOF 3
ENDMDL
