MODEL 1
REMARK VINA RESULT:      -9.0      0.000      0.000
REMARK  Name = 
REMARK  6 active torsions:
REMARK  status: ('A' for Active; 'I' for Inactive)
REMARK    1  A    between atoms: C_1  and  O_2
REMARK    2  A    between atoms: O_2  and  C_3
REMARK    3  A    between atoms: C_8  and  C_9
REMARK    4  A    between atoms: N_16  and  C_17
REMARK    5  A    between atoms: C_21  and  N_22
REMARK    6  A    between atoms: N_25  and  C_26
REMARK                            x       y       z     vdW  Elec       q    Type
REMARK                         _______ _______ _______ _____ _____    ______ ____
ROOT
ATOM      1  C   UNL     1       4.431   3.709  18.675  0.00  0.00    +0.000 A 
ATOM      2  C   UNL     1       4.365   2.527  19.408  0.00  0.00    +0.000 A 
ATOM      3  C   UNL     1       3.377   2.666  20.408  0.00  0.00    +0.000 A 
ATOM      4  C   UNL     1       2.853   3.923  20.254  0.00  0.00    +0.000 A 
ATOM      5  C   UNL     1       1.854   4.644  20.943  0.00  0.00    +0.000 A 
ATOM      6  N   UNL     1       1.535   5.829  20.557  0.00  0.00    +0.000 NA
ATOM      7  C   UNL     1       2.172   6.386  19.467  0.00  0.00    +0.000 A 
ATOM      8  N   UNL     1       1.781   7.634  19.044  0.00  0.00    +0.000 N 
ATOM      9  N   UNL     1       3.115   5.789  18.785  0.00  0.00    +0.000 NA
ATOM     10  N   UNL     1       3.456   4.547  19.204  0.00  0.00    +0.000 N 
ATOM     11  H   UNL     1       2.247   7.952  18.206  0.00  0.00    +0.000 HD
ENDROOT
BRANCH   1  17
ATOM     12  C   UNL     1       6.629   4.583  17.741  0.00  0.00    +0.000 A 
ATOM     13  C   UNL     1       7.434   4.887  16.628  0.00  0.00    +0.000 A 
ATOM     14  C   UNL     1       6.946   4.734  15.331  0.00  0.00    +0.000 A 
ATOM     15  C   UNL     1       5.663   4.246  15.131  0.00  0.00    +0.000 A 
ATOM     16  C   UNL     1       4.873   3.895  16.227  0.00  0.00    +0.000 A 
ATOM     17  C   UNL     1       5.327   4.066  17.549  0.00  0.00    +0.000 A 
BRANCH  12  19
ATOM     18  C   UNL     1       7.897   5.891  19.263  0.00  0.00    +0.000 C 
ATOM     19  O   UNL     1       7.088   4.741  19.029  0.00  0.00    +0.000 OA
ENDBRANCH  12  19
ENDBRANCH   1  17
BRANCH   8  20
ATOM     20  C   UNL     1       1.367   8.676  19.900  0.00  0.00    +0.000 A 
ATOM     21  C   UNL     1       1.292   8.460  21.274  0.00  0.00    +0.000 A 
ATOM     22  C   UNL     1       0.975   9.514  22.131  0.00  0.00    +0.000 A 
ATOM     23  C   UNL     1       0.704  10.788  21.616  0.00  0.00    +0.000 A 
ATOM     24  C   UNL     1       0.722  11.038  20.240  0.00  0.00    +0.000 A 
ATOM     25  C   UNL     1       1.049   9.953  19.412  0.00  0.00    +0.000 A 
BRANCH  24  26
ATOM     26  N   UNL     1       0.385  12.256  19.683  0.00  0.00    +0.000 N 
ATOM     27  C   UNL     1       1.185  12.891  18.630  0.00  0.00    +0.000 C 
ATOM     28  C   UNL     1       1.149  14.427  18.824  0.00  0.00    +0.000 C 
ATOM     29  N   UNL     1      -0.228  14.975  18.852  0.00  0.00    +0.000 NA
ATOM     30  C   UNL     1      -0.202  16.415  19.089  0.00  0.00    +0.000 C 
ATOM     31  C   UNL     1      -1.002  14.287  19.914  0.00  0.00    +0.000 C 
ATOM     32  C   UNL     1      -1.005  12.750  19.746  0.00  0.00    +0.000 C 
ENDBRANCH  24  26
ENDBRANCH   8  20
TORSDOF 4
ENDMDL
MODEL 2
REMARK VINA RESULT:      -8.9      1.603      2.643
REMARK  Name = 
REMARK  6 active torsions:
REMARK  status: ('A' for Active; 'I' for Inactive)
REMARK    1  A    between atoms: C_1  and  O_2
REMARK    2  A    between atoms: O_2  and  C_3
REMARK    3  A    between atoms: C_8  and  C_9
REMARK    4  A    between atoms: N_16  and  C_17
REMARK    5  A    between atoms: C_21  and  N_22
REMARK    6  A    between atoms: N_25  and  C_26
REMARK                            x       y       z     vdW  Elec       q    Type
REMARK                         _______ _______ _______ _____ _____    ______ ____
ROOT
ATOM      1  C   UNL     1       4.317   4.660  18.450  0.00  0.00    +0.000 A 
ATOM      2  C   UNL     1       4.149   3.735  19.477  0.00  0.00    +0.000 A 
ATOM      3  C   UNL     1       3.202   4.242  20.395  0.00  0.00    +0.000 A 
ATOM      4  C   UNL     1       2.804   5.457  19.901  0.00  0.00    +0.000 A 
ATOM      5  C   UNL     1       1.898   6.437  20.362  0.00  0.00    +0.000 A 
ATOM      6  N   UNL     1       1.692   7.499  19.666  0.00  0.00    +0.000 NA
ATOM      7  C   UNL     1       2.359   7.670  18.470  0.00  0.00    +0.000 A 
ATOM      8  N   UNL     1       2.087   8.790  17.720  0.00  0.00    +0.000 N 
ATOM      9  N   UNL     1       3.221   6.816  17.982  0.00  0.00    +0.000 NA
ATOM     10  N   UNL     1       3.444   5.706  18.725  0.00  0.00    +0.000 N 
ATOM     11  H   UNL     1       2.564   8.819  16.830  0.00  0.00    +0.000 HD
ENDROOT
BRANCH   1  17
ATOM     12  C   UNL     1       6.627   4.692  17.386  0.00  0.00    +0.000 A 
ATOM     13  C   UNL     1       7.427   4.617  16.232  0.00  0.00    +0.000 A 
ATOM     14  C   UNL     1       6.848   4.507  14.967  0.00  0.00    +0.000 A 
ATOM     15  C   UNL     1       5.468   4.439  14.846  0.00  0.00    +0.000 A 
ATOM     16  C   UNL     1       4.667   4.464  15.988  0.00  0.00    +0.000 A 
ATOM     17  C   UNL     1       5.220   4.604  17.276  0.00  0.00    +0.000 A 
BRANCH  12  19
ATOM     18  C   UNL     1       7.793   6.069  18.929  0.00  0.00    +0.000 C 
ATOM     19  O   UNL     1       7.179   4.815  18.641  0.00  0.00    +0.000 OA
ENDBRANCH  12  19
ENDBRANCH   1  17
BRANCH   8  20
ATOM     20  C   UNL     1       1.799  10.062  18.257  0.00  0.00    +0.000 A 
ATOM     21  C   UNL     1       2.564  11.165  17.882  0.00  0.00    +0.000 A 
ATOM     22  C   UNL     1       2.222  12.439  18.338  0.00  0.00    +0.000 A 
ATOM     23  C   UNL     1       1.130  12.615  19.195  0.00  0.00    +0.000 A 
ATOM     24  C   UNL     1       0.365  11.529  19.635  0.00  0.00    +0.000 A 
ATOM     25  C   UNL     1       0.737  10.266  19.151  0.00  0.00    +0.000 A 
BRANCH  24  26
ATOM     26  N   UNL     1      -0.671  11.645  20.541  0.00  0.00    +0.000 N 
ATOM     27  C   UNL     1      -2.003  12.129  20.161  0.00  0.00    +0.000 C 
ATOM     28  C   UNL     1      -2.599  12.946  21.334  0.00  0.00    +0.000 C 
ATOM     29  N   UNL     1      -2.650  12.183  22.604  0.00  0.00    +0.000 NA
ATOM     30  C   UNL     1      -3.171  13.018  23.682  0.00  0.00    +0.000 C 
ATOM     31  C   UNL     1      -1.289  11.697  22.933  0.00  0.00    +0.000 C 
ATOM     32  C   UNL     1      -0.664  10.861  21.792  0.00  0.00    +0.000 C 
ENDBRANCH  24  26
ENDBRANCH   8  20
TORSDOF 4
ENDMDL
MODEL 3
REMARK VINA RESULT:      -8.6      1.660      1.950
REMARK  Name = 
REMARK  6 active torsions:
REMARK  status: ('A' for Active; 'I' for Inactive)
REMARK    1  A    between atoms: C_1  and  O_2
REMARK    2  A    between atoms: O_2  and  C_3
REMARK    3  A    between atoms: C_8  and  C_9
REMARK    4  A    between atoms: N_16  and  C_17
REMARK    5  A    between atoms: C_21  and  N_22
REMARK    6  A    between atoms: N_25  and  C_26
REMARK                            x       y       z     vdW  Elec       q    Type
REMARK                         _______ _______ _______ _____ _____    ______ ____
ROOT
ATOM      1  C   UNL     1       4.205   3.678  18.528  0.00  0.00    +0.000 A 
ATOM      2  C   UNL     1       4.065   2.390  19.038  0.00  0.00    +0.000 A 
ATOM      3  C   UNL     1       3.020   2.388  19.990  0.00  0.00    +0.000 A 
ATOM      4  C   UNL     1       2.539   3.671  20.029  0.00  0.00    +0.000 A 
ATOM      5  C   UNL     1       1.517   4.296  20.777  0.00  0.00    +0.000 A 
ATOM      6  N   UNL     1       1.252   5.540  20.587  0.00  0.00    +0.000 NA
ATOM      7  C   UNL     1       1.969   6.255  19.649  0.00  0.00    +0.000 A 
ATOM      8  N   UNL     1       1.636   7.570  19.430  0.00  0.00    +0.000 N 
ATOM      9  N   UNL     1       2.937   5.752  18.927  0.00  0.00    +0.000 NA
ATOM     10  N   UNL     1       3.220   4.445  19.140  0.00  0.00    +0.000 N 
ATOM     11  H   UNL     1       2.160   8.013  18.688  0.00  0.00    +0.000 HD
ENDROOT
BRANCH   1  17
ATOM     12  C   UNL     1       6.402   4.798  17.903  0.00  0.00    +0.000 A 
ATOM     13  C   UNL     1       7.287   5.252  16.909  0.00  0.00    +0.000 A 
ATOM     14  C   UNL     1       6.951   5.161  15.559  0.00  0.00    +0.000 A 
ATOM     15  C   UNL     1       5.745   4.587  15.186  0.00  0.00    +0.000 A 
ATOM     16  C   UNL     1       4.880   4.089  16.162  0.00  0.00    +0.000 A 
ATOM     17  C   UNL     1       5.178   4.193  17.535  0.00  0.00    +0.000 A 
BRANCH  12  19
ATOM     18  C   UNL     1       7.833   5.706  19.566  0.00  0.00    +0.000 C 
ATOM     19  O   UNL     1       6.708   4.891  19.242  0.00  0.00    +0.000 OA
ENDBRANCH  12  19
ENDBRANCH   1  17
BRANCH   8  20
ATOM     20  C   UNL     1       1.196   8.462  20.430  0.00  0.00    +0.000 A 
ATOM     21  C   UNL     1       1.730   8.385  21.715  0.00  0.00    +0.000 A 
ATOM     22  C   UNL     1       1.367   9.326  22.679  0.00  0.00    +0.000 A 
ATOM     23  C   UNL     1       0.446  10.334  22.374  0.00  0.00    +0.000 A 
ATOM     24  C   UNL     1      -0.151  10.420  21.111  0.00  0.00    +0.000 A 
ATOM     25  C   UNL     1       0.243   9.458  20.168  0.00  0.00    +0.000 A 
BRANCH  24  26
ATOM     26  N   UNL     1      -1.122  11.347  20.789  0.00  0.00    +0.000 N 
ATOM     27  C   UNL     1      -1.533  12.413  21.711  0.00  0.00    +0.000 C 
ATOM     28  C   UNL     1      -3.048  12.678  21.533  0.00  0.00    +0.000 C 
ATOM     29  N   UNL     1      -3.419  13.008  20.137  0.00  0.00    +0.000 NA
ATOM     30  C   UNL     1      -4.862  13.196  20.021  0.00  0.00    +0.000 C 
ATOM     31  C   UNL     1      -2.963  11.916  19.244  0.00  0.00    +0.000 C 
ATOM     32  C   UNL     1      -1.449  11.630  19.378  0.00  0.00    +0.000 C 
ENDBRANCH  24  26
ENDBRANCH   8  20
TORSDOF 4
ENDMDL
MODEL 4
REMARK VINA RESULT:      -8.5      1.846      2.663
REMARK  Name = 
REMARK  6 active torsions:
REMARK  status: ('A' for Active; 'I' for Inactive)
REMARK    1  A    between atoms: C_1  and  O_2
REMARK    2  A    between atoms: O_2  and  C_3
REMARK    3  A    between atoms: C_8  and  C_9
REMARK    4  A    between atoms: N_16  and  C_17
REMARK    5  A    between atoms: C_21  and  N_22
REMARK    6  A    between atoms: N_25  and  C_26
REMARK                            x       y       z     vdW  Elec       q    Type
REMARK                         _______ _______ _______ _____ _____    ______ ____
ROOT
ATOM      1  C   UNL     1       4.453   4.846  18.356  0.00  0.00    +0.000 A 
ATOM      2  C   UNL     1       4.377   3.939  19.410  0.00  0.00    +0.000 A 
ATOM      3  C   UNL     1       3.404   4.391  20.330  0.00  0.00    +0.000 A 
ATOM      4  C   UNL     1       2.900   5.555  19.810  0.00  0.00    +0.000 A 
ATOM      5  C   UNL     1       1.922   6.469  20.259  0.00  0.00    +0.000 A 
ATOM      6  N   UNL     1       1.619   7.490  19.538  0.00  0.00    +0.000 NA
ATOM      7  C   UNL     1       2.252   7.682  18.327  0.00  0.00    +0.000 A 
ATOM      8  N   UNL     1       1.877   8.755  17.552  0.00  0.00    +0.000 N 
ATOM      9  N   UNL     1       3.175   6.889  17.848  0.00  0.00    +0.000 NA
ATOM     10  N   UNL     1       3.500   5.823  18.617  0.00  0.00    +0.000 N 
ATOM     11  H   UNL     1       2.337   8.798  16.654  0.00  0.00    +0.000 HD
ENDROOT
BRANCH   1  17
ATOM     12  C   UNL     1       6.488   5.651  17.059  0.00  0.00    +0.000 A 
ATOM     13  C   UNL     1       7.296   5.576  15.911  0.00  0.00    +0.000 A 
ATOM     14  C   UNL     1       6.954   4.739  14.850  0.00  0.00    +0.000 A 
ATOM     15  C   UNL     1       5.821   3.944  14.938  0.00  0.00    +0.000 A 
ATOM     16  C   UNL     1       5.038   3.973  16.093  0.00  0.00    +0.000 A 
ATOM     17  C   UNL     1       5.341   4.831  17.169  0.00  0.00    +0.000 A 
BRANCH  12  19
ATOM     18  C   UNL     1       7.889   6.061  18.932  0.00  0.00    +0.000 C 
ATOM     19  O   UNL     1       6.801   6.482  18.111  0.00  0.00    +0.000 OA
ENDBRANCH  12  19
ENDBRANCH   1  17
BRANCH   8  20
ATOM     20  C   UNL     1       1.493  10.013  18.060  0.00  0.00    +0.000 A 
ATOM     21  C   UNL     1       2.431  11.039  18.161  0.00  0.00    +0.000 A 
ATOM     22  C   UNL     1       2.032  12.311  18.573  0.00  0.00    +0.000 A 
ATOM     23  C   UNL     1       0.697  12.560  18.913  0.00  0.00    +0.000 A 
ATOM     24  C   UNL     1      -0.268  11.547  18.871  0.00  0.00    +0.000 A 
ATOM     25  C   UNL     1       0.171  10.283  18.448  0.00  0.00    +0.000 A 
BRANCH  24  26
ATOM     26  N   UNL     1      -1.577  11.726  19.271  0.00  0.00    +0.000 N 
ATOM     27  C   UNL     1      -2.696  11.000  18.660  0.00  0.00    +0.000 C 
ATOM     28  C   UNL     1      -3.938  11.925  18.620  0.00  0.00    +0.000 C 
ATOM     29  N   UNL     1      -4.309  12.455  19.953  0.00  0.00    +0.000 NA
ATOM     30  C   UNL     1      -5.451  13.358  19.845  0.00  0.00    +0.000 C 
ATOM     31  C   UNL     1      -3.142  13.158  20.538  0.00  0.00    +0.000 C 
ATOM     32  C   UNL     1      -1.884  12.262  20.612  0.00  0.00    +0.000 C 
ENDBRANCH  24  26
ENDBRANCH   8  20
TORSDOF 4
ENDMDL
MODEL 5
REMARK VINA RESULT:      -8.4      2.016      2.842
REMARK  Name = 
REMARK  6 active torsions:
REMARK  status: ('A' for Active; 'I' for Inactive)
REMARK    1  A    between atoms: C_1  and  O_2
REMARK    2  A    between atoms: O_2  and  C_3
REMARK    3  A    between atoms: C_8  and  C_9
REMARK    4  A    between atoms: N_16  and  C_17
REMARK    5  A    between atoms: C_21  and  N_22
REMARK    6  A    between atoms: N_25  and  C_26
REMARK                            x       y       z     vdW  Elec       q    Type
REMARK                         _______ _______ _______ _____ _____    ______ ____
ROOT
ATOM      1  C   UNL     1       4.504   4.583  19.165  0.00  0.00    +0.000 A 
ATOM      2  C   UNL     1       4.283   3.225  19.379  0.00  0.00    +0.000 A 
ATOM      3  C   UNL     1       3.010   3.059  19.971  0.00  0.00    +0.000 A 
ATOM      4  C   UNL     1       2.479   4.316  20.092  0.00  0.00    +0.000 A 
ATOM      5  C   UNL     1       1.259   4.803  20.609  0.00  0.00    +0.000 A 
ATOM      6  N   UNL     1       1.003   6.063  20.570  0.00  0.00    +0.000 NA
ATOM      7  C   UNL     1       1.925   6.930  20.021  0.00  0.00    +0.000 A 
ATOM      8  N   UNL     1       1.609   8.266  19.949  0.00  0.00    +0.000 N 
ATOM      9  N   UNL     1       3.081   6.560  19.535  0.00  0.00    +0.000 NA
ATOM     10  N   UNL     1       3.351   5.234  19.589  0.00  0.00    +0.000 N 
ATOM     11  H   UNL     1       2.303   8.832  19.480  0.00  0.00    +0.000 HD
ENDROOT
BRANCH   1  17
ATOM     12  C   UNL     1       5.847   5.528  17.223  0.00  0.00    +0.000 A 
ATOM     13  C   UNL     1       6.998   6.190  16.758  0.00  0.00    +0.000 A 
ATOM     14  C   UNL     1       8.022   6.544  17.636  0.00  0.00    +0.000 A 
ATOM     15  C   UNL     1       7.893   6.271  18.990  0.00  0.00    +0.000 A 
ATOM     16  C   UNL     1       6.734   5.659  19.469  0.00  0.00    +0.000 A 
ATOM     17  C   UNL     1       5.696   5.262  18.603  0.00  0.00    +0.000 A 
BRANCH  12  19
ATOM     18  C   UNL     1       5.200   4.272  15.315  0.00  0.00    +0.000 C 
ATOM     19  O   UNL     1       4.832   5.158  16.370  0.00  0.00    +0.000 OA
ENDBRANCH  12  19
ENDBRANCH   1  17
BRANCH   8  20
ATOM     20  C   UNL     1       0.860   8.966  20.918  0.00  0.00    +0.000 A 
ATOM     21  C   UNL     1       1.088   8.735  22.273  0.00  0.00    +0.000 A 
ATOM     22  C   UNL     1       0.418   9.493  23.233  0.00  0.00    +0.000 A 
ATOM     23  C   UNL     1      -0.508  10.469  22.845  0.00  0.00    +0.000 A 
ATOM     24  C   UNL     1      -0.802  10.701  21.497  0.00  0.00    +0.000 A 
ATOM     25  C   UNL     1      -0.104   9.921  20.562  0.00  0.00    +0.000 A 
BRANCH  24  26
ATOM     26  N   UNL     1      -1.763  11.596  21.070  0.00  0.00    +0.000 N 
ATOM     27  C   UNL     1      -2.308  12.644  21.941  0.00  0.00    +0.000 C 
ATOM     28  C   UNL     1      -3.803  12.859  21.599  0.00  0.00    +0.000 C 
ATOM     29  N   UNL     1      -4.030  13.181  20.171  0.00  0.00    +0.000 NA
ATOM     30  C   UNL     1      -5.458  13.321  19.898  0.00  0.00    +0.000 C 
ATOM     31  C   UNL     1      -3.443  12.107  19.333  0.00  0.00    +0.000 C 
ATOM     32  C   UNL     1      -1.944  11.873  19.631  0.00  0.00    +0.000 C 
ENDBRANCH  24  26
ENDBRANCH   8  20
TORSDOF 4
ENDMDL
MODEL 6
REMARK VINA RESULT:      -8.3      1.144      1.328
REMARK  Name = 
REMARK  6 active torsions:
REMARK  status: ('A' for Active; 'I' for Inactive)
REMARK    1  A    between atoms: C_1  and  O_2
REMARK    2  A    between atoms: O_2  and  C_3
REMARK    3  A    between atoms: C_8  and  C_9
REMARK    4  A    between atoms: N_16  and  C_17
REMARK    5  A    between atoms: C_21  and  N_22
REMARK    6  A    between atoms: N_25  and  C_26
REMARK                            x       y       z     vdW  Elec       q    Type
REMARK                         _______ _______ _______ _____ _____    ______ ____
ROOT
ATOM      1  C   UNL     1       4.468   3.842  18.692  0.00  0.00    +0.000 A 
ATOM      2  C   UNL     1       4.451   2.694  19.480  0.00  0.00    +0.000 A 
ATOM      3  C   UNL     1       3.492   2.859  20.504  0.00  0.00    +0.000 A 
ATOM      4  C   UNL     1       2.936   4.096  20.310  0.00  0.00    +0.000 A 
ATOM      5  C   UNL     1       1.943   4.827  20.998  0.00  0.00    +0.000 A 
ATOM      6  N   UNL     1       1.586   5.986  20.569  0.00  0.00    +0.000 NA
ATOM      7  C   UNL     1       2.176   6.505  19.435  0.00  0.00    +0.000 A 
ATOM      8  N   UNL     1       1.745   7.724  18.968  0.00  0.00    +0.000 N 
ATOM      9  N   UNL     1       3.111   5.897  18.750  0.00  0.00    +0.000 NA
ATOM     10  N   UNL     1       3.492   4.683  19.214  0.00  0.00    +0.000 N 
ATOM     11  H   UNL     1       2.177   8.013  18.102  0.00  0.00    +0.000 HD
ENDROOT
BRANCH   1  17
ATOM     12  C   UNL     1       6.648   4.637  17.650  0.00  0.00    +0.000 A 
ATOM     13  C   UNL     1       7.408   4.911  16.498  0.00  0.00    +0.000 A 
ATOM     14  C   UNL     1       6.853   4.773  15.226  0.00  0.00    +0.000 A 
ATOM     15  C   UNL     1       5.545   4.329  15.090  0.00  0.00    +0.000 A 
ATOM     16  C   UNL     1       4.798   4.008  16.225  0.00  0.00    +0.000 A 
ATOM     17  C   UNL     1       5.321   4.165  17.523  0.00  0.00    +0.000 A 
BRANCH  12  19
ATOM     18  C   UNL     1       7.847   6.011  19.170  0.00  0.00    +0.000 C 
ATOM     19  O   UNL     1       7.173   4.781  18.914  0.00  0.00    +0.000 OA
ENDBRANCH  12  19
ENDBRANCH   1  17
BRANCH   8  20
ATOM     20  C   UNL     1       1.336   8.796  19.789  0.00  0.00    +0.000 A 
ATOM     21  C   UNL     1       0.652   8.542  20.977  0.00  0.00    +0.000 A 
ATOM     22  C   UNL     1       0.330   9.593  21.835  0.00  0.00    +0.000 A 
ATOM     23  C   UNL     1       0.665  10.910  21.500  0.00  0.00    +0.000 A 
ATOM     24  C   UNL     1       1.309  11.215  20.296  0.00  0.00    +0.000 A 
ATOM     25  C   UNL     1       1.619  10.131  19.461  0.00  0.00    +0.000 A 
BRANCH  24  26
ATOM     26  N   UNL     1       1.588  12.504  19.887  0.00  0.00    +0.000 N 
ATOM     27  C   UNL     1       1.164  13.029  18.584  0.00  0.00    +0.000 C 
ATOM     28  C   UNL     1       2.245  14.005  18.056  0.00  0.00    +0.000 C 
ATOM     29  N   UNL     1       2.545  15.105  19.003  0.00  0.00    +0.000 NA
ATOM     30  C   UNL     1       3.604  15.959  18.475  0.00  0.00    +0.000 C 
ATOM     31  C   UNL     1       2.945  14.526  20.308  0.00  0.00    +0.000 C 
ATOM     32  C   UNL     1       1.883  13.558  20.879  0.00  0.00    +0.000 C 
ENDBRANCH  24  26
ENDBRANCH   8  20
TORSDOF 4
ENDMDL
MODEL 7
REMARK VINA RESULT:      -8.3      1.784      2.908
REMARK  Name = 
REMARK  6 active torsions:
REMARK  status: ('A' for Active; 'I' for Inactive)
REMARK    1  A    between atoms: C_1  and  O_2
REMARK    2  A    between atoms: O_2  and  C_3
REMARK    3  A    between atoms: C_8  and  C_9
REMARK    4  A    between atoms: N_16  and  C_17
REMARK    5  A    between atoms: C_21  and  N_22
REMARK    6  A    between atoms: N_25  and  C_26
REMARK                            x       y       z     vdW  Elec       q    Type
REMARK                         _______ _______ _______ _____ _____    ______ ____
ROOT
ATOM      1  C   UNL     1       3.883   5.153  18.607  0.00  0.00    +0.000 A 
ATOM      2  C   UNL     1       3.592   4.233  19.611  0.00  0.00    +0.000 A 
ATOM      3  C   UNL     1       2.663   4.814  20.504  0.00  0.00    +0.000 A 
ATOM      4  C   UNL     1       2.399   6.068  20.018  0.00  0.00    +0.000 A 
ATOM      5  C   UNL     1       1.573   7.122  20.463  0.00  0.00    +0.000 A 
ATOM      6  N   UNL     1       1.493   8.208  19.779  0.00  0.00    +0.000 NA
ATOM      7  C   UNL     1       2.215   8.332  18.610  0.00  0.00    +0.000 A 
ATOM      8  N   UNL     1       2.077   9.483  17.871  0.00  0.00    +0.000 N 
ATOM      9  N   UNL     1       3.012   7.408  18.138  0.00  0.00    +0.000 NA
ATOM     10  N   UNL     1       3.102   6.272  18.869  0.00  0.00    +0.000 N 
ATOM     11  H   UNL     1       2.586   9.480  16.999  0.00  0.00    +0.000 HD
ENDROOT
BRANCH   1  17
ATOM     12  C   UNL     1       6.139   5.535  17.496  0.00  0.00    +0.000 A 
ATOM     13  C   UNL     1       6.981   5.369  16.382  0.00  0.00    +0.000 A 
ATOM     14  C   UNL     1       6.515   4.755  15.219  0.00  0.00    +0.000 A 
ATOM     15  C   UNL     1       5.216   4.271  15.170  0.00  0.00    +0.000 A 
ATOM     16  C   UNL     1       4.387   4.386  16.287  0.00  0.00    +0.000 A 
ATOM     17  C   UNL     1       4.820   5.028  17.464  0.00  0.00    +0.000 A 
BRANCH  12  19
ATOM     18  C   UNL     1       7.822   5.688  19.164  0.00  0.00    +0.000 C 
ATOM     19  O   UNL     1       6.576   6.151  18.647  0.00  0.00    +0.000 OA
ENDBRANCH  12  19
ENDBRANCH   1  17
BRANCH   8  20
ATOM     20  C   UNL     1       1.890  10.769  18.420  0.00  0.00    +0.000 A 
ATOM     21  C   UNL     1       2.495  11.875  17.826  0.00  0.00    +0.000 A 
ATOM     22  C   UNL     1       2.236  13.157  18.309  0.00  0.00    +0.000 A 
ATOM     23  C   UNL     1       1.390  13.341  19.410  0.00  0.00    +0.000 A 
ATOM     24  C   UNL     1       0.799  12.256  20.066  0.00  0.00    +0.000 A 
ATOM     25  C   UNL     1       1.081  10.983  19.547  0.00  0.00    +0.000 A 
BRANCH  24  26
ATOM     26  N   UNL     1       0.022  12.384  21.201  0.00  0.00    +0.000 N 
ATOM     27  C   UNL     1      -0.391  11.231  22.008  0.00  0.00    +0.000 C 
ATOM     28  C   UNL     1      -1.810  11.491  22.573  0.00  0.00    +0.000 C 
ATOM     29  N   UNL     1      -1.902  12.749  23.351  0.00  0.00    +0.000 NA
ATOM     30  C   UNL     1      -3.270  12.966  23.812  0.00  0.00    +0.000 C 
ATOM     31  C   UNL     1      -1.453  13.878  22.502  0.00  0.00    +0.000 C 
ATOM     32  C   UNL     1      -0.031  13.665  21.932  0.00  0.00    +0.000 C 
ENDBRANCH  24  26
ENDBRANCH   8  20
TORSDOF 4
ENDMDL
MODEL 8
REMARK VINA RESULT:      -8.3      2.100      2.944
REMARK  Name = 
REMARK  6 active torsions:
REMARK  status: ('A' for Active; 'I' for Inactive)
REMARK    1  A    between atoms: C_1  and  O_2
REMARK    2  A    between atoms: O_2  and  C_3
REMARK    3  A    between atoms: C_8  and  C_9
REMARK    4  A    between atoms: N_16  and  C_17
REMARK    5  A    between atoms: C_21  and  N_22
REMARK    6  A    between atoms: N_25  and  C_26
REMARK                            x       y       z     vdW  Elec       q    Type
REMARK                         _______ _______ _______ _____ _____    ______ ____
ROOT
ATOM      1  C   UNL     1       4.442   4.863  18.287  0.00  0.00    +0.000 A 
ATOM      2  C   UNL     1       4.453   3.970  19.355  0.00  0.00    +0.000 A 
ATOM      3  C   UNL     1       3.512   4.400  20.317  0.00  0.00    +0.000 A 
ATOM      4  C   UNL     1       2.940   5.537  19.809  0.00  0.00    +0.000 A 
ATOM      5  C   UNL     1       1.953   6.422  20.296  0.00  0.00    +0.000 A 
ATOM      6  N   UNL     1       1.576   7.421  19.578  0.00  0.00    +0.000 NA
ATOM      7  C   UNL     1       2.139   7.618  18.334  0.00  0.00    +0.000 A 
ATOM      8  N   UNL     1       1.687   8.665  17.566  0.00  0.00    +0.000 N 
ATOM      9  N   UNL     1       3.066   6.852  17.819  0.00  0.00    +0.000 NA
ATOM     10  N   UNL     1       3.468   5.809  18.584  0.00  0.00    +0.000 N 
ATOM     11  H   UNL     1       2.099   8.711  16.645  0.00  0.00    +0.000 HD
ENDROOT
BRANCH   1  17
ATOM     12  C   UNL     1       6.317   5.787  16.837  0.00  0.00    +0.000 A 
ATOM     13  C   UNL     1       7.073   5.722  15.653  0.00  0.00    +0.000 A 
ATOM     14  C   UNL     1       6.770   4.789  14.662  0.00  0.00    +0.000 A 
ATOM     15  C   UNL     1       5.732   3.890  14.858  0.00  0.00    +0.000 A 
ATOM     16  C   UNL     1       5.006   3.913  16.050  0.00  0.00    +0.000 A 
ATOM     17  C   UNL     1       5.269   4.864  17.056  0.00  0.00    +0.000 A 
BRANCH  12  19
ATOM     18  C   UNL     1       7.674   7.599  17.552  0.00  0.00    +0.000 C 
ATOM     19  O   UNL     1       6.592   6.711  17.820  0.00  0.00    +0.000 OA
ENDBRANCH  12  19
ENDBRANCH   1  17
BRANCH   8  20
ATOM     20  C   UNL     1       1.282   9.916  18.076  0.00  0.00    +0.000 A 
ATOM     21  C   UNL     1       2.239  10.843  18.486  0.00  0.00    +0.000 A 
ATOM     22  C   UNL     1       1.845  12.115  18.901  0.00  0.00    +0.000 A 
ATOM     23  C   UNL     1       0.488  12.460  18.937  0.00  0.00    +0.000 A 
ATOM     24  C   UNL     1      -0.507  11.544  18.580  0.00  0.00    +0.000 A 
ATOM     25  C   UNL     1      -0.071  10.277  18.164  0.00  0.00    +0.000 A 
BRANCH  24  26
ATOM     26  N   UNL     1      -1.859  11.814  18.674  0.00  0.00    +0.000 N 
ATOM     27  C   UNL     1      -2.401  12.815  19.600  0.00  0.00    +0.000 C 
ATOM     28  C   UNL     1      -3.776  12.328  20.122  0.00  0.00    +0.000 C 
ATOM     29  N   UNL     1      -4.737  12.030  19.034  0.00  0.00    +0.000 NA
ATOM     30  C   UNL     1      -5.992  11.528  19.583  0.00  0.00    +0.000 C 
ATOM     31  C   UNL     1      -4.135  11.034  18.115  0.00  0.00    +0.000 C 
ATOM     32  C   UNL     1      -2.767  11.491  17.556  0.00  0.00    +0.000 C 
ENDBRANCH  24  26
ENDBRANCH   8  20
TORSDOF 4
ENDMDL
MODEL 9
REMARK VINA RESULT:      -8.2      2.798      4.075
REMARK  Name = 
REMARK  6 active torsions:
REMARK  status: ('A' for Active; 'I' for Inactive)
REMARK    1  A    between atoms: C_1  and  O_2
REMARK    2  A    between atoms: O_2  and  C_3
REMARK    3  A    between atoms: C_8  and  C_9
REMARK    4  A    between atoms: N_16  and  C_17
REMARK    5  A    between atoms: C_21  and  N_22
REMARK    6  A    between atoms: N_25  and  C_26
REMARK                            x       y       z     vdW  Elec       q    Type
REMARK                         _______ _______ _______ _____ _____    ______ ____
ROOT
ATOM      1  C   UNL     1       3.138   5.911  19.003  0.00  0.00    +0.000 A 
ATOM      2  C   UNL     1       2.876   5.117  20.117  0.00  0.00    +0.000 A 
ATOM      3  C   UNL     1       2.035   5.832  20.998  0.00  0.00    +0.000 A 
ATOM      4  C   UNL     1       1.791   7.039  20.397  0.00  0.00    +0.000 A 
ATOM      5  C   UNL     1       1.040   8.173  20.777  0.00  0.00    +0.000 A 
ATOM      6  N   UNL     1       0.959   9.184  19.986  0.00  0.00    +0.000 NA
ATOM      7  C   UNL     1       1.607   9.150  18.768  0.00  0.00    +0.000 A 
ATOM      8  N   UNL     1       1.467  10.223  17.920  0.00  0.00    +0.000 N 
ATOM      9  N   UNL     1       2.331   8.145  18.350  0.00  0.00    +0.000 NA
ATOM     10  N   UNL     1       2.423   7.088  19.192  0.00  0.00    +0.000 N 
ATOM     11  H   UNL     1       1.917  10.104  17.023  0.00  0.00    +0.000 HD
ENDROOT
BRANCH   1  17
ATOM     12  C   UNL     1       3.890   4.424  17.082  0.00  0.00    +0.000 A 
ATOM     13  C   UNL     1       4.720   4.221  15.964  0.00  0.00    +0.000 A 
ATOM     14  C   UNL     1       5.680   5.166  15.606  0.00  0.00    +0.000 A 
ATOM     15  C   UNL     1       5.800   6.337  16.339  0.00  0.00    +0.000 A 
ATOM     16  C   UNL     1       4.949   6.572  17.420  0.00  0.00    +0.000 A 
ATOM     17  C   UNL     1       3.990   5.623  17.825  0.00  0.00    +0.000 A 
BRANCH  12  19
ATOM     18  C   UNL     1       3.452   2.232  17.882  0.00  0.00    +0.000 C 
ATOM     19  O   UNL     1       2.946   3.496  17.460  0.00  0.00    +0.000 OA
ENDBRANCH  12  19
ENDBRANCH   1  17
BRANCH   8  20
ATOM     20  C   UNL     1       1.371  11.567  18.338  0.00  0.00    +0.000 A 
ATOM     21  C   UNL     1       0.128  12.108  18.664  0.00  0.00    +0.000 A 
ATOM     22  C   UNL     1       0.043  13.405  19.168  0.00  0.00    +0.000 A 
ATOM     23  C   UNL     1       1.196  14.183  19.323  0.00  0.00    +0.000 A 
ATOM     24  C   UNL     1       2.458  13.697  18.964  0.00  0.00    +0.000 A 
ATOM     25  C   UNL     1       2.503  12.386  18.465  0.00  0.00    +0.000 A 
BRANCH  24  26
ATOM     26  N   UNL     1       3.612  14.453  19.026  0.00  0.00    +0.000 N 
ATOM     27  C   UNL     1       4.238  15.038  17.834  0.00  0.00    +0.000 C 
ATOM     28  C   UNL     1       5.776  15.024  18.013  0.00  0.00    +0.000 C 
ATOM     29  N   UNL     1       6.222  15.716  19.245  0.00  0.00    +0.000 NA
ATOM     30  C   UNL     1       7.673  15.626  19.386  0.00  0.00    +0.000 C 
ATOM     31  C   UNL     1       5.547  15.107  20.415  0.00  0.00    +0.000 C 
ATOM     32  C   UNL     1       4.006  15.117  20.284  0.00  0.00    +0.000 C 
ENDBRANCH  24  26
ENDBRANCH   8  20
TORSDOF 4
ENDMDL
