MODEL 1
REMARK VINA RESULT:      -6.1      0.000      0.000
REMARK  Name = 
REMARK  11 active torsions:
REMARK  status: ('A' for Active; 'I' for Inactive)
REMARK    1  A    between atoms: C_1  and  C_2
REMARK    2  A    between atoms: C_2  and  C_3
REMARK    3  A    between atoms: C_2  and  C_9
REMARK    4  A    between atoms: C_3  and  C_4
REMARK    5  A    between atoms: C_4  and  C_5
REMARK    6  A    between atoms: C_5  and  N_6
REMARK    7  A    between atoms: C_16  and  O_17
REMARK    8  A    between atoms: C_18  and  C_19
REMARK    9  A    between atoms: C_20  and  C_21
REMARK   10  A    between atoms: C_24  and  O_25
REMARK   11  A    between atoms: C_29  and  O_30
REMARK                            x       y       z     vdW  Elec       q    Type
REMARK                         _______ _______ _______ _____ _____    ______ ____
ROOT
ATOM      1  C   UNL     1      10.449  13.467  19.511  0.00  0.00    +0.000 C 
ATOM      2  C   UNL     1      11.156  14.819  19.260  0.00  0.00    +0.000 C 
ATOM      3  C   UNL     1      10.779  15.738  20.434  0.00  0.00    +0.000 C 
ATOM      4  C   UNL     1      10.090  14.815  21.435  0.00  0.00    +0.000 C 
ATOM      5  C   UNL     1       9.179  15.444  22.500  0.00  0.00    +0.000 C 
ATOM      6  C   UNL     1       8.583  14.308  23.401  0.00  0.00    +0.000 C 
ATOM      7  C   UNL     1       7.981  13.124  22.582  0.00  0.00    +0.000 C 
ATOM      8  C   UNL     1       8.842  12.634  21.405  0.00  0.00    +0.000 C 
ATOM      9  C   UNL     1       9.319  13.813  20.533  0.00  0.00    +0.000 C 
ATOM     10  C   UNL     1       8.077  14.477  19.883  0.00  0.00    +0.000 C 
ATOM     11  C   UNL     1       7.579  14.887  24.469  0.00  0.00    +0.000 C 
ATOM     12  C   UNL     1       6.318  15.492  23.789  0.00  0.00    +0.000 C 
ATOM     13  C   UNL     1       7.048  13.788  25.437  0.00  0.00    +0.000 C 
ATOM     14  C   UNL     1       8.112  13.219  26.363  0.00  0.00    +0.000 C 
ATOM     15  C   UNL     1       8.744  14.327  27.194  0.00  0.00    +0.000 C 
ATOM     16  C   UNL     1       9.323  15.426  26.308  0.00  0.00    +0.000 C 
ATOM     17  C   UNL     1       8.300  15.995  25.308  0.00  0.00    +0.000 C 
ATOM     18  C   UNL     1       8.944  17.087  24.427  0.00  0.00    +0.000 C 
ATOM     19  C   UNL     1       9.853  16.567  23.307  0.00  0.00    +0.000 C 
ENDROOT
BRANCH   1  21
ATOM     20  C   UNL     1      11.174  12.693  17.122  0.00  0.00    +0.000 C 
ATOM     21  C   UNL     1      10.123  12.635  18.239  0.00  0.00    +0.000 C 
BRANCH  21  22
ATOM     22  C   UNL     1       9.912  11.126  18.556  0.00  0.00    +0.000 C 
BRANCH  22  23
ATOM     23  C   UNL     1       8.702  10.435  17.922  0.00  0.00    +0.000 C 
BRANCH  23  24
ATOM     24  C   UNL     1       8.545   8.988  18.381  0.00  0.00    +0.000 C 
BRANCH  24  25
ATOM     25  N   UNL     1       7.716   8.266  17.402  0.00  0.00    +0.000 NA
ATOM     26  C   UNL     1       7.513   7.148  17.683  0.00  0.00    +0.000 C 
ATOM     27  S   UNL     1       7.232   5.628  18.075  0.00  0.00    +0.000 S 
ENDBRANCH  24  25
ENDBRANCH  23  24
ENDBRANCH  22  23
ENDBRANCH  21  22
ENDBRANCH   1  21
BRANCH   8  28
ATOM     28  O   UNL     1       9.924  11.850  21.907  0.00  0.00    +0.000 OA
ATOM     29  H   UNL     1       9.629  10.934  22.027  0.00  0.00    +0.000 HD
ENDBRANCH   8  28
BRANCH  15  30
ATOM     30  O   UNL     1       9.775  13.780  28.008  0.00  0.00    +0.000 OA
ATOM     31  H   UNL     1      10.159  13.018  27.544  0.00  0.00    +0.000 HD
ENDBRANCH  15  30
BRANCH  19  32
ATOM     32  O   UNL     1      11.126  16.198  23.822  0.00  0.00    +0.000 OA
ATOM     33  H   UNL     1      11.116  15.265  24.078  0.00  0.00    +0.000 HD
ENDBRANCH  19  32
TORSDOF 8
ENDMDL
MODEL 2
REMARK VINA RESULT:      -6.1      8.730      9.594
REMARK  Name = 
REMARK  11 active torsions:
REMARK  status: ('A' for Active; 'I' for Inactive)
REMARK    1  A    between atoms: C_1  and  C_2
REMARK    2  A    between atoms: C_2  and  C_3
REMARK    3  A    between atoms: C_2  and  C_9
REMARK    4  A    between atoms: C_3  and  C_4
REMARK    5  A    between atoms: C_4  and  C_5
REMARK    6  A    between atoms: C_5  and  N_6
REMARK    7  A    between atoms: C_16  and  O_17
REMARK    8  A    between atoms: C_18  and  C_19
REMARK    9  A    between atoms: C_20  and  C_21
REMARK   10  A    between atoms: C_24  and  O_25
REMARK   11  A    between atoms: C_29  and  O_30
REMARK                            x       y       z     vdW  Elec       q    Type
REMARK                         _______ _______ _______ _____ _____    ______ ____
ROOT
ATOM      1  C   UNL     1       1.699  10.101  19.094  0.00  0.00    +0.000 C 
ATOM      2  C   UNL     1       2.291  11.041  18.019  0.00  0.00    +0.000 C 
ATOM      3  C   UNL     1       1.635  12.416  18.228  0.00  0.00    +0.000 C 
ATOM      4  C   UNL     1       0.895  12.288  19.556  0.00  0.00    +0.000 C 
ATOM      5  C   UNL     1      -0.238  13.282  19.859  0.00  0.00    +0.000 C 
ATOM      6  C   UNL     1      -0.849  12.951  21.264  0.00  0.00    +0.000 C 
ATOM      7  C   UNL     1      -1.183  11.437  21.450  0.00  0.00    +0.000 C 
ATOM      8  C   UNL     1      -0.097  10.461  20.968  0.00  0.00    +0.000 C 
ATOM      9  C   UNL     1       0.389  10.820  19.548  0.00  0.00    +0.000 C 
ATOM     10  C   UNL     1      -0.795  10.634  18.563  0.00  0.00    +0.000 C 
ATOM     11  C   UNL     1      -2.067  13.892  21.599  0.00  0.00    +0.000 C 
ATOM     12  C   UNL     1      -3.258  13.641  20.632  0.00  0.00    +0.000 C 
ATOM     13  C   UNL     1      -2.629  13.644  23.031  0.00  0.00    +0.000 C 
ATOM     14  C   UNL     1      -1.674  14.049  24.144  0.00  0.00    +0.000 C 
ATOM     15  C   UNL     1      -1.305  15.521  24.021  0.00  0.00    +0.000 C 
ATOM     16  C   UNL     1      -0.709  15.832  22.651  0.00  0.00    +0.000 C 
ATOM     17  C   UNL     1      -1.612  15.386  21.485  0.00  0.00    +0.000 C 
ATOM     18  C   UNL     1      -0.952  15.708  20.127  0.00  0.00    +0.000 C 
ATOM     19  C   UNL     1       0.175  14.756  19.711  0.00  0.00    +0.000 C 
ENDROOT
BRANCH   1  21
ATOM     20  C   UNL     1       2.631   8.168  17.600  0.00  0.00    +0.000 C 
ATOM     21  C   UNL     1       1.671   8.592  18.721  0.00  0.00    +0.000 C 
BRANCH  21  22
ATOM     22  C   UNL     1       1.996   7.676  19.937  0.00  0.00    +0.000 C 
BRANCH  22  23
ATOM     23  C   UNL     1       2.375   6.222  19.643  0.00  0.00    +0.000 C 
BRANCH  23  24
ATOM     24  C   UNL     1       2.062   5.286  20.808  0.00  0.00    +0.000 C 
BRANCH  24  25
ATOM     25  N   UNL     1       0.936   4.418  20.431  0.00  0.00    +0.000 NA
ATOM     26  C   UNL     1       1.217   3.580  19.664  0.00  0.00    +0.000 C 
ATOM     27  S   UNL     1       1.608   2.435  18.624  0.00  0.00    +0.000 S 
ENDBRANCH  24  25
ENDBRANCH  23  24
ENDBRANCH  22  23
ENDBRANCH  21  22
ENDBRANCH   1  21
BRANCH   8  28
ATOM     28  O   UNL     1       0.966  10.431  21.920  0.00  0.00    +0.000 OA
ATOM     29  H   UNL     1       1.531   9.661  21.748  0.00  0.00    +0.000 HD
ENDBRANCH   8  28
BRANCH  15  30
ATOM     30  O   UNL     1      -0.367  15.861  25.035  0.00  0.00    +0.000 OA
ATOM     31  H   UNL     1       0.207  15.093  25.192  0.00  0.00    +0.000 HD
ENDBRANCH  15  30
BRANCH  19  32
ATOM     32  O   UNL     1       1.380  15.071  20.397  0.00  0.00    +0.000 OA
ATOM     33  H   UNL     1       1.202  15.731  21.082  0.00  0.00    +0.000 HD
ENDBRANCH  19  32
TORSDOF 8
ENDMDL
MODEL 3
REMARK VINA RESULT:      -6.1     10.506     12.310
REMARK  Name = 
REMARK  11 active torsions:
REMARK  status: ('A' for Active; 'I' for Inactive)
REMARK    1  A    between atoms: C_1  and  C_2
REMARK    2  A    between atoms: C_2  and  C_3
REMARK    3  A    between atoms: C_2  and  C_9
REMARK    4  A    between atoms: C_3  and  C_4
REMARK    5  A    between atoms: C_4  and  C_5
REMARK    6  A    between atoms: C_5  and  N_6
REMARK    7  A    between atoms: C_16  and  O_17
REMARK    8  A    between atoms: C_18  and  C_19
REMARK    9  A    between atoms: C_20  and  C_21
REMARK   10  A    between atoms: C_24  and  O_25
REMARK   11  A    between atoms: C_29  and  O_30
REMARK                            x       y       z     vdW  Elec       q    Type
REMARK                         _______ _______ _______ _____ _____    ______ ____
ROOT
ATOM      1  C   UNL     1      -0.789  10.960  20.447  0.00  0.00    +0.000 C 
ATOM      2  C   UNL     1      -0.677  10.106  21.731  0.00  0.00    +0.000 C 
ATOM      3  C   UNL     1      -1.251  10.956  22.876  0.00  0.00    +0.000 C 
ATOM      4  C   UNL     1      -1.899  12.149  22.179  0.00  0.00    +0.000 C 
ATOM      5  C   UNL     1      -2.159  13.421  23.000  0.00  0.00    +0.000 C 
ATOM      6  C   UNL     1      -2.818  14.503  22.076  0.00  0.00    +0.000 C 
ATOM      7  C   UNL     1      -2.071  14.692  20.719  0.00  0.00    +0.000 C 
ATOM      8  C   UNL     1      -1.663  13.391  20.007  0.00  0.00    +0.000 C 
ATOM      9  C   UNL     1      -0.956  12.421  20.976  0.00  0.00    +0.000 C 
ATOM     10  C   UNL     1       0.376  13.070  21.436  0.00  0.00    +0.000 C 
ATOM     11  C   UNL     1      -3.042  15.859  22.846  0.00  0.00    +0.000 C 
ATOM     12  C   UNL     1      -1.689  16.514  23.241  0.00  0.00    +0.000 C 
ATOM     13  C   UNL     1      -3.782  16.917  21.974  0.00  0.00    +0.000 C 
ATOM     14  C   UNL     1      -5.226  16.554  21.663  0.00  0.00    +0.000 C 
ATOM     15  C   UNL     1      -6.016  16.354  22.950  0.00  0.00    +0.000 C 
ATOM     16  C   UNL     1      -5.368  15.298  23.841  0.00  0.00    +0.000 C 
ATOM     17  C   UNL     1      -3.884  15.587  24.137  0.00  0.00    +0.000 C 
ATOM     18  C   UNL     1      -3.277  14.480  25.024  0.00  0.00    +0.000 C 
ATOM     19  C   UNL     1      -2.948  13.171  24.297  0.00  0.00    +0.000 C 
ENDROOT
BRANCH   1  21
ATOM     20  C   UNL     1       1.234   9.504  19.657  0.00  0.00    +0.000 C 
ATOM     21  C   UNL     1       0.258  10.645  19.341  0.00  0.00    +0.000 C 
BRANCH  21  22
ATOM     22  C   UNL     1      -0.409  10.281  17.983  0.00  0.00    +0.000 C 
BRANCH  22  23
ATOM     23  C   UNL     1      -1.930  10.102  17.970  0.00  0.00    +0.000 C 
BRANCH  23  24
ATOM     24  C   UNL     1      -2.476   9.820  16.572  0.00  0.00    +0.000 C 
BRANCH  24  25
ATOM     25  N   UNL     1      -3.107  11.045  16.054  0.00  0.00    +0.000 NA
ATOM     26  C   UNL     1      -4.112  11.324  16.585  0.00  0.00    +0.000 C 
ATOM     27  S   UNL     1      -5.477  11.704  17.317  0.00  0.00    +0.000 S 
ENDBRANCH  24  25
ENDBRANCH  23  24
ENDBRANCH  22  23
ENDBRANCH  21  22
ENDBRANCH   1  21
BRANCH   8  28
ATOM     28  O   UNL     1      -2.812  12.810  19.392  0.00  0.00    +0.000 OA
ATOM     29  H   UNL     1      -2.927  13.187  18.505  0.00  0.00    +0.000 HD
ENDBRANCH   8  28
BRANCH  15  30
ATOM     30  O   UNL     1      -7.345  15.958  22.633  0.00  0.00    +0.000 OA
ATOM     31  H   UNL     1      -7.502  16.136  21.691  0.00  0.00    +0.000 HD
ENDBRANCH  15  30
BRANCH  19  32
ATOM     32  O   UNL     1      -4.124  12.398  24.096  0.00  0.00    +0.000 OA
ATOM     33  H   UNL     1      -4.007  11.519  24.484  0.00  0.00    +0.000 HD
ENDBRANCH  19  32
TORSDOF 8
ENDMDL
MODEL 4
REMARK VINA RESULT:      -6.0      8.414      9.602
REMARK  Name = 
REMARK  11 active torsions:
REMARK  status: ('A' for Active; 'I' for Inactive)
REMARK    1  A    between atoms: C_1  and  C_2
REMARK    2  A    between atoms: C_2  and  C_3
REMARK    3  A    between atoms: C_2  and  C_9
REMARK    4  A    between atoms: C_3  and  C_4
REMARK    5  A    between atoms: C_4  and  C_5
REMARK    6  A    between atoms: C_5  and  N_6
REMARK    7  A    between atoms: C_16  and  O_17
REMARK    8  A    between atoms: C_18  and  C_19
REMARK    9  A    between atoms: C_20  and  C_21
REMARK   10  A    between atoms: C_24  and  O_25
REMARK   11  A    between atoms: C_29  and  O_30
REMARK                            x       y       z     vdW  Elec       q    Type
REMARK                         _______ _______ _______ _____ _____    ______ ____
ROOT
ATOM      1  C   UNL     1       0.851  11.005  20.410  0.00  0.00    +0.000 C 
ATOM      2  C   UNL     1       1.806  11.945  19.639  0.00  0.00    +0.000 C 
ATOM      3  C   UNL     1       1.432  13.381  20.044  0.00  0.00    +0.000 C 
ATOM      4  C   UNL     1       0.464  13.208  21.211  0.00  0.00    +0.000 C 
ATOM      5  C   UNL     1      -0.465  14.379  21.566  0.00  0.00    +0.000 C 
ATOM      6  C   UNL     1      -1.366  13.968  22.781  0.00  0.00    +0.000 C 
ATOM      7  C   UNL     1      -2.042  12.572  22.604  0.00  0.00    +0.000 C 
ATOM      8  C   UNL     1      -1.122  11.460  22.072  0.00  0.00    +0.000 C 
ATOM      9  C   UNL     1      -0.334  11.931  20.833  0.00  0.00    +0.000 C 
ATOM     10  C   UNL     1      -1.342  12.211  19.687  0.00  0.00    +0.000 C 
ATOM     11  C   UNL     1      -2.394  15.105  23.147  0.00  0.00    +0.000 C 
ATOM     12  C   UNL     1      -3.426  15.321  22.004  0.00  0.00    +0.000 C 
ATOM     13  C   UNL     1      -3.235  14.757  24.411  0.00  0.00    +0.000 C 
ATOM     14  C   UNL     1      -2.422  14.719  25.697  0.00  0.00    +0.000 C 
ATOM     15  C   UNL     1      -1.732  16.056  25.931  0.00  0.00    +0.000 C 
ATOM     16  C   UNL     1      -0.857  16.445  24.744  0.00  0.00    +0.000 C 
ATOM     17  C   UNL     1      -1.619  16.440  23.405  0.00  0.00    +0.000 C 
ATOM     18  C   UNL     1      -0.681  16.822  22.240  0.00  0.00    +0.000 C 
ATOM     19  C   UNL     1       0.272  15.712  21.782  0.00  0.00    +0.000 C 
ENDROOT
BRANCH   1  21
ATOM     20  C   UNL     1       0.888   9.560  18.232  0.00  0.00    +0.000 C 
ATOM     21  C   UNL     1       0.568   9.636  19.730  0.00  0.00    +0.000 C 
BRANCH  21  22
ATOM     22  C   UNL     1       1.352   8.470  20.400  0.00  0.00    +0.000 C 
BRANCH  22  23
ATOM     23  C   UNL     1       2.199   7.576  19.489  0.00  0.00    +0.000 C 
BRANCH  23  24
ATOM     24  C   UNL     1       2.185   6.113  19.924  0.00  0.00    +0.000 C 
BRANCH  24  25
ATOM     25  N   UNL     1       2.338   5.262  18.733  0.00  0.00    +0.000 NA
ATOM     26  C   UNL     1       1.813   4.220  18.823  0.00  0.00    +0.000 C 
ATOM     27  S   UNL     1       1.089   2.804  18.947  0.00  0.00    +0.000 S 
ENDBRANCH  24  25
ENDBRANCH  23  24
ENDBRANCH  22  23
ENDBRANCH  21  22
ENDBRANCH   1  21
BRANCH   8  28
ATOM     28  O   UNL     1      -0.271  11.010  23.125  0.00  0.00    +0.000 OA
ATOM     29  H   UNL     1      -0.727  10.324  23.637  0.00  0.00    +0.000 HD
ENDBRANCH   8  28
BRANCH  15  30
ATOM     30  O   UNL     1      -0.933  15.977  27.106  0.00  0.00    +0.000 OA
ATOM     31  H   UNL     1      -0.904  16.857  27.516  0.00  0.00    +0.000 HD
ENDBRANCH  15  30
BRANCH  19  32
ATOM     32  O   UNL     1       1.379  15.602  22.666  0.00  0.00    +0.000 OA
ATOM     33  H   UNL     1       1.370  14.733  23.093  0.00  0.00    +0.000 HD
ENDBRANCH  19  32
TORSDOF 8
ENDMDL
MODEL 5
REMARK VINA RESULT:      -6.0      8.690      9.761
REMARK  Name = 
REMARK  11 active torsions:
REMARK  status: ('A' for Active; 'I' for Inactive)
REMARK    1  A    between atoms: C_1  and  C_2
REMARK    2  A    between atoms: C_2  and  C_3
REMARK    3  A    between atoms: C_2  and  C_9
REMARK    4  A    between atoms: C_3  and  C_4
REMARK    5  A    between atoms: C_4  and  C_5
REMARK    6  A    between atoms: C_5  and  N_6
REMARK    7  A    between atoms: C_16  and  O_17
REMARK    8  A    between atoms: C_18  and  C_19
REMARK    9  A    between atoms: C_20  and  C_21
REMARK   10  A    between atoms: C_24  and  O_25
REMARK   11  A    between atoms: C_29  and  O_30
REMARK                            x       y       z     vdW  Elec       q    Type
REMARK                         _______ _______ _______ _____ _____    ______ ____
ROOT
ATOM      1  C   UNL     1       0.725  11.072  20.267  0.00  0.00    +0.000 C 
ATOM      2  C   UNL     1       1.515  12.069  19.389  0.00  0.00    +0.000 C 
ATOM      3  C   UNL     1       1.014  13.475  19.759  0.00  0.00    +0.000 C 
ATOM      4  C   UNL     1       0.153  13.258  21.000  0.00  0.00    +0.000 C 
ATOM      5  C   UNL     1      -0.874  14.338  21.374  0.00  0.00    +0.000 C 
ATOM      6  C   UNL     1      -1.639  13.894  22.668  0.00  0.00    +0.000 C 
ATOM      7  C   UNL     1      -2.167  12.427  22.600  0.00  0.00    +0.000 C 
ATOM      8  C   UNL     1      -1.168  11.394  22.049  0.00  0.00    +0.000 C 
ATOM      9  C   UNL     1      -0.523  11.885  20.736  0.00  0.00    +0.000 C 
ATOM     10  C   UNL     1      -1.632  11.998  19.657  0.00  0.00    +0.000 C 
ATOM     11  C   UNL     1      -2.759  14.931  23.060  0.00  0.00    +0.000 C 
ATOM     12  C   UNL     1      -3.884  14.978  21.988  0.00  0.00    +0.000 C 
ATOM     13  C   UNL     1      -3.467  14.558  24.396  0.00  0.00    +0.000 C 
ATOM     14  C   UNL     1      -2.570  14.672  25.619  0.00  0.00    +0.000 C 
ATOM     15  C   UNL     1      -2.017  16.085  25.746  0.00  0.00    +0.000 C 
ATOM     16  C   UNL     1      -1.273  16.506  24.482  0.00  0.00    +0.000 C 
ATOM     17  C   UNL     1      -2.120  16.352  23.205  0.00  0.00    +0.000 C 
ATOM     18  C   UNL     1      -1.312  16.774  21.958  0.00  0.00    +0.000 C 
ATOM     19  C   UNL     1      -0.276  15.752  21.478  0.00  0.00    +0.000 C 
ENDROOT
BRANCH   1  21
ATOM     20  C   UNL     1       1.163   9.431  18.279  0.00  0.00    +0.000 C 
ATOM     21  C   UNL     1       0.549   9.647  19.668  0.00  0.00    +0.000 C 
BRANCH  21  22
ATOM     22  C   UNL     1       1.151   8.543  20.584  0.00  0.00    +0.000 C 
BRANCH  22  23
ATOM     23  C   UNL     1       2.084   7.518  19.932  0.00  0.00    +0.000 C 
BRANCH  23  24
ATOM     24  C   UNL     1       1.890   6.110  20.488  0.00  0.00    +0.000 C 
BRANCH  24  25
ATOM     25  N   UNL     1       2.366   5.136  19.492  0.00  0.00    +0.000 NA
ATOM     26  C   UNL     1       3.527   5.139  19.341  0.00  0.00    +0.000 C 
ATOM     27  S   UNL     1       5.109   5.141  19.145  0.00  0.00    +0.000 S 
ENDBRANCH  24  25
ENDBRANCH  23  24
ENDBRANCH  22  23
ENDBRANCH  21  22
ENDBRANCH   1  21
BRANCH   8  28
ATOM     28  O   UNL     1      -0.202  11.091  23.054  0.00  0.00    +0.000 OA
ATOM     29  H   UNL     1       0.687  11.131  22.668  0.00  0.00    +0.000 HD
ENDBRANCH   8  28
BRANCH  15  30
ATOM     30  O   UNL     1      -1.135  16.151  26.861  0.00  0.00    +0.000 OA
ATOM     31  H   UNL     1      -0.923  17.084  27.029  0.00  0.00    +0.000 HD
ENDBRANCH  15  30
BRANCH  19  32
ATOM     32  O   UNL     1       0.894  15.805  22.283  0.00  0.00    +0.000 OA
ATOM     33  H   UNL     1       0.731  16.359  23.060  0.00  0.00    +0.000 HD
ENDBRANCH  19  32
TORSDOF 8
ENDMDL
MODEL 6
REMARK VINA RESULT:      -5.9      8.689      9.660
REMARK  Name = 
REMARK  11 active torsions:
REMARK  status: ('A' for Active; 'I' for Inactive)
REMARK    1  A    between atoms: C_1  and  C_2
REMARK    2  A    between atoms: C_2  and  C_3
REMARK    3  A    between atoms: C_2  and  C_9
REMARK    4  A    between atoms: C_3  and  C_4
REMARK    5  A    between atoms: C_4  and  C_5
REMARK    6  A    between atoms: C_5  and  N_6
REMARK    7  A    between atoms: C_16  and  O_17
REMARK    8  A    between atoms: C_18  and  C_19
REMARK    9  A    between atoms: C_20  and  C_21
REMARK   10  A    between atoms: C_24  and  O_25
REMARK   11  A    between atoms: C_29  and  O_30
REMARK                            x       y       z     vdW  Elec       q    Type
REMARK                         _______ _______ _______ _____ _____    ______ ____
ROOT
ATOM      1  C   UNL     1       1.898   9.077  19.150  0.00  0.00    +0.000 C 
ATOM      2  C   UNL     1       2.520   9.811  17.939  0.00  0.00    +0.000 C 
ATOM      3  C   UNL     1       1.934  11.233  17.938  0.00  0.00    +0.000 C 
ATOM      4  C   UNL     1       1.207  11.347  19.275  0.00  0.00    +0.000 C 
ATOM      5  C   UNL     1       0.128  12.430  19.428  0.00  0.00    +0.000 C 
ATOM      6  C   UNL     1      -0.479  12.350  20.871  0.00  0.00    +0.000 C 
ATOM      7  C   UNL     1      -0.883  10.901  21.290  0.00  0.00    +0.000 C 
ATOM      8  C   UNL     1       0.148   9.809  20.957  0.00  0.00    +0.000 C 
ATOM      9  C   UNL     1       0.631   9.922  19.496  0.00  0.00    +0.000 C 
ATOM     10  C   UNL     1      -0.574   9.646  18.559  0.00  0.00    +0.000 C 
ATOM     11  C   UNL     1      -1.646  13.391  21.064  0.00  0.00    +0.000 C 
ATOM     12  C   UNL     1      -2.861  13.053  20.155  0.00  0.00    +0.000 C 
ATOM     13  C   UNL     1      -2.200  13.393  22.520  0.00  0.00    +0.000 C 
ATOM     14  C   UNL     1      -1.211  13.917  23.552  0.00  0.00    +0.000 C 
ATOM     15  C   UNL     1      -0.773  15.332  23.201  0.00  0.00    +0.000 C 
ATOM     16  C   UNL     1      -0.182  15.400  21.796  0.00  0.00    +0.000 C 
ATOM     17  C   UNL     1      -1.121  14.825  20.719  0.00  0.00    +0.000 C 
ATOM     18  C   UNL     1      -0.465  14.901  19.324  0.00  0.00    +0.000 C 
ATOM     19  C   UNL     1       0.609  13.842  19.051  0.00  0.00    +0.000 C 
ENDROOT
BRANCH   1  21
ATOM     20  C   UNL     1       2.837   6.874  18.102  0.00  0.00    +0.000 C 
ATOM     21  C   UNL     1       1.794   7.532  19.014  0.00  0.00    +0.000 C 
BRANCH  21  22
ATOM     22  C   UNL     1       1.903   6.809  20.388  0.00  0.00    +0.000 C 
BRANCH  22  23
ATOM     23  C   UNL     1       2.299   5.330  20.376  0.00  0.00    +0.000 C 
BRANCH  23  24
ATOM     24  C   UNL     1       1.099   4.399  20.524  0.00  0.00    +0.000 C 
BRANCH  24  25
ATOM     25  N   UNL     1       1.569   3.005  20.476  0.00  0.00    +0.000 NA
ATOM     26  C   UNL     1       1.985   2.680  19.431  0.00  0.00    +0.000 C 
ATOM     27  S   UNL     1       2.558   2.244  18.008  0.00  0.00    +0.000 S 
ENDBRANCH  24  25
ENDBRANCH  23  24
ENDBRANCH  22  23
ENDBRANCH  21  22
ENDBRANCH   1  21
BRANCH   8  28
ATOM     28  O   UNL     1       1.221   9.874  21.896  0.00  0.00    +0.000 OA
ATOM     29  H   UNL     1       1.854  10.554  21.614  0.00  0.00    +0.000 HD
ENDBRANCH   8  28
BRANCH  15  30
ATOM     30  O   UNL     1       0.194  15.777  24.146  0.00  0.00    +0.000 OA
ATOM     31  H   UNL     1       0.829  16.350  23.687  0.00  0.00    +0.000 HD
ENDBRANCH  15  30
BRANCH  19  32
ATOM     32  O   UNL     1       1.837  14.198  19.673  0.00  0.00    +0.000 OA
ATOM     33  H   UNL     1       1.688  14.925  20.296  0.00  0.00    +0.000 HD
ENDBRANCH  19  32
TORSDOF 8
ENDMDL
MODEL 7
REMARK VINA RESULT:      -5.9      9.289     10.205
REMARK  Name = 
REMARK  11 active torsions:
REMARK  status: ('A' for Active; 'I' for Inactive)
REMARK    1  A    between atoms: C_1  and  C_2
REMARK    2  A    between atoms: C_2  and  C_3
REMARK    3  A    between atoms: C_2  and  C_9
REMARK    4  A    between atoms: C_3  and  C_4
REMARK    5  A    between atoms: C_4  and  C_5
REMARK    6  A    between atoms: C_5  and  N_6
REMARK    7  A    between atoms: C_16  and  O_17
REMARK    8  A    between atoms: C_18  and  C_19
REMARK    9  A    between atoms: C_20  and  C_21
REMARK   10  A    between atoms: C_24  and  O_25
REMARK   11  A    between atoms: C_29  and  O_30
REMARK                            x       y       z     vdW  Elec       q    Type
REMARK                         _______ _______ _______ _____ _____    ______ ____
ROOT
ATOM      1  C   UNL     1      -0.224  11.800  19.738  0.00  0.00    +0.000 C 
ATOM      2  C   UNL     1       0.092  12.838  18.636  0.00  0.00    +0.000 C 
ATOM      3  C   UNL     1      -0.452  14.187  19.134  0.00  0.00    +0.000 C 
ATOM      4  C   UNL     1      -0.824  13.935  20.592  0.00  0.00    +0.000 C 
ATOM      5  C   UNL     1      -1.813  14.896  21.269  0.00  0.00    +0.000 C 
ATOM      6  C   UNL     1      -2.046  14.434  22.749  0.00  0.00    +0.000 C 
ATOM      7  C   UNL     1      -2.359  12.910  22.877  0.00  0.00    +0.000 C 
ATOM      8  C   UNL     1      -1.461  11.983  22.041  0.00  0.00    +0.000 C 
ATOM      9  C   UNL     1      -1.352  12.474  20.583  0.00  0.00    +0.000 C 
ATOM     10  C   UNL     1      -2.756  12.383  19.928  0.00  0.00    +0.000 C 
ATOM     11  C   UNL     1      -3.111  15.341  23.475  0.00  0.00    +0.000 C 
ATOM     12  C   UNL     1      -4.518  15.183  22.834  0.00  0.00    +0.000 C 
ATOM     13  C   UNL     1      -3.288  14.959  24.975  0.00  0.00    +0.000 C 
ATOM     14  C   UNL     1      -2.066  15.256  25.832  0.00  0.00    +0.000 C 
ATOM     15  C   UNL     1      -1.704  16.733  25.751  0.00  0.00    +0.000 C 
ATOM     16  C   UNL     1      -1.477  17.172  24.308  0.00  0.00    +0.000 C 
ATOM     17  C   UNL     1      -2.663  16.838  23.383  0.00  0.00    +0.000 C 
ATOM     18  C   UNL     1      -2.371  17.286  21.935  0.00  0.00    +0.000 C 
ATOM     19  C   UNL     1      -1.415  16.378  21.153  0.00  0.00    +0.000 C 
ENDROOT
BRANCH   1  21
ATOM     20  C   UNL     1      -0.995  10.163  17.852  0.00  0.00    +0.000 C 
ATOM     21  C   UNL     1      -0.386  10.333  19.249  0.00  0.00    +0.000 C 
BRANCH  21  22
ATOM     22  C   UNL     1       0.967   9.565  19.227  0.00  0.00    +0.000 C 
BRANCH  22  23
ATOM     23  C   UNL     1       1.577   9.251  17.858  0.00  0.00    +0.000 C 
BRANCH  23  24
ATOM     24  C   UNL     1       2.655   8.171  17.929  0.00  0.00    +0.000 C 
BRANCH  24  25
ATOM     25  N   UNL     1       2.319   7.237  19.015  0.00  0.00    +0.000 NA
ATOM     26  C   UNL     1       3.090   6.365  19.148  0.00  0.00    +0.000 C 
ATOM     27  S   UNL     1       4.146   5.184  19.328  0.00  0.00    +0.000 S 
ENDBRANCH  24  25
ENDBRANCH  23  24
ENDBRANCH  22  23
ENDBRANCH  21  22
ENDBRANCH   1  21
BRANCH   8  28
ATOM     28  O   UNL     1      -0.188  11.863  22.675  0.00  0.00    +0.000 OA
ATOM     29  H   UNL     1       0.157  10.967  22.536  0.00  0.00    +0.000 HD
ENDBRANCH   8  28
BRANCH  15  30
ATOM     30  O   UNL     1      -0.526  16.974  26.512  0.00  0.00    +0.000 OA
ATOM     31  H   UNL     1       0.075  17.522  25.981  0.00  0.00    +0.000 HD
ENDBRANCH  15  30
BRANCH  19  32
ATOM     32  O   UNL     1      -0.067  16.625  21.526  0.00  0.00    +0.000 OA
ATOM     33  H   UNL     1       0.464  16.797  20.735  0.00  0.00    +0.000 HD
ENDBRANCH  19  32
TORSDOF 8
ENDMDL
MODEL 8
REMARK VINA RESULT:      -5.9      7.543      9.626
REMARK  Name = 
REMARK  11 active torsions:
REMARK  status: ('A' for Active; 'I' for Inactive)
REMARK    1  A    between atoms: C_1  and  C_2
REMARK    2  A    between atoms: C_2  and  C_3
REMARK    3  A    between atoms: C_2  and  C_9
REMARK    4  A    between atoms: C_3  and  C_4
REMARK    5  A    between atoms: C_4  and  C_5
REMARK    6  A    between atoms: C_5  and  N_6
REMARK    7  A    between atoms: C_16  and  O_17
REMARK    8  A    between atoms: C_18  and  C_19
REMARK    9  A    between atoms: C_20  and  C_21
REMARK   10  A    between atoms: C_24  and  O_25
REMARK   11  A    between atoms: C_29  and  O_30
REMARK                            x       y       z     vdW  Elec       q    Type
REMARK                         _______ _______ _______ _____ _____    ______ ____
ROOT
ATOM      1  C   UNL     1       0.624  11.081  19.644  0.00  0.00    +0.000 C 
ATOM      2  C   UNL     1      -0.596  11.288  20.571  0.00  0.00    +0.000 C 
ATOM      3  C   UNL     1      -0.743  12.806  20.771  0.00  0.00    +0.000 C 
ATOM      4  C   UNL     1       0.222  13.420  19.760  0.00  0.00    +0.000 C 
ATOM      5  C   UNL     1       0.688  14.867  19.983  0.00  0.00    +0.000 C 
ATOM      6  C   UNL     1       1.672  15.272  18.832  0.00  0.00    +0.000 C 
ATOM      7  C   UNL     1       2.790  14.213  18.576  0.00  0.00    +0.000 C 
ATOM      8  C   UNL     1       2.314  12.751  18.538  0.00  0.00    +0.000 C 
ATOM      9  C   UNL     1       1.414  12.424  19.748  0.00  0.00    +0.000 C 
ATOM     10  C   UNL     1       2.266  12.544  21.040  0.00  0.00    +0.000 C 
ATOM     11  C   UNL     1       2.243  16.725  19.046  0.00  0.00    +0.000 C 
ATOM     12  C   UNL     1       3.139  16.798  20.314  0.00  0.00    +0.000 C 
ATOM     13  C   UNL     1       3.149  17.183  17.865  0.00  0.00    +0.000 C 
ATOM     14  C   UNL     1       2.397  17.390  16.559  0.00  0.00    +0.000 C 
ATOM     15  C   UNL     1       1.286  18.415  16.739  0.00  0.00    +0.000 C 
ATOM     16  C   UNL     1       0.332  18.011  17.859  0.00  0.00    +0.000 C 
ATOM     17  C   UNL     1       1.052  17.731  19.192  0.00  0.00    +0.000 C 
ATOM     18  C   UNL     1       0.043  17.309  20.281  0.00  0.00    +0.000 C 
ATOM     19  C   UNL     1      -0.466  15.867  20.173  0.00  0.00    +0.000 C 
ENDROOT
BRANCH   1  21
ATOM     20  C   UNL     1       0.781   8.772  20.859  0.00  0.00    +0.000 C 
ATOM     21  C   UNL     1       1.366   9.724  19.808  0.00  0.00    +0.000 C 
BRANCH  21  22
ATOM     22  C   UNL     1       1.424   8.918  18.478  0.00  0.00    +0.000 C 
BRANCH  22  23
ATOM     23  C   UNL     1       2.678   8.078  18.218  0.00  0.00    +0.000 C 
BRANCH  23  24
ATOM     24  C   UNL     1       2.403   6.577  18.279  0.00  0.00    +0.000 C 
BRANCH  24  25
ATOM     25  N   UNL     1       3.055   6.023  19.476  0.00  0.00    +0.000 NA
ATOM     26  C   UNL     1       4.138   5.621  19.285  0.00  0.00    +0.000 C 
ATOM     27  S   UNL     1       5.615   5.083  19.021  0.00  0.00    +0.000 S 
ENDBRANCH  24  25
ENDBRANCH  23  24
ENDBRANCH  22  23
ENDBRANCH  21  22
ENDBRANCH   1  21
BRANCH   8  28
ATOM     28  O   UNL     1       1.669  12.497  17.291  0.00  0.00    +0.000 OA
ATOM     29  H   UNL     1       2.040  11.694  16.895  0.00  0.00    +0.000 HD
ENDBRANCH   8  28
BRANCH  15  30
ATOM     30  O   UNL     1       0.561  18.547  15.522  0.00  0.00    +0.000 OA
ATOM     31  H   UNL     1       0.690  17.739  14.999  0.00  0.00    +0.000 HD
ENDBRANCH  15  30
BRANCH  19  32
ATOM     32  O   UNL     1      -1.468  15.761  19.170  0.00  0.00    +0.000 OA
ATOM     33  H   UNL     1      -2.271  16.215  19.463  0.00  0.00    +0.000 HD
ENDBRANCH  19  32
TORSDOF 8
ENDMDL
MODEL 9
REMARK VINA RESULT:      -5.8     11.600     14.033
REMARK  Name = 
REMARK  11 active torsions:
REMARK  status: ('A' for Active; 'I' for Inactive)
REMARK    1  A    between atoms: C_1  and  C_2
REMARK    2  A    between atoms: C_2  and  C_3
REMARK    3  A    between atoms: C_2  and  C_9
REMARK    4  A    between atoms: C_3  and  C_4
REMARK    5  A    between atoms: C_4  and  C_5
REMARK    6  A    between atoms: C_5  and  N_6
REMARK    7  A    between atoms: C_16  and  O_17
REMARK    8  A    between atoms: C_18  and  C_19
REMARK    9  A    between atoms: C_20  and  C_21
REMARK   10  A    between atoms: C_24  and  O_25
REMARK   11  A    between atoms: C_29  and  O_30
REMARK                            x       y       z     vdW  Elec       q    Type
REMARK                         _______ _______ _______ _____ _____    ______ ____
ROOT
ATOM      1  C   UNL     1      -1.519  14.406  22.923  0.00  0.00    +0.000 C 
ATOM      2  C   UNL     1      -1.804  14.641  24.424  0.00  0.00    +0.000 C 
ATOM      3  C   UNL     1      -3.293  14.329  24.644  0.00  0.00    +0.000 C 
ATOM      4  C   UNL     1      -3.746  13.688  23.335  0.00  0.00    +0.000 C 
ATOM      5  C   UNL     1      -5.248  13.672  23.013  0.00  0.00    +0.000 C 
ATOM      6  C   UNL     1      -5.468  12.975  21.626  0.00  0.00    +0.000 C 
ATOM      7  C   UNL     1      -4.522  13.515  20.508  0.00  0.00    +0.000 C 
ATOM      8  C   UNL     1      -3.051  13.691  20.920  0.00  0.00    +0.000 C 
ATOM      9  C   UNL     1      -2.931  14.452  22.257  0.00  0.00    +0.000 C 
ATOM     10  C   UNL     1      -3.474  15.891  22.051  0.00  0.00    +0.000 C 
ATOM     11  C   UNL     1      -6.986  12.993  21.206  0.00  0.00    +0.000 C 
ATOM     12  C   UNL     1      -7.484  14.444  20.950  0.00  0.00    +0.000 C 
ATOM     13  C   UNL     1      -7.241  12.222  19.876  0.00  0.00    +0.000 C 
ATOM     14  C   UNL     1      -7.021  10.721  19.986  0.00  0.00    +0.000 C 
ATOM     15  C   UNL     1      -7.916  10.127  21.065  0.00  0.00    +0.000 C 
ATOM     16  C   UNL     1      -7.693  10.811  22.410  0.00  0.00    +0.000 C 
ATOM     17  C   UNL     1      -7.845  12.342  22.341  0.00  0.00    +0.000 C 
ATOM     18  C   UNL     1      -7.590  12.981  23.723  0.00  0.00    +0.000 C 
ATOM     19  C   UNL     1      -6.117  13.076  24.134  0.00  0.00    +0.000 C 
ENDROOT
BRANCH   1  21
ATOM     20  C   UNL     1       0.431  16.098  23.327  0.00  0.00    +0.000 C 
ATOM     21  C   UNL     1      -0.347  15.235  22.326  0.00  0.00    +0.000 C 
BRANCH  21  22
ATOM     22  C   UNL     1       0.708  14.340  21.614  0.00  0.00    +0.000 C 
BRANCH  22  23
ATOM     23  C   UNL     1       0.520  14.084  20.116  0.00  0.00    +0.000 C 
BRANCH  23  24
ATOM     24  C   UNL     1       1.035  15.235  19.255  0.00  0.00    +0.000 C 
BRANCH  24  25
ATOM     25  N   UNL     1       2.363  15.637  19.745  0.00  0.00    +0.000 NA
ATOM     26  C   UNL     1       3.226  15.466  18.973  0.00  0.00    +0.000 C 
ATOM     27  S   UNL     1       4.398  15.237  17.916  0.00  0.00    +0.000 S 
ENDBRANCH  24  25
ENDBRANCH  23  24
ENDBRANCH  22  23
ENDBRANCH  21  22
ENDBRANCH   1  21
BRANCH   8  28
ATOM     28  O   UNL     1      -2.417  12.413  20.960  0.00  0.00    +0.000 OA
ATOM     29  H   UNL     1      -2.031  12.272  21.839  0.00  0.00    +0.000 HD
ENDBRANCH   8  28
BRANCH  15  30
ATOM     30  O   UNL     1      -7.650   8.735  21.189  0.00  0.00    +0.000 OA
ATOM     31  H   UNL     1      -7.288   8.416  20.345  0.00  0.00    +0.000 HD
ENDBRANCH  15  30
BRANCH  19  32
ATOM     32  O   UNL     1      -5.642  11.820  24.601  0.00  0.00    +0.000 OA
ATOM     33  H   UNL     1      -6.353  11.165  24.556  0.00  0.00    +0.000 HD
ENDBRANCH  19  32
TORSDOF 8
ENDMDL
