MODEL 1
REMARK VINA RESULT:      -7.7      0.000      0.000
REMARK  Name = 
REMARK  4 active torsions:
REMARK  status: ('A' for Active; 'I' for Inactive)
REMARK    1  A    between atoms: C_2  and  C_3
REMARK    2  A    between atoms: C_6  and  C_7
REMARK    3  A    between atoms: N_14  and  C_15
REMARK    4  A    between atoms: C_21  and  C_22
REMARK                            x       y       z     vdW  Elec       q    Type
REMARK                         _______ _______ _______ _____ _____    ______ ____
ROOT
ATOM      1  C   UNL     1       2.899  15.438  18.259  0.00  0.00    +0.000 C 
ATOM      2  C   UNL     1       2.138  15.887  19.525  0.00  0.00    +0.000 C 
ATOM      3  C   UNL     1       2.334  14.914  20.683  0.00  0.00    +0.000 C 
ATOM      4  N   UNL     1       1.923  13.586  20.259  0.00  0.00    +0.000 N 
ATOM      5  C   UNL     1       1.096  12.824  21.046  0.00  0.00    +0.000 A 
ATOM      6  N   UNL     1       0.169  13.497  21.817  0.00  0.00    +0.000 NA
ATOM      7  C   UNL     1      -0.639  12.835  22.592  0.00  0.00    +0.000 A 
ATOM      8  N   UNL     1      -1.604  13.416  23.395  0.00  0.00    +0.000 N 
ATOM      9  N   UNL     1      -0.520  11.441  22.622  0.00  0.00    +0.000 N 
ATOM     10  N   UNL     1      -1.282  10.614  23.379  0.00  0.00    +0.000 NA
ATOM     11  C   UNL     1      -0.785   9.404  23.071  0.00  0.00    +0.000 A 
ATOM     12  C   UNL     1       0.280   9.465  22.138  0.00  0.00    +0.000 A 
ATOM     13  C   UNL     1       0.406  10.806  21.852  0.00  0.00    +0.000 A 
ATOM     14  N   UNL     1       1.218  11.522  21.039  0.00  0.00    +0.000 NA
ATOM     15  C   UNL     1       2.667  13.037  19.129  0.00  0.00    +0.000 C 
ATOM     16  C   UNL     1       2.496  13.978  17.933  0.00  0.00    +0.000 C 
ATOM     17  H   UNL     1      -2.198  12.745  23.880  0.00  0.00    +0.000 HD
ENDROOT
BRANCH  12  18
ATOM     18  C   UNL     1       1.057   8.400  21.582  0.00  0.00    +0.000 C 
ATOM     19  C   UNL     1       1.509   8.326  20.322  0.00  0.00    +0.000 C 
ATOM     20  N   UNL     1       1.362   9.250  19.326  0.00  0.00    +0.000 N 
ATOM     21  C   UNL     1       1.938   8.797  18.159  0.00  0.00    +0.000 C 
ATOM     22  O   UNL     1       1.930   9.369  17.083  0.00  0.00    +0.000 OA
ATOM     23  N   UNL     1       2.501   7.576  18.426  0.00  0.00    +0.000 N 
ATOM     24  C   UNL     1       2.274   7.193  19.719  0.00  0.00    +0.000 C 
ATOM     25  O   UNL     1       2.593   6.152  20.260  0.00  0.00    +0.000 OA
ATOM     26  H   UNL     1       0.788  10.084  19.391  0.00  0.00    +0.000 HD
ATOM     27  H   UNL     1       2.962   7.015  17.732  0.00  0.00    +0.000 HD
ENDBRANCH  12  18
BRANCH   1  31
ATOM     28  C   UNL     1       7.194  16.118  18.405  0.00  0.00    +0.000 A 
ATOM     29  C   UNL     1       6.706  14.941  17.845  0.00  0.00    +0.000 A 
ATOM     30  C   UNL     1       5.330  14.710  17.801  0.00  0.00    +0.000 A 
ATOM     31  C   UNL     1       4.413  15.656  18.288  0.00  0.00    +0.000 A 
ATOM     32  C   UNL     1       4.930  16.822  18.874  0.00  0.00    +0.000 A 
ATOM     33  C   UNL     1       6.307  17.057  18.926  0.00  0.00    +0.000 A 
BRANCH  28  35
ATOM     34  N   UNL     1       9.749  16.556  18.507  0.00  0.00    +0.000 NA
ATOM     35  C   UNL     1       8.607  16.359  18.456  0.00  0.00    +0.000 C 
ENDBRANCH  28  35
ENDBRANCH   1  31
BRANCH   8  36
ATOM     36  C   UNL     1      -2.149  14.716  23.008  0.00  0.00    +0.000 C 
ATOM     37  C   UNL     1      -3.235  15.381  23.807  0.00  0.00    +0.000 C 
ATOM     38  C   UNL     1      -1.840  15.938  23.825  0.00  0.00    +0.000 C 
ENDBRANCH   8  36
TORSDOF 4
ENDMDL
MODEL 2
REMARK VINA RESULT:      -7.7      4.629      7.574
REMARK  Name = 
REMARK  4 active torsions:
REMARK  status: ('A' for Active; 'I' for Inactive)
REMARK    1  A    between atoms: C_2  and  C_3
REMARK    2  A    between atoms: C_6  and  C_7
REMARK    3  A    between atoms: N_14  and  C_15
REMARK    4  A    between atoms: C_21  and  C_22
REMARK                            x       y       z     vdW  Elec       q    Type
REMARK                         _______ _______ _______ _____ _____    ______ ____
ROOT
ATOM      1  C   UNL     1       1.112  10.248  18.085  0.00  0.00    +0.000 C 
ATOM      2  C   UNL     1       1.635  11.483  18.849  0.00  0.00    +0.000 C 
ATOM      3  C   UNL     1       0.909  11.682  20.175  0.00  0.00    +0.000 C 
ATOM      4  N   UNL     1      -0.520  11.779  19.922  0.00  0.00    +0.000 N 
ATOM      5  C   UNL     1      -1.264  12.784  20.487  0.00  0.00    +0.000 A 
ATOM      6  N   UNL     1      -0.632  13.994  20.695  0.00  0.00    +0.000 NA
ATOM      7  C   UNL     1      -1.277  14.984  21.235  0.00  0.00    +0.000 A 
ATOM      8  N   UNL     1      -0.735  16.233  21.477  0.00  0.00    +0.000 N 
ATOM      9  N   UNL     1      -2.611  14.771  21.603  0.00  0.00    +0.000 N 
ATOM     10  N   UNL     1      -3.414  15.699  22.179  0.00  0.00    +0.000 NA
ATOM     11  C   UNL     1      -4.562  15.022  22.344  0.00  0.00    +0.000 A 
ATOM     12  C   UNL     1      -4.486  13.684  21.886  0.00  0.00    +0.000 A 
ATOM     13  C   UNL     1      -3.208  13.567  21.388  0.00  0.00    +0.000 A 
ATOM     14  N   UNL     1      -2.513  12.561  20.804  0.00  0.00    +0.000 NA
ATOM     15  C   UNL     1      -1.120  10.605  19.296  0.00  0.00    +0.000 C 
ATOM     16  C   UNL     1      -0.427  10.365  17.952  0.00  0.00    +0.000 C 
ATOM     17  H   UNL     1      -1.404  16.913  21.836  0.00  0.00    +0.000 HD
ENDROOT
BRANCH  12  18
ATOM     18  C   UNL     1      -5.489  12.664  21.900  0.00  0.00    +0.000 C 
ATOM     19  C   UNL     1      -6.178  12.218  20.840  0.00  0.00    +0.000 C 
ATOM     20  N   UNL     1      -6.049  12.605  19.536  0.00  0.00    +0.000 N 
ATOM     21  C   UNL     1      -6.959  11.941  18.742  0.00  0.00    +0.000 C 
ATOM     22  O   UNL     1      -7.125  12.104  17.546  0.00  0.00    +0.000 OA
ATOM     23  N   UNL     1      -7.658  11.082  19.550  0.00  0.00    +0.000 N 
ATOM     24  C   UNL     1      -7.265  11.193  20.856  0.00  0.00    +0.000 C 
ATOM     25  O   UNL     1      -7.714  10.613  21.826  0.00  0.00    +0.000 OA
ATOM     26  H   UNL     1      -5.469  13.372  19.215  0.00  0.00    +0.000 HD
ATOM     27  H   UNL     1      -8.405  10.497  19.222  0.00  0.00    +0.000 HD
ENDBRANCH  12  18
BRANCH   1  31
ATOM     28  C   UNL     1       2.471   6.388  19.562  0.00  0.00    +0.000 A 
ATOM     29  C   UNL     1       1.826   7.264  20.430  0.00  0.00    +0.000 A 
ATOM     30  C   UNL     1       1.394   8.508  19.968  0.00  0.00    +0.000 A 
ATOM     31  C   UNL     1       1.570   8.893  18.629  0.00  0.00    +0.000 A 
ATOM     32  C   UNL     1       2.249   8.004  17.779  0.00  0.00    +0.000 A 
ATOM     33  C   UNL     1       2.689   6.759  18.238  0.00  0.00    +0.000 A 
BRANCH  28  35
ATOM     34  N   UNL     1       3.291   4.075  20.407  0.00  0.00    +0.000 NA
ATOM     35  C   UNL     1       2.921   5.110  20.033  0.00  0.00    +0.000 C 
ENDBRANCH  28  35
ENDBRANCH   1  31
BRANCH   8  36
ATOM     36  C   UNL     1       0.380  16.686  20.647  0.00  0.00    +0.000 C 
ATOM     37  C   UNL     1       0.189  17.720  19.571  0.00  0.00    +0.000 C 
ATOM     38  C   UNL     1       0.941  18.068  20.824  0.00  0.00    +0.000 C 
ENDBRANCH   8  36
TORSDOF 4
ENDMDL
MODEL 3
REMARK VINA RESULT:      -7.4      5.160      7.597
REMARK  Name = 
REMARK  4 active torsions:
REMARK  status: ('A' for Active; 'I' for Inactive)
REMARK    1  A    between atoms: C_2  and  C_3
REMARK    2  A    between atoms: C_6  and  C_7
REMARK    3  A    between atoms: N_14  and  C_15
REMARK    4  A    between atoms: C_21  and  C_22
REMARK                            x       y       z     vdW  Elec       q    Type
REMARK                         _______ _______ _______ _____ _____    ______ ____
ROOT
ATOM      1  C   UNL     1       0.899  12.054  20.304  0.00  0.00    +0.000 C 
ATOM      2  C   UNL     1       0.384  11.851  18.862  0.00  0.00    +0.000 C 
ATOM      3  C   UNL     1      -0.787  12.773  18.541  0.00  0.00    +0.000 C 
ATOM      4  N   UNL     1      -1.842  12.555  19.517  0.00  0.00    +0.000 N 
ATOM      5  C   UNL     1      -3.143  12.378  19.115  0.00  0.00    +0.000 A 
ATOM      6  N   UNL     1      -3.345  11.758  17.898  0.00  0.00    +0.000 NA
ATOM      7  C   UNL     1      -4.552  11.568  17.454  0.00  0.00    +0.000 A 
ATOM      8  N   UNL     1      -4.857  10.951  16.255  0.00  0.00    +0.000 N 
ATOM      9  N   UNL     1      -5.616  12.024  18.241  0.00  0.00    +0.000 N 
ATOM     10  N   UNL     1      -6.927  11.906  17.916  0.00  0.00    +0.000 NA
ATOM     11  C   UNL     1      -7.536  12.493  18.960  0.00  0.00    +0.000 A 
ATOM     12  C   UNL     1      -6.624  12.981  19.929  0.00  0.00    +0.000 A 
ATOM     13  C   UNL     1      -5.386  12.635  19.436  0.00  0.00    +0.000 A 
ATOM     14  N   UNL     1      -4.117  12.799  19.879  0.00  0.00    +0.000 NA
ATOM     15  C   UNL     1      -1.472  12.828  20.902  0.00  0.00    +0.000 C 
ATOM     16  C   UNL     1      -0.298  11.919  21.278  0.00  0.00    +0.000 C 
ATOM     17  H   UNL     1      -5.856  10.819  16.099  0.00  0.00    +0.000 HD
ENDROOT
BRANCH  12  18
ATOM     18  C   UNL     1      -6.889  13.664  21.158  0.00  0.00    +0.000 C 
ATOM     19  C   UNL     1      -6.302  13.422  22.338  0.00  0.00    +0.000 C 
ATOM     20  N   UNL     1      -5.315  12.518  22.612  0.00  0.00    +0.000 N 
ATOM     21  C   UNL     1      -4.995  12.542  23.952  0.00  0.00    +0.000 C 
ATOM     22  O   UNL     1      -4.190  11.819  24.513  0.00  0.00    +0.000 OA
ATOM     23  N   UNL     1      -5.765  13.511  24.540  0.00  0.00    +0.000 N 
ATOM     24  C   UNL     1      -6.612  14.094  23.637  0.00  0.00    +0.000 C 
ATOM     25  O   UNL     1      -7.453  14.947  23.840  0.00  0.00    +0.000 OA
ATOM     26  H   UNL     1      -4.967  11.826  21.957  0.00  0.00    +0.000 HD
ATOM     27  H   UNL     1      -5.746  13.713  25.524  0.00  0.00    +0.000 HD
ENDBRANCH  12  18
BRANCH   1  31
ATOM     28  C   UNL     1       3.281  15.649  20.880  0.00  0.00    +0.000 A 
ATOM     29  C   UNL     1       2.279  15.338  21.794  0.00  0.00    +0.000 A 
ATOM     30  C   UNL     1       1.504  14.192  21.613  0.00  0.00    +0.000 A 
ATOM     31  C   UNL     1       1.728  13.318  20.536  0.00  0.00    +0.000 A 
ATOM     32  C   UNL     1       2.725  13.668  19.611  0.00  0.00    +0.000 A 
ATOM     33  C   UNL     1       3.501  14.818  19.784  0.00  0.00    +0.000 A 
BRANCH  28  35
ATOM     34  N   UNL     1       4.731  17.777  21.199  0.00  0.00    +0.000 NA
ATOM     35  C   UNL     1       4.078  16.828  21.058  0.00  0.00    +0.000 C 
ENDBRANCH  28  35
ENDBRANCH   1  31
BRANCH   8  36
ATOM     36  C   UNL     1      -3.906   9.992  15.698  0.00  0.00    +0.000 C 
ATOM     37  C   UNL     1      -3.666   9.894  14.216  0.00  0.00    +0.000 C 
ATOM     38  C   UNL     1      -2.607  10.469  15.113  0.00  0.00    +0.000 C 
ENDBRANCH   8  36
TORSDOF 4
ENDMDL
MODEL 4
REMARK VINA RESULT:      -7.4      1.772      2.565
REMARK  Name = 
REMARK  4 active torsions:
REMARK  status: ('A' for Active; 'I' for Inactive)
REMARK    1  A    between atoms: C_2  and  C_3
REMARK    2  A    between atoms: C_6  and  C_7
REMARK    3  A    between atoms: N_14  and  C_15
REMARK    4  A    between atoms: C_21  and  C_22
REMARK                            x       y       z     vdW  Elec       q    Type
REMARK                         _______ _______ _______ _____ _____    ______ ____
ROOT
ATOM      1  C   UNL     1       2.049  16.088  19.432  0.00  0.00    +0.000 C 
ATOM      2  C   UNL     1       1.274  15.865  20.748  0.00  0.00    +0.000 C 
ATOM      3  C   UNL     1       1.721  14.595  21.464  0.00  0.00    +0.000 C 
ATOM      4  N   UNL     1       1.572  13.465  20.561  0.00  0.00    +0.000 N 
ATOM      5  C   UNL     1       0.958  12.311  20.979  0.00  0.00    +0.000 A 
ATOM      6  N   UNL     1      -0.050  12.439  21.914  0.00  0.00    +0.000 NA
ATOM      7  C   UNL     1      -0.666  11.384  22.359  0.00  0.00    +0.000 A 
ATOM      8  N   UNL     1      -1.690  11.410  23.289  0.00  0.00    +0.000 N 
ATOM      9  N   UNL     1      -0.262  10.137  21.870  0.00  0.00    +0.000 N 
ATOM     10  N   UNL     1      -0.800   8.948  22.237  0.00  0.00    +0.000 NA
ATOM     11  C   UNL     1      -0.081   8.072  21.516  0.00  0.00    +0.000 A 
ATOM     12  C   UNL     1       0.903   8.696  20.709  0.00  0.00    +0.000 A 
ATOM     13  C   UNL     1       0.736  10.042  20.949  0.00  0.00    +0.000 A 
ATOM     14  N   UNL     1       1.345  11.161  20.490  0.00  0.00    +0.000 NA
ATOM     15  C   UNL     1       2.358  13.544  19.333  0.00  0.00    +0.000 C 
ATOM     16  C   UNL     1       1.940  14.805  18.571  0.00  0.00    +0.000 C 
ATOM     17  H   UNL     1      -2.109  10.498  23.467  0.00  0.00    +0.000 HD
ENDROOT
BRANCH  12  18
ATOM     18  C   UNL     1       1.854   8.102  19.821  0.00  0.00    +0.000 C 
ATOM     19  C   UNL     1       2.301   6.840  19.871  0.00  0.00    +0.000 C 
ATOM     20  N   UNL     1       1.924   5.852  20.737  0.00  0.00    +0.000 N 
ATOM     21  C   UNL     1       2.634   4.697  20.492  0.00  0.00    +0.000 C 
ATOM     22  O   UNL     1       2.561   3.659  21.126  0.00  0.00    +0.000 OA
ATOM     23  N   UNL     1       3.453   4.938  19.420  0.00  0.00    +0.000 N 
ATOM     24  C   UNL     1       3.336   6.229  18.981  0.00  0.00    +0.000 C 
ATOM     25  O   UNL     1       3.951   6.776  18.088  0.00  0.00    +0.000 OA
ATOM     26  H   UNL     1       1.316   5.988  21.538  0.00  0.00    +0.000 HD
ATOM     27  H   UNL     1       4.100   4.263  19.054  0.00  0.00    +0.000 HD
ENDBRANCH  12  18
BRANCH   1  31
ATOM     28  C   UNL     1       6.150  17.496  19.794  0.00  0.00    +0.000 A 
ATOM     29  C   UNL     1       5.212  17.871  20.751  0.00  0.00    +0.000 A 
ATOM     30  C   UNL     1       3.891  17.431  20.638  0.00  0.00    +0.000 A 
ATOM     31  C   UNL     1       3.486  16.589  19.590  0.00  0.00    +0.000 A 
ATOM     32  C   UNL     1       4.445  16.249  18.621  0.00  0.00    +0.000 A 
ATOM     33  C   UNL     1       5.767  16.690  18.724  0.00  0.00    +0.000 A 
BRANCH  28  35
ATOM     34  N   UNL     1       8.602  18.322  19.989  0.00  0.00    +0.000 NA
ATOM     35  C   UNL     1       7.507  17.948  19.901  0.00  0.00    +0.000 C 
ENDBRANCH  28  35
ENDBRANCH   1  31
BRANCH   8  36
ATOM     36  C   UNL     1      -2.508  12.616  23.397  0.00  0.00    +0.000 C 
ATOM     37  C   UNL     1      -3.816  12.745  22.666  0.00  0.00    +0.000 C 
ATOM     38  C   UNL     1      -3.802  12.585  24.160  0.00  0.00    +0.000 C 
ENDBRANCH   8  36
TORSDOF 4
ENDMDL
MODEL 5
REMARK VINA RESULT:      -7.3      1.510      2.173
REMARK  Name = 
REMARK  4 active torsions:
REMARK  status: ('A' for Active; 'I' for Inactive)
REMARK    1  A    between atoms: C_2  and  C_3
REMARK    2  A    between atoms: C_6  and  C_7
REMARK    3  A    between atoms: N_14  and  C_15
REMARK    4  A    between atoms: C_21  and  C_22
REMARK                            x       y       z     vdW  Elec       q    Type
REMARK                         _______ _______ _______ _____ _____    ______ ____
ROOT
ATOM      1  C   UNL     1       2.734  15.600  18.566  0.00  0.00    +0.000 C 
ATOM      2  C   UNL     1       1.975  15.624  19.910  0.00  0.00    +0.000 C 
ATOM      3  C   UNL     1       2.313  14.416  20.776  0.00  0.00    +0.000 C 
ATOM      4  N   UNL     1       2.030  13.202  20.027  0.00  0.00    +0.000 N 
ATOM      5  C   UNL     1       1.316  12.178  20.598  0.00  0.00    +0.000 A 
ATOM      6  N   UNL     1       0.350  12.524  21.522  0.00  0.00    +0.000 NA
ATOM      7  C   UNL     1      -0.355  11.602  22.106  0.00  0.00    +0.000 A 
ATOM      8  N   UNL     1      -1.348  11.848  23.038  0.00  0.00    +0.000 N 
ATOM      9  N   UNL     1      -0.089  10.268  21.775  0.00  0.00    +0.000 N 
ATOM     10  N   UNL     1      -0.733   9.196  22.298  0.00  0.00    +0.000 NA
ATOM     11  C   UNL     1      -0.122   8.168  21.685  0.00  0.00    +0.000 A 
ATOM     12  C   UNL     1       0.897   8.582  20.793  0.00  0.00    +0.000 A 
ATOM     13  C   UNL     1       0.871   9.957  20.861  0.00  0.00    +0.000 A 
ATOM     14  N   UNL     1       1.574  10.943  20.255  0.00  0.00    +0.000 NA
ATOM     15  C   UNL     1       2.788  13.046  18.789  0.00  0.00    +0.000 C 
ATOM     16  C   UNL     1       2.477  14.236  17.878  0.00  0.00    +0.000 C 
ATOM     17  H   UNL     1      -1.850  11.013  23.337  0.00  0.00    +0.000 HD
ENDROOT
BRANCH  12  18
ATOM     18  C   UNL     1       1.762   7.788  19.976  0.00  0.00    +0.000 C 
ATOM     19  C   UNL     1       2.119   6.517  20.206  0.00  0.00    +0.000 C 
ATOM     20  N   UNL     1       1.712   5.705  21.227  0.00  0.00    +0.000 N 
ATOM     21  C   UNL     1       2.326   4.474  21.140  0.00  0.00    +0.000 C 
ATOM     22  O   UNL     1       2.207   3.554  21.929  0.00  0.00    +0.000 OA
ATOM     23  N   UNL     1       3.110   4.485  20.016  0.00  0.00    +0.000 N 
ATOM     24  C   UNL     1       3.066   5.700  19.387  0.00  0.00    +0.000 C 
ATOM     25  O   UNL     1       3.678   6.055  18.399  0.00  0.00    +0.000 OA
ATOM     26  H   UNL     1       1.153   6.007  22.017  0.00  0.00    +0.000 HD
ATOM     27  H   UNL     1       3.690   3.714  19.738  0.00  0.00    +0.000 HD
ENDBRANCH  12  18
BRANCH   1  31
ATOM     28  C   UNL     1       6.936  16.697  18.850  0.00  0.00    +0.000 A 
ATOM     29  C   UNL     1       6.565  15.602  18.074  0.00  0.00    +0.000 A 
ATOM     30  C   UNL     1       5.221  15.238  17.983  0.00  0.00    +0.000 A 
ATOM     31  C   UNL     1       4.217  15.969  18.640  0.00  0.00    +0.000 A 
ATOM     32  C   UNL     1       4.619  17.052  19.440  0.00  0.00    +0.000 A 
ATOM     33  C   UNL     1       5.964  17.419  19.539  0.00  0.00    +0.000 A 
BRANCH  28  35
ATOM     34  N   UNL     1       9.431  17.387  19.028  0.00  0.00    +0.000 NA
ATOM     35  C   UNL     1       8.315  17.074  18.950  0.00  0.00    +0.000 C 
ENDBRANCH  28  35
ENDBRANCH   1  31
BRANCH   8  36
ATOM     36  C   UNL     1      -2.040  13.134  23.002  0.00  0.00    +0.000 C 
ATOM     37  C   UNL     1      -3.009  13.534  24.079  0.00  0.00    +0.000 C 
ATOM     38  C   UNL     1      -1.674  14.216  23.978  0.00  0.00    +0.000 C 
ENDBRANCH   8  36
TORSDOF 4
ENDMDL
MODEL 6
REMARK VINA RESULT:      -7.1      4.467      8.183
REMARK  Name = 
REMARK  4 active torsions:
REMARK  status: ('A' for Active; 'I' for Inactive)
REMARK    1  A    between atoms: C_2  and  C_3
REMARK    2  A    between atoms: C_6  and  C_7
REMARK    3  A    between atoms: N_14  and  C_15
REMARK    4  A    between atoms: C_21  and  C_22
REMARK                            x       y       z     vdW  Elec       q    Type
REMARK                         _______ _______ _______ _____ _____    ______ ____
ROOT
ATOM      1  C   UNL     1       1.653   9.397  17.949  0.00  0.00    +0.000 C 
ATOM      2  C   UNL     1       2.154  10.631  18.731  0.00  0.00    +0.000 C 
ATOM      3  C   UNL     1       1.228  10.985  19.890  0.00  0.00    +0.000 C 
ATOM      4  N   UNL     1      -0.116  11.191  19.375  0.00  0.00    +0.000 N 
ATOM      5  C   UNL     1      -0.844  12.295  19.743  0.00  0.00    +0.000 A 
ATOM      6  N   UNL     1      -0.140  13.455  19.999  0.00  0.00    +0.000 NA
ATOM      7  C   UNL     1      -0.769  14.534  20.360  0.00  0.00    +0.000 A 
ATOM      8  N   UNL     1      -0.155  15.744  20.632  0.00  0.00    +0.000 N 
ATOM      9  N   UNL     1      -2.161  14.467  20.489  0.00  0.00    +0.000 N 
ATOM     10  N   UNL     1      -2.956  15.500  20.860  0.00  0.00    +0.000 NA
ATOM     11  C   UNL     1      -4.178  14.942  20.847  0.00  0.00    +0.000 A 
ATOM     12  C   UNL     1      -4.156  13.573  20.480  0.00  0.00    +0.000 A 
ATOM     13  C   UNL     1      -2.828  13.309  20.231  0.00  0.00    +0.000 A 
ATOM     14  N   UNL     1      -2.145  12.207  19.837  0.00  0.00    +0.000 NA
ATOM     15  C   UNL     1      -0.711  10.035  18.712  0.00  0.00    +0.000 C 
ATOM     16  C   UNL     1       0.181   9.642  17.531  0.00  0.00    +0.000 C 
ATOM     17  H   UNL     1      -0.806  16.503  20.827  0.00  0.00    +0.000 HD
ENDROOT
BRANCH  12  18
ATOM     18  C   UNL     1      -5.243  12.650  20.364  0.00  0.00    +0.000 C 
ATOM     19  C   UNL     1      -6.157  12.383  21.306  0.00  0.00    +0.000 C 
ATOM     20  N   UNL     1      -6.274  12.952  22.544  0.00  0.00    +0.000 N 
ATOM     21  C   UNL     1      -7.323  12.389  23.237  0.00  0.00    +0.000 C 
ATOM     22  O   UNL     1      -7.650  12.648  24.382  0.00  0.00    +0.000 OA
ATOM     23  N   UNL     1      -7.916  11.471  22.410  0.00  0.00    +0.000 N 
ATOM     24  C   UNL     1      -7.262  11.381  21.212  0.00  0.00    +0.000 C 
ATOM     25  O   UNL     1      -7.499  10.635  20.282  0.00  0.00    +0.000 OA
ATOM     26  H   UNL     1      -5.600  13.591  22.951  0.00  0.00    +0.000 HD
ATOM     27  H   UNL     1      -8.693  10.897  22.686  0.00  0.00    +0.000 HD
ENDBRANCH  12  18
BRANCH   1  31
ATOM     28  C   UNL     1       2.316   5.532  19.835  0.00  0.00    +0.000 A 
ATOM     29  C   UNL     1       1.949   6.622  20.619  0.00  0.00    +0.000 A 
ATOM     30  C   UNL     1       1.742   7.868  20.024  0.00  0.00    +0.000 A 
ATOM     31  C   UNL     1       1.870   8.048  18.637  0.00  0.00    +0.000 A 
ATOM     32  C   UNL     1       2.270   6.940  17.871  0.00  0.00    +0.000 A 
ATOM     33  C   UNL     1       2.483   5.692  18.461  0.00  0.00    +0.000 A 
BRANCH  28  35
ATOM     34  N   UNL     1       2.712   3.210  20.922  0.00  0.00    +0.000 NA
ATOM     35  C   UNL     1       2.534   4.251  20.440  0.00  0.00    +0.000 C 
ENDBRANCH  28  35
ENDBRANCH   1  31
BRANCH   8  36
ATOM     36  C   UNL     1       1.128  16.036  19.997  0.00  0.00    +0.000 C 
ATOM     37  C   UNL     1       1.249  17.069  18.910  0.00  0.00    +0.000 C 
ATOM     38  C   UNL     1       1.827  17.338  20.271  0.00  0.00    +0.000 C 
ENDBRANCH   8  36
TORSDOF 4
ENDMDL
MODEL 7
REMARK VINA RESULT:      -7.1      3.937      7.794
REMARK  Name = 
REMARK  4 active torsions:
REMARK  status: ('A' for Active; 'I' for Inactive)
REMARK    1  A    between atoms: C_2  and  C_3
REMARK    2  A    between atoms: C_6  and  C_7
REMARK    3  A    between atoms: N_14  and  C_15
REMARK    4  A    between atoms: C_21  and  C_22
REMARK                            x       y       z     vdW  Elec       q    Type
REMARK                         _______ _______ _______ _____ _____    ______ ____
ROOT
ATOM      1  C   UNL     1      -0.087  11.029  19.419  0.00  0.00    +0.000 C 
ATOM      2  C   UNL     1       0.143  12.116  18.348  0.00  0.00    +0.000 C 
ATOM      3  C   UNL     1       1.448  12.872  18.573  0.00  0.00    +0.000 C 
ATOM      4  N   UNL     1       1.441  13.438  19.912  0.00  0.00    +0.000 N 
ATOM      5  C   UNL     1       1.788  14.750  20.119  0.00  0.00    +0.000 A 
ATOM      6  N   UNL     1       1.487  15.645  19.112  0.00  0.00    +0.000 NA
ATOM      7  C   UNL     1       1.797  16.901  19.241  0.00  0.00    +0.000 A 
ATOM      8  N   UNL     1       1.532  17.874  18.293  0.00  0.00    +0.000 N 
ATOM      9  N   UNL     1       2.449  17.296  20.414  0.00  0.00    +0.000 N 
ATOM     10  N   UNL     1       2.840  18.563  20.695  0.00  0.00    +0.000 NA
ATOM     11  C   UNL     1       3.415  18.426  21.902  0.00  0.00    +0.000 A 
ATOM     12  C   UNL     1       3.394  17.090  22.375  0.00  0.00    +0.000 A 
ATOM     13  C   UNL     1       2.734  16.390  21.389  0.00  0.00    +0.000 A 
ATOM     14  N   UNL     1       2.380  15.092  21.233  0.00  0.00    +0.000 NA
ATOM     15  C   UNL     1       1.335  12.467  20.996  0.00  0.00    +0.000 C 
ATOM     16  C   UNL     1       0.032  11.683  20.819  0.00  0.00    +0.000 C 
ATOM     17  H   UNL     1       1.775  18.818  18.590  0.00  0.00    +0.000 HD
ENDROOT
BRANCH  12  18
ATOM     18  C   UNL     1       3.909  16.555  23.598  0.00  0.00    +0.000 C 
ATOM     19  C   UNL     1       4.788  15.550  23.712  0.00  0.00    +0.000 C 
ATOM     20  N   UNL     1       5.403  14.858  22.706  0.00  0.00    +0.000 N 
ATOM     21  C   UNL     1       6.217  13.874  23.225  0.00  0.00    +0.000 C 
ATOM     22  O   UNL     1       6.858  13.060  22.584  0.00  0.00    +0.000 OA
ATOM     23  N   UNL     1       6.153  13.966  24.590  0.00  0.00    +0.000 N 
ATOM     24  C   UNL     1       5.288  14.950  24.986  0.00  0.00    +0.000 C 
ATOM     25  O   UNL     1       4.969  15.257  26.118  0.00  0.00    +0.000 OA
ATOM     26  H   UNL     1       5.184  14.955  21.721  0.00  0.00    +0.000 HD
ATOM     27  H   UNL     1       6.635  13.340  25.211  0.00  0.00    +0.000 HD
ENDBRANCH  12  18
BRANCH   1  31
ATOM     28  C   UNL     1       2.361   7.467  18.916  0.00  0.00    +0.000 A 
ATOM     29  C   UNL     1       1.852   7.775  20.174  0.00  0.00    +0.000 A 
ATOM     30  C   UNL     1       1.073   8.920  20.347  0.00  0.00    +0.000 A 
ATOM     31  C   UNL     1       0.762   9.765  19.269  0.00  0.00    +0.000 A 
ATOM     32  C   UNL     1       1.312   9.449  18.015  0.00  0.00    +0.000 A 
ATOM     33  C   UNL     1       2.098   8.307  17.836  0.00  0.00    +0.000 A 
BRANCH  28  35
ATOM     34  N   UNL     1       3.819   5.348  18.575  0.00  0.00    +0.000 NA
ATOM     35  C   UNL     1       3.166   6.294  18.732  0.00  0.00    +0.000 C 
ENDBRANCH  28  35
ENDBRANCH   1  31
BRANCH   8  36
ATOM     36  C   UNL     1       0.414  17.671  17.374  0.00  0.00    +0.000 C 
ATOM     37  C   UNL     1      -0.743  18.630  17.321  0.00  0.00    +0.000 C 
ATOM     38  C   UNL     1       0.240  18.573  16.186  0.00  0.00    +0.000 C 
ENDBRANCH   8  36
TORSDOF 4
ENDMDL
MODEL 8
REMARK VINA RESULT:      -7.0      2.568      3.349
REMARK  Name = 
REMARK  4 active torsions:
REMARK  status: ('A' for Active; 'I' for Inactive)
REMARK    1  A    between atoms: C_2  and  C_3
REMARK    2  A    between atoms: C_6  and  C_7
REMARK    3  A    between atoms: N_14  and  C_15
REMARK    4  A    between atoms: C_21  and  C_22
REMARK                            x       y       z     vdW  Elec       q    Type
REMARK                         _______ _______ _______ _____ _____    ______ ____
ROOT
ATOM      1  C   UNL     1       3.820  16.712  20.004  0.00  0.00    +0.000 C 
ATOM      2  C   UNL     1       3.485  16.504  21.497  0.00  0.00    +0.000 C 
ATOM      3  C   UNL     1       2.810  15.160  21.747  0.00  0.00    +0.000 C 
ATOM      4  N   UNL     1       1.620  15.066  20.917  0.00  0.00    +0.000 N 
ATOM      5  C   UNL     1       0.424  14.657  21.452  0.00  0.00    +0.000 A 
ATOM      6  N   UNL     1       0.182  14.982  22.772  0.00  0.00    +0.000 NA
ATOM      7  C   UNL     1      -0.928  14.618  23.342  0.00  0.00    +0.000 A 
ATOM      8  N   UNL     1      -1.264  14.900  24.654  0.00  0.00    +0.000 N 
ATOM      9  N   UNL     1      -1.843  13.883  22.579  0.00  0.00    +0.000 N 
ATOM     10  N   UNL     1      -3.037  13.427  23.029  0.00  0.00    +0.000 NA
ATOM     11  C   UNL     1      -3.525  12.788  21.952  0.00  0.00    +0.000 A 
ATOM     12  C   UNL     1      -2.649  12.833  20.839  0.00  0.00    +0.000 A 
ATOM     13  C   UNL     1      -1.576  13.576  21.280  0.00  0.00    +0.000 A 
ATOM     14  N   UNL     1      -0.419  13.988  20.709  0.00  0.00    +0.000 NA
ATOM     15  C   UNL     1       1.859  15.145  19.479  0.00  0.00    +0.000 C 
ATOM     16  C   UNL     1       2.532  16.486  19.173  0.00  0.00    +0.000 C 
ATOM     17  H   UNL     1      -2.203  14.604  24.913  0.00  0.00    +0.000 HD
ENDROOT
BRANCH  12  18
ATOM     18  C   UNL     1      -2.813  12.268  19.535  0.00  0.00    +0.000 C 
ATOM     19  C   UNL     1      -1.951  11.451  18.914  0.00  0.00    +0.000 C 
ATOM     20  N   UNL     1      -0.770  10.959  19.395  0.00  0.00    +0.000 N 
ATOM     21  C   UNL     1      -0.150  10.177  18.445  0.00  0.00    +0.000 C 
ATOM     22  O   UNL     1       0.938   9.639  18.554  0.00  0.00    +0.000 OA
ATOM     23  N   UNL     1      -0.970  10.136  17.348  0.00  0.00    +0.000 N 
ATOM     24  C   UNL     1      -2.089  10.902  17.531  0.00  0.00    +0.000 C 
ATOM     25  O   UNL     1      -2.988  11.117  16.741  0.00  0.00    +0.000 OA
ATOM     26  H   UNL     1      -0.340  11.241  20.269  0.00  0.00    +0.000 HD
ATOM     27  H   UNL     1      -0.736   9.653  16.499  0.00  0.00    +0.000 HD
ENDBRANCH  12  18
BRANCH   1  31
ATOM     28  C   UNL     1       7.266  14.454  18.603  0.00  0.00    +0.000 A 
ATOM     29  C   UNL     1       6.172  14.625  17.760  0.00  0.00    +0.000 A 
ATOM     30  C   UNL     1       5.058  15.341  18.204  0.00  0.00    +0.000 A 
ATOM     31  C   UNL     1       5.022  15.922  19.482  0.00  0.00    +0.000 A 
ATOM     32  C   UNL     1       6.126  15.711  20.325  0.00  0.00    +0.000 A 
ATOM     33  C   UNL     1       7.242  14.991  19.889  0.00  0.00    +0.000 A 
BRANCH  28  35
ATOM     34  N   UNL     1       9.336  13.121  17.784  0.00  0.00    +0.000 NA
ATOM     35  C   UNL     1       8.411  13.716  18.155  0.00  0.00    +0.000 C 
ENDBRANCH  28  35
ENDBRANCH   1  31
BRANCH   8  36
ATOM     36  C   UNL     1      -0.675  16.077  25.290  0.00  0.00    +0.000 C 
ATOM     37  C   UNL     1      -1.504  17.016  26.123  0.00  0.00    +0.000 C 
ATOM     38  C   UNL     1      -0.494  16.119  26.780  0.00  0.00    +0.000 C 
ENDBRANCH   8  36
TORSDOF 4
ENDMDL
MODEL 9
REMARK VINA RESULT:      -6.9      3.634      7.911
REMARK  Name = 
REMARK  4 active torsions:
REMARK  status: ('A' for Active; 'I' for Inactive)
REMARK    1  A    between atoms: C_2  and  C_3
REMARK    2  A    between atoms: C_6  and  C_7
REMARK    3  A    between atoms: N_14  and  C_15
REMARK    4  A    between atoms: C_21  and  C_22
REMARK                            x       y       z     vdW  Elec       q    Type
REMARK                         _______ _______ _______ _____ _____    ______ ____
ROOT
ATOM      1  C   UNL     1       1.519   8.963  17.716  0.00  0.00    +0.000 C 
ATOM      2  C   UNL     1       2.372  10.203  18.059  0.00  0.00    +0.000 C 
ATOM      3  C   UNL     1       1.881  10.900  19.323  0.00  0.00    +0.000 C 
ATOM      4  N   UNL     1       0.479  11.249  19.156  0.00  0.00    +0.000 N 
ATOM      5  C   UNL     1       0.030  12.508  19.466  0.00  0.00    +0.000 A 
ATOM      6  N   UNL     1       0.911  13.554  19.277  0.00  0.00    +0.000 NA
ATOM      7  C   UNL     1       0.551  14.771  19.559  0.00  0.00    +0.000 A 
ATOM      8  N   UNL     1       1.358  15.883  19.398  0.00  0.00    +0.000 N 
ATOM      9  N   UNL     1      -0.737  14.969  20.068  0.00  0.00    +0.000 N 
ATOM     10  N   UNL     1      -1.258  16.172  20.413  0.00  0.00    +0.000 NA
ATOM     11  C   UNL     1      -2.486  15.840  20.846  0.00  0.00    +0.000 A 
ATOM     12  C   UNL     1      -2.737  14.448  20.780  0.00  0.00    +0.000 A 
ATOM     13  C   UNL     1      -1.584  13.918  20.246  0.00  0.00    +0.000 A 
ATOM     14  N   UNL     1      -1.186  12.665  19.922  0.00  0.00    +0.000 NA
ATOM     15  C   UNL     1      -0.419  10.120  18.933  0.00  0.00    +0.000 C 
ATOM     16  C   UNL     1       0.030   9.387  17.666  0.00  0.00    +0.000 C 
ATOM     17  H   UNL     1       0.890  16.766  19.597  0.00  0.00    +0.000 HD
ENDROOT
BRANCH  12  18
ATOM     18  C   UNL     1      -3.912  13.721  21.155  0.00  0.00    +0.000 C 
ATOM     19  C   UNL     1      -4.634  12.922  20.358  0.00  0.00    +0.000 C 
ATOM     20  N   UNL     1      -4.389  12.600  19.052  0.00  0.00    +0.000 N 
ATOM     21  C   UNL     1      -5.379  11.774  18.565  0.00  0.00    +0.000 C 
ATOM     22  O   UNL     1      -5.469  11.356  17.424  0.00  0.00    +0.000 OA
ATOM     23  N   UNL     1      -6.252  11.529  19.592  0.00  0.00    +0.000 N 
ATOM     24  C   UNL     1      -5.892  12.204  20.727  0.00  0.00    +0.000 C 
ATOM     25  O   UNL     1      -6.474  12.242  21.793  0.00  0.00    +0.000 OA
ATOM     26  H   UNL     1      -3.666  13.021  18.479  0.00  0.00    +0.000 HD
ATOM     27  H   UNL     1      -7.083  10.974  19.492  0.00  0.00    +0.000 HD
ENDBRANCH  12  18
BRANCH   1  31
ATOM     28  C   UNL     1       2.173   5.492  20.256  0.00  0.00    +0.000 A 
ATOM     29  C   UNL     1       2.409   5.392  18.888  0.00  0.00    +0.000 A 
ATOM     30  C   UNL     1       2.194   6.498  18.064  0.00  0.00    +0.000 A 
ATOM     31  C   UNL     1       1.767   7.730  18.586  0.00  0.00    +0.000 A 
ATOM     32  C   UNL     1       1.508   7.797  19.965  0.00  0.00    +0.000 A 
ATOM     33  C   UNL     1       1.716   6.692  20.796  0.00  0.00    +0.000 A 
BRANCH  28  35
ATOM     34  N   UNL     1       2.566   3.436  21.790  0.00  0.00    +0.000 NA
ATOM     35  C   UNL     1       2.388   4.358  21.108  0.00  0.00    +0.000 C 
ENDBRANCH  28  35
ENDBRANCH   1  31
BRANCH   8  36
ATOM     36  C   UNL     1       2.421  15.838  18.396  0.00  0.00    +0.000 C 
ATOM     37  C   UNL     1       2.697  17.008  17.492  0.00  0.00    +0.000 C 
ATOM     38  C   UNL     1       3.668  16.654  18.582  0.00  0.00    +0.000 C 
ENDBRANCH   8  36
TORSDOF 4
ENDMDL
