MODEL 1
REMARK VINA RESULT:      -7.5      0.000      0.000
REMARK  Name = 
REMARK  10 active torsions:
REMARK  status: ('A' for Active; 'I' for Inactive)
REMARK    1  A    between atoms: C_1  and  O_2
REMARK    2  A    between atoms: O_2  and  C_3
REMARK    3  A    between atoms: C_6  and  C_7
REMARK    4  A    between atoms: C_7  and  N_8
REMARK    5  A    between atoms: C_11  and  N_12
REMARK    6  A    between atoms: C_13  and  C_15
REMARK    7  A    between atoms: C_15  and  C_16
REMARK    8  A    between atoms: C_16  and  C_17
REMARK    9  A    between atoms: C_18  and  C_19
REMARK   10  A    between atoms: C_22  and  C_23
REMARK                            x       y       z     vdW  Elec       q    Type
REMARK                         _______ _______ _______ _____ _____    ______ ____
ROOT
ATOM      1  N   UNL     1       3.984   2.472  18.212  0.00  0.00    +0.000 NA
ATOM      2  C   UNL     1       2.792   1.626  18.284  0.00  0.00    +0.000 C 
ATOM      3  C   UNL     1       1.966   2.081  19.476  0.00  0.00    +0.000 C 
ATOM      4  C   UNL     1       2.920   2.817  20.407  0.00  0.00    +0.000 C 
ATOM      5  C   UNL     1       4.198   3.022  19.571  0.00  0.00    +0.000 C 
ENDROOT
BRANCH   4   6
ATOM      6  N   UNL     1       2.295   4.034  20.937  0.00  0.00    +0.000 N 
ATOM      7  C   UNL     1       1.726   4.992  20.116  0.00  0.00    +0.000 C 
ATOM      8  O   UNL     1       1.570   4.836  18.911  0.00  0.00    +0.000 OA
ATOM      9  H   UNL     1       2.632   4.366  21.830  0.00  0.00    +0.000 HD
BRANCH   7  10
ATOM     10  C   UNL     1       1.314   6.258  20.865  0.00  0.00    +0.000 C 
BRANCH  10  11
ATOM     11  C   UNL     1       2.103   7.484  20.403  0.00  0.00    +0.000 C 
BRANCH  11  12
ATOM     12  C   UNL     1       1.265   8.704  20.175  0.00  0.00    +0.000 A 
ATOM     13  C   UNL     1       1.108   9.489  18.992  0.00  0.00    +0.000 A 
ATOM     14  C   UNL     1       1.832   9.422  17.702  0.00  0.00    +0.000 C 
ATOM     15  N   UNL     1       0.180  10.440  19.153  0.00  0.00    +0.000 NA
ATOM     16  O   UNL     1      -0.225  10.355  20.465  0.00  0.00    +0.000 OA
ATOM     17  C   UNL     1       0.452   9.355  21.085  0.00  0.00    +0.000 A 
ATOM     18  C   UNL     1       0.217   9.228  22.534  0.00  0.00    +0.000 C 
ENDBRANCH  11  12
ENDBRANCH  10  11
ENDBRANCH   7  10
ENDBRANCH   4   6
BRANCH   1  19
ATOM     19  C   UNL     1       3.900   3.543  17.214  0.00  0.00    +0.000 C 
BRANCH  19  23
ATOM     20  C   UNL     1       7.033   6.426  17.023  0.00  0.00    +0.000 A 
ATOM     21  C   UNL     1       5.811   6.871  17.491  0.00  0.00    +0.000 A 
ATOM     22  C   UNL     1       4.759   5.952  17.592  0.00  0.00    +0.000 A 
ATOM     23  C   UNL     1       4.980   4.610  17.263  0.00  0.00    +0.000 A 
ATOM     24  C   UNL     1       6.262   4.271  16.835  0.00  0.00    +0.000 A 
ATOM     25  N   UNL     1       7.291   5.142  16.711  0.00  0.00    +0.000 NA
BRANCH  20  27
ATOM     26  C   UNL     1       7.797   8.526  17.678  0.00  0.00    +0.000 C 
ATOM     27  O   UNL     1       8.031   7.371  16.871  0.00  0.00    +0.000 OA
ENDBRANCH  20  27
ENDBRANCH  19  23
ENDBRANCH   1  19
TORSDOF 7
ENDMDL
MODEL 2
REMARK VINA RESULT:      -7.5      2.141      3.028
REMARK  Name = 
REMARK  10 active torsions:
REMARK  status: ('A' for Active; 'I' for Inactive)
REMARK    1  A    between atoms: C_1  and  O_2
REMARK    2  A    between atoms: O_2  and  C_3
REMARK    3  A    between atoms: C_6  and  C_7
REMARK    4  A    between atoms: C_7  and  N_8
REMARK    5  A    between atoms: C_11  and  N_12
REMARK    6  A    between atoms: C_13  and  C_15
REMARK    7  A    between atoms: C_15  and  C_16
REMARK    8  A    between atoms: C_16  and  C_17
REMARK    9  A    between atoms: C_18  and  C_19
REMARK   10  A    between atoms: C_22  and  C_23
REMARK                            x       y       z     vdW  Elec       q    Type
REMARK                         _______ _______ _______ _____ _____    ______ ____
ROOT
ATOM      1  N   UNL     1       4.167   3.759  18.239  0.00  0.00    +0.000 NA
ATOM      2  C   UNL     1       2.893   3.318  17.670  0.00  0.00    +0.000 C 
ATOM      3  C   UNL     1       1.963   4.518  17.616  0.00  0.00    +0.000 C 
ATOM      4  C   UNL     1       2.488   5.519  18.637  0.00  0.00    +0.000 C 
ATOM      5  C   UNL     1       3.881   4.983  19.024  0.00  0.00    +0.000 C 
ENDROOT
BRANCH   4   6
ATOM      6  N   UNL     1       2.451   6.882  18.097  0.00  0.00    +0.000 N 
ATOM      7  C   UNL     1       2.087   7.974  18.866  0.00  0.00    +0.000 C 
ATOM      8  O   UNL     1       1.909   7.912  20.076  0.00  0.00    +0.000 OA
ATOM      9  H   UNL     1       2.294   6.973  17.103  0.00  0.00    +0.000 HD
BRANCH   7  10
ATOM     10  C   UNL     1       1.930   9.257  18.052  0.00  0.00    +0.000 C 
BRANCH  10  11
ATOM     11  C   UNL     1       0.699  10.059  18.472  0.00  0.00    +0.000 C 
BRANCH  11  12
ATOM     12  C   UNL     1       0.979  11.139  19.471  0.00  0.00    +0.000 A 
ATOM     13  C   UNL     1       0.585  11.233  20.841  0.00  0.00    +0.000 A 
ATOM     14  C   UNL     1      -0.332  10.378  21.629  0.00  0.00    +0.000 C 
ATOM     15  N   UNL     1       1.128  12.302  21.437  0.00  0.00    +0.000 NA
ATOM     16  O   UNL     1       1.814  12.975  20.452  0.00  0.00    +0.000 OA
ATOM     17  C   UNL     1       1.687  12.311  19.276  0.00  0.00    +0.000 A 
ATOM     18  C   UNL     1       2.264  12.983  18.097  0.00  0.00    +0.000 C 
ENDBRANCH  11  12
ENDBRANCH  10  11
ENDBRANCH   7  10
ENDBRANCH   4   6
BRANCH   1  19
ATOM     19  C   UNL     1       5.218   4.001  17.245  0.00  0.00    +0.000 C 
BRANCH  19  23
ATOM     20  C   UNL     1       7.812   7.258  18.153  0.00  0.00    +0.000 A 
ATOM     21  C   UNL     1       7.954   6.121  18.924  0.00  0.00    +0.000 A 
ATOM     22  C   UNL     1       7.137   5.018  18.647  0.00  0.00    +0.000 A 
ATOM     23  C   UNL     1       6.239   5.076  17.576  0.00  0.00    +0.000 A 
ATOM     24  C   UNL     1       6.206   6.263  16.846  0.00  0.00    +0.000 A 
ATOM     25  N   UNL     1       6.971   7.350  17.105  0.00  0.00    +0.000 NA
BRANCH  20  27
ATOM     26  C   UNL     1       8.124   9.547  17.864  0.00  0.00    +0.000 C 
ATOM     27  O   UNL     1       8.584   8.352  18.497  0.00  0.00    +0.000 OA
ENDBRANCH  20  27
ENDBRANCH  19  23
ENDBRANCH   1  19
TORSDOF 7
ENDMDL
MODEL 3
REMARK VINA RESULT:      -7.5      3.404      5.668
REMARK  Name = 
REMARK  10 active torsions:
REMARK  status: ('A' for Active; 'I' for Inactive)
REMARK    1  A    between atoms: C_1  and  O_2
REMARK    2  A    between atoms: O_2  and  C_3
REMARK    3  A    between atoms: C_6  and  C_7
REMARK    4  A    between atoms: C_7  and  N_8
REMARK    5  A    between atoms: C_11  and  N_12
REMARK    6  A    between atoms: C_13  and  C_15
REMARK    7  A    between atoms: C_15  and  C_16
REMARK    8  A    between atoms: C_16  and  C_17
REMARK    9  A    between atoms: C_18  and  C_19
REMARK   10  A    between atoms: C_22  and  C_23
REMARK                            x       y       z     vdW  Elec       q    Type
REMARK                         _______ _______ _______ _____ _____    ______ ____
ROOT
ATOM      1  N   UNL     1       7.036   5.913  17.718  0.00  0.00    +0.000 NA
ATOM      2  C   UNL     1       6.800   5.667  19.141  0.00  0.00    +0.000 C 
ATOM      3  C   UNL     1       5.308   5.452  19.339  0.00  0.00    +0.000 C 
ATOM      4  C   UNL     1       4.617   6.100  18.147  0.00  0.00    +0.000 C 
ATOM      5  C   UNL     1       5.755   6.400  17.153  0.00  0.00    +0.000 C 
ENDROOT
BRANCH   4   6
ATOM      6  N   UNL     1       3.533   5.247  17.646  0.00  0.00    +0.000 N 
ATOM      7  C   UNL     1       2.311   5.147  18.288  0.00  0.00    +0.000 C 
ATOM      8  O   UNL     1       1.989   5.860  19.230  0.00  0.00    +0.000 OA
ATOM      9  H   UNL     1       3.804   4.447  17.091  0.00  0.00    +0.000 HD
BRANCH   7  10
ATOM     10  C   UNL     1       1.412   4.060  17.703  0.00  0.00    +0.000 C 
BRANCH  10  11
ATOM     11  C   UNL     1       1.213   2.894  18.672  0.00  0.00    +0.000 C 
BRANCH  11  12
ATOM     12  C   UNL     1       2.426   2.550  19.479  0.00  0.00    +0.000 A 
ATOM     13  C   UNL     1       3.669   1.988  19.055  0.00  0.00    +0.000 A 
ATOM     14  C   UNL     1       4.067   1.443  17.737  0.00  0.00    +0.000 C 
ATOM     15  N   UNL     1       4.552   1.933  20.060  0.00  0.00    +0.000 NA
ATOM     16  O   UNL     1       3.881   2.375  21.177  0.00  0.00    +0.000 OA
ATOM     17  C   UNL     1       2.606   2.696  20.842  0.00  0.00    +0.000 A 
ATOM     18  C   UNL     1       1.725   3.065  21.965  0.00  0.00    +0.000 C 
ENDBRANCH  11  12
ENDBRANCH  10  11
ENDBRANCH   7  10
ENDBRANCH   4   6
BRANCH   1  19
ATOM     19  C   UNL     1       7.531   4.746  16.981  0.00  0.00    +0.000 C 
BRANCH  19  23
ATOM     20  C   UNL     1       6.119   3.933  13.043  0.00  0.00    +0.000 A 
ATOM     21  C   UNL     1       5.395   3.385  14.085  0.00  0.00    +0.000 A 
ATOM     22  C   UNL     1       5.810   3.645  15.397  0.00  0.00    +0.000 A 
ATOM     23  C   UNL     1       6.909   4.482  15.621  0.00  0.00    +0.000 A 
ATOM     24  C   UNL     1       7.541   5.005  14.494  0.00  0.00    +0.000 A 
ATOM     25  N   UNL     1       7.172   4.755  13.216  0.00  0.00    +0.000 NA
BRANCH  20  27
ATOM     26  C   UNL     1       5.595   2.190  11.591  0.00  0.00    +0.000 C 
ATOM     27  O   UNL     1       5.724   3.602  11.760  0.00  0.00    +0.000 OA
ENDBRANCH  20  27
ENDBRANCH  19  23
ENDBRANCH   1  19
TORSDOF 7
ENDMDL
MODEL 4
REMARK VINA RESULT:      -7.4      1.954      2.444
REMARK  Name = 
REMARK  10 active torsions:
REMARK  status: ('A' for Active; 'I' for Inactive)
REMARK    1  A    between atoms: C_1  and  O_2
REMARK    2  A    between atoms: O_2  and  C_3
REMARK    3  A    between atoms: C_6  and  C_7
REMARK    4  A    between atoms: C_7  and  N_8
REMARK    5  A    between atoms: C_11  and  N_12
REMARK    6  A    between atoms: C_13  and  C_15
REMARK    7  A    between atoms: C_15  and  C_16
REMARK    8  A    between atoms: C_16  and  C_17
REMARK    9  A    between atoms: C_18  and  C_19
REMARK   10  A    between atoms: C_22  and  C_23
REMARK                            x       y       z     vdW  Elec       q    Type
REMARK                         _______ _______ _______ _____ _____    ______ ____
ROOT
ATOM      1  N   UNL     1       4.244   3.701  18.077  0.00  0.00    +0.000 NA
ATOM      2  C   UNL     1       2.893   3.356  17.631  0.00  0.00    +0.000 C 
ATOM      3  C   UNL     1       1.976   4.519  17.972  0.00  0.00    +0.000 C 
ATOM      4  C   UNL     1       2.662   5.300  19.085  0.00  0.00    +0.000 C 
ATOM      5  C   UNL     1       4.093   4.730  19.134  0.00  0.00    +0.000 C 
ENDROOT
BRANCH   4   6
ATOM      6  N   UNL     1       2.553   6.744  18.852  0.00  0.00    +0.000 N 
ATOM      7  C   UNL     1       1.943   7.596  19.756  0.00  0.00    +0.000 C 
ATOM      8  O   UNL     1       1.580   7.242  20.871  0.00  0.00    +0.000 OA
ATOM      9  H   UNL     1       2.549   7.050  17.889  0.00  0.00    +0.000 HD
BRANCH   7  10
ATOM     10  C   UNL     1       1.771   9.016  19.222  0.00  0.00    +0.000 C 
BRANCH  10  11
ATOM     11  C   UNL     1       0.386   9.585  19.534  0.00  0.00    +0.000 C 
BRANCH  11  12
ATOM     12  C   UNL     1       0.379  10.636  20.601  0.00  0.00    +0.000 A 
ATOM     13  C   UNL     1       0.826  11.991  20.543  0.00  0.00    +0.000 A 
ATOM     14  C   UNL     1       1.559  12.708  19.474  0.00  0.00    +0.000 C 
ATOM     15  N   UNL     1       0.548  12.649  21.676  0.00  0.00    +0.000 NA
ATOM     16  O   UNL     1      -0.004  11.719  22.527  0.00  0.00    +0.000 OA
ATOM     17  C   UNL     1      -0.061  10.515  21.906  0.00  0.00    +0.000 A 
ATOM     18  C   UNL     1      -0.514   9.387  22.741  0.00  0.00    +0.000 C 
ENDBRANCH  11  12
ENDBRANCH  10  11
ENDBRANCH   7  10
ENDBRANCH   4   6
BRANCH   1  19
ATOM     19  C   UNL     1       5.129   4.169  17.005  0.00  0.00    +0.000 C 
BRANCH  19  23
ATOM     20  C   UNL     1       7.794   7.314  18.082  0.00  0.00    +0.000 A 
ATOM     21  C   UNL     1       7.965   6.109  18.735  0.00  0.00    +0.000 A 
ATOM     22  C   UNL     1       7.126   5.040  18.396  0.00  0.00    +0.000 A 
ATOM     23  C   UNL     1       6.175   5.203  17.383  0.00  0.00    +0.000 A 
ATOM     24  C   UNL     1       6.116   6.454  16.772  0.00  0.00    +0.000 A 
ATOM     25  N   UNL     1       6.902   7.508  17.092  0.00  0.00    +0.000 NA
BRANCH  20  27
ATOM     26  C   UNL     1       8.161   9.608  17.926  0.00  0.00    +0.000 C 
ATOM     27  O   UNL     1       8.593   8.369  18.488  0.00  0.00    +0.000 OA
ENDBRANCH  20  27
ENDBRANCH  19  23
ENDBRANCH   1  19
TORSDOF 7
ENDMDL
MODEL 5
REMARK VINA RESULT:      -7.3      1.760      6.807
REMARK  Name = 
REMARK  10 active torsions:
REMARK  status: ('A' for Active; 'I' for Inactive)
REMARK    1  A    between atoms: C_1  and  O_2
REMARK    2  A    between atoms: O_2  and  C_3
REMARK    3  A    between atoms: C_6  and  C_7
REMARK    4  A    between atoms: C_7  and  N_8
REMARK    5  A    between atoms: C_11  and  N_12
REMARK    6  A    between atoms: C_13  and  C_15
REMARK    7  A    between atoms: C_15  and  C_16
REMARK    8  A    between atoms: C_16  and  C_17
REMARK    9  A    between atoms: C_18  and  C_19
REMARK   10  A    between atoms: C_22  and  C_23
REMARK                            x       y       z     vdW  Elec       q    Type
REMARK                         _______ _______ _______ _____ _____    ______ ____
ROOT
ATOM      1  N   UNL     1       1.563   4.959  20.732  0.00  0.00    +0.000 NA
ATOM      2  C   UNL     1       2.092   3.955  21.656  0.00  0.00    +0.000 C 
ATOM      3  C   UNL     1       2.622   2.792  20.833  0.00  0.00    +0.000 C 
ATOM      4  C   UNL     1       1.924   2.867  19.481  0.00  0.00    +0.000 C 
ATOM      5  C   UNL     1       1.243   4.249  19.471  0.00  0.00    +0.000 C 
ENDROOT
BRANCH   4   6
ATOM      6  N   UNL     1       2.871   2.608  18.391  0.00  0.00    +0.000 N 
ATOM      7  C   UNL     1       4.123   3.195  18.341  0.00  0.00    +0.000 C 
ATOM      8  O   UNL     1       4.591   3.854  19.262  0.00  0.00    +0.000 OA
ATOM      9  H   UNL     1       2.475   2.342  17.500  0.00  0.00    +0.000 HD
BRANCH   7  10
ATOM     10  C   UNL     1       4.856   2.938  17.027  0.00  0.00    +0.000 C 
BRANCH  10  11
ATOM     11  C   UNL     1       4.651   4.072  16.021  0.00  0.00    +0.000 C 
BRANCH  11  12
ATOM     12  C   UNL     1       5.922   4.647  15.475  0.00  0.00    +0.000 A 
ATOM     13  C   UNL     1       6.498   4.503  14.176  0.00  0.00    +0.000 A 
ATOM     14  C   UNL     1       6.097   3.633  13.047  0.00  0.00    +0.000 C 
ATOM     15  N   UNL     1       7.589   5.266  14.035  0.00  0.00    +0.000 NA
ATOM     16  O   UNL     1       7.799   5.854  15.262  0.00  0.00    +0.000 OA
ATOM     17  C   UNL     1       6.837   5.451  16.129  0.00  0.00    +0.000 A 
ATOM     18  C   UNL     1       7.005   5.900  17.523  0.00  0.00    +0.000 C 
ENDBRANCH  11  12
ENDBRANCH  10  11
ENDBRANCH   7  10
ENDBRANCH   4   6
BRANCH   1  19
ATOM     19  C   UNL     1       2.468   6.088  20.490  0.00  0.00    +0.000 C 
BRANCH  19  23
ATOM     20  C   UNL     1       0.572   9.806  19.630  0.00  0.00    +0.000 A 
ATOM     21  C   UNL     1       0.310   9.250  20.867  0.00  0.00    +0.000 A 
ATOM     22  C   UNL     1       0.929   8.040  21.201  0.00  0.00    +0.000 A 
ATOM     23  C   UNL     1       1.825   7.451  20.303  0.00  0.00    +0.000 A 
ATOM     24  C   UNL     1       2.038   8.120  19.099  0.00  0.00    +0.000 A 
ATOM     25  N   UNL     1       1.439   9.280  18.743  0.00  0.00    +0.000 NA
BRANCH  20  27
ATOM     26  C   UNL     1      -1.376  10.688  18.708  0.00  0.00    +0.000 C 
ATOM     27  O   UNL     1      -0.108  10.965  19.303  0.00  0.00    +0.000 OA
ENDBRANCH  20  27
ENDBRANCH  19  23
ENDBRANCH   1  19
TORSDOF 7
ENDMDL
MODEL 6
REMARK VINA RESULT:      -7.3      1.764      6.518
REMARK  Name = 
REMARK  10 active torsions:
REMARK  status: ('A' for Active; 'I' for Inactive)
REMARK    1  A    between atoms: C_1  and  O_2
REMARK    2  A    between atoms: O_2  and  C_3
REMARK    3  A    between atoms: C_6  and  C_7
REMARK    4  A    between atoms: C_7  and  N_8
REMARK    5  A    between atoms: C_11  and  N_12
REMARK    6  A    between atoms: C_13  and  C_15
REMARK    7  A    between atoms: C_15  and  C_16
REMARK    8  A    between atoms: C_16  and  C_17
REMARK    9  A    between atoms: C_18  and  C_19
REMARK   10  A    between atoms: C_22  and  C_23
REMARK                            x       y       z     vdW  Elec       q    Type
REMARK                         _______ _______ _______ _____ _____    ______ ____
ROOT
ATOM      1  N   UNL     1       1.616   4.978  20.756  0.00  0.00    +0.000 NA
ATOM      2  C   UNL     1       2.117   3.887  21.593  0.00  0.00    +0.000 C 
ATOM      3  C   UNL     1       2.564   2.760  20.676  0.00  0.00    +0.000 C 
ATOM      4  C   UNL     1       1.836   2.963  19.355  0.00  0.00    +0.000 C 
ATOM      5  C   UNL     1       1.226   4.375  19.460  0.00  0.00    +0.000 C 
ENDROOT
BRANCH   4   6
ATOM      6  N   UNL     1       2.738   2.735  18.221  0.00  0.00    +0.000 N 
ATOM      7  C   UNL     1       4.085   3.050  18.271  0.00  0.00    +0.000 C 
ATOM      8  O   UNL     1       4.654   3.403  19.297  0.00  0.00    +0.000 OA
ATOM      9  H   UNL     1       2.321   2.737  17.301  0.00  0.00    +0.000 HD
BRANCH   7  10
ATOM     10  C   UNL     1       4.785   2.911  16.921  0.00  0.00    +0.000 C 
BRANCH  10  11
ATOM     11  C   UNL     1       4.613   4.157  16.052  0.00  0.00    +0.000 C 
BRANCH  11  12
ATOM     12  C   UNL     1       5.899   4.740  15.551  0.00  0.00    +0.000 A 
ATOM     13  C   UNL     1       6.540   4.571  14.286  0.00  0.00    +0.000 A 
ATOM     14  C   UNL     1       6.209   3.662  13.165  0.00  0.00    +0.000 C 
ATOM     15  N   UNL     1       7.624   5.349  14.176  0.00  0.00    +0.000 NA
ATOM     16  O   UNL     1       7.764   5.975  15.393  0.00  0.00    +0.000 OA
ATOM     17  C   UNL     1       6.768   5.579  16.224  0.00  0.00    +0.000 A 
ATOM     18  C   UNL     1       6.861   6.070  17.611  0.00  0.00    +0.000 C 
ENDBRANCH  11  12
ENDBRANCH  10  11
ENDBRANCH   7  10
ENDBRANCH   4   6
BRANCH   1  19
ATOM     19  C   UNL     1       2.571   6.075  20.565  0.00  0.00    +0.000 C 
BRANCH  19  23
ATOM     20  C   UNL     1       1.187   9.792  19.007  0.00  0.00    +0.000 A 
ATOM     21  C   UNL     1       1.899   8.985  18.140  0.00  0.00    +0.000 A 
ATOM     22  C   UNL     1       2.354   7.744  18.603  0.00  0.00    +0.000 A 
ATOM     23  C   UNL     1       2.041   7.335  19.904  0.00  0.00    +0.000 A 
ATOM     24  C   UNL     1       1.288   8.218  20.676  0.00  0.00    +0.000 A 
ATOM     25  N   UNL     1       0.852   9.430  20.260  0.00  0.00    +0.000 NA
BRANCH  20  27
ATOM     26  C   UNL     1       1.803  12.029  18.815  0.00  0.00    +0.000 C 
ATOM     27  O   UNL     1       0.812  11.039  18.541  0.00  0.00    +0.000 OA
ENDBRANCH  20  27
ENDBRANCH  19  23
ENDBRANCH   1  19
TORSDOF 7
ENDMDL
MODEL 7
REMARK VINA RESULT:      -7.2      1.139      2.131
REMARK  Name = 
REMARK  10 active torsions:
REMARK  status: ('A' for Active; 'I' for Inactive)
REMARK    1  A    between atoms: C_1  and  O_2
REMARK    2  A    between atoms: O_2  and  C_3
REMARK    3  A    between atoms: C_6  and  C_7
REMARK    4  A    between atoms: C_7  and  N_8
REMARK    5  A    between atoms: C_11  and  N_12
REMARK    6  A    between atoms: C_13  and  C_15
REMARK    7  A    between atoms: C_15  and  C_16
REMARK    8  A    between atoms: C_16  and  C_17
REMARK    9  A    between atoms: C_18  and  C_19
REMARK   10  A    between atoms: C_22  and  C_23
REMARK                            x       y       z     vdW  Elec       q    Type
REMARK                         _______ _______ _______ _____ _____    ______ ____
ROOT
ATOM      1  N   UNL     1       3.040   2.768  18.425  0.00  0.00    +0.000 NA
ATOM      2  C   UNL     1       1.739   2.246  18.847  0.00  0.00    +0.000 C 
ATOM      3  C   UNL     1       1.304   3.015  20.084  0.00  0.00    +0.000 C 
ATOM      4  C   UNL     1       2.569   3.600  20.696  0.00  0.00    +0.000 C 
ATOM      5  C   UNL     1       3.652   3.398  19.618  0.00  0.00    +0.000 C 
ENDROOT
BRANCH   4   6
ATOM      6  N   UNL     1       2.347   4.982  21.133  0.00  0.00    +0.000 N 
ATOM      7  C   UNL     1       1.825   5.950  20.292  0.00  0.00    +0.000 C 
ATOM      8  O   UNL     1       1.380   5.702  19.179  0.00  0.00    +0.000 OA
ATOM      9  H   UNL     1       2.933   5.322  21.883  0.00  0.00    +0.000 HD
BRANCH   7  10
ATOM     10  C   UNL     1       1.863   7.353  20.894  0.00  0.00    +0.000 C 
BRANCH  10  11
ATOM     11  C   UNL     1       0.463   7.936  21.088  0.00  0.00    +0.000 C 
BRANCH  11  12
ATOM     12  C   UNL     1       0.373   9.412  20.853  0.00  0.00    +0.000 A 
ATOM     13  C   UNL     1      -0.051  10.448  21.740  0.00  0.00    +0.000 A 
ATOM     14  C   UNL     1      -0.664  10.357  23.086  0.00  0.00    +0.000 C 
ATOM     15  N   UNL     1       0.117  11.660  21.197  0.00  0.00    +0.000 NA
ATOM     16  O   UNL     1       0.570  11.440  19.917  0.00  0.00    +0.000 OA
ATOM     17  C   UNL     1       0.677  10.106  19.696  0.00  0.00    +0.000 A 
ATOM     18  C   UNL     1       1.030   9.713  18.320  0.00  0.00    +0.000 C 
ENDBRANCH  11  12
ENDBRANCH  10  11
ENDBRANCH   7  10
ENDBRANCH   4   6
BRANCH   1  19
ATOM     19  C   UNL     1       2.973   3.711  17.303  0.00  0.00    +0.000 C 
BRANCH  19  23
ATOM     20  C   UNL     1       6.519   6.004  16.733  0.00  0.00    +0.000 A 
ATOM     21  C   UNL     1       6.546   4.700  16.278  0.00  0.00    +0.000 A 
ATOM     22  C   UNL     1       5.395   3.916  16.423  0.00  0.00    +0.000 A 
ATOM     23  C   UNL     1       4.242   4.480  16.980  0.00  0.00    +0.000 A 
ATOM     24  C   UNL     1       4.321   5.815  17.373  0.00  0.00    +0.000 A 
ATOM     25  N   UNL     1       5.426   6.589  17.260  0.00  0.00    +0.000 NA
BRANCH  20  27
ATOM     26  C   UNL     1       7.663   7.899  17.455  0.00  0.00    +0.000 C 
ATOM     27  O   UNL     1       7.693   6.729  16.637  0.00  0.00    +0.000 OA
ENDBRANCH  20  27
ENDBRANCH  19  23
ENDBRANCH   1  19
TORSDOF 7
ENDMDL
MODEL 8
REMARK VINA RESULT:      -7.1      1.544      1.887
REMARK  Name = 
REMARK  10 active torsions:
REMARK  status: ('A' for Active; 'I' for Inactive)
REMARK    1  A    between atoms: C_1  and  O_2
REMARK    2  A    between atoms: O_2  and  C_3
REMARK    3  A    between atoms: C_6  and  C_7
REMARK    4  A    between atoms: C_7  and  N_8
REMARK    5  A    between atoms: C_11  and  N_12
REMARK    6  A    between atoms: C_13  and  C_15
REMARK    7  A    between atoms: C_15  and  C_16
REMARK    8  A    between atoms: C_16  and  C_17
REMARK    9  A    between atoms: C_18  and  C_19
REMARK   10  A    between atoms: C_22  and  C_23
REMARK                            x       y       z     vdW  Elec       q    Type
REMARK                         _______ _______ _______ _____ _____    ______ ____
ROOT
ATOM      1  N   UNL     1       3.923   3.021  18.864  0.00  0.00    +0.000 NA
ATOM      2  C   UNL     1       3.045   3.118  17.696  0.00  0.00    +0.000 C 
ATOM      3  C   UNL     1       1.714   3.687  18.157  0.00  0.00    +0.000 C 
ATOM      4  C   UNL     1       1.623   3.418  19.653  0.00  0.00    +0.000 C 
ATOM      5  C   UNL     1       3.042   2.972  20.054  0.00  0.00    +0.000 C 
ENDROOT
BRANCH   4   6
ATOM      6  N   UNL     1       1.091   4.587  20.362  0.00  0.00    +0.000 N 
ATOM      7  C   UNL     1       1.651   5.846  20.238  0.00  0.00    +0.000 C 
ATOM      8  O   UNL     1       2.530   6.113  19.428  0.00  0.00    +0.000 OA
ATOM      9  H   UNL     1       0.598   4.408  21.226  0.00  0.00    +0.000 HD
BRANCH   7  10
ATOM     10  C   UNL     1       1.061   6.865  21.211  0.00  0.00    +0.000 C 
BRANCH  10  11
ATOM     11  C   UNL     1       1.671   8.255  21.032  0.00  0.00    +0.000 C 
BRANCH  11  12
ATOM     12  C   UNL     1       0.744   9.259  20.419  0.00  0.00    +0.000 A 
ATOM     13  C   UNL     1       0.634   9.680  19.059  0.00  0.00    +0.000 A 
ATOM     14  C   UNL     1       1.491   9.367  17.892  0.00  0.00    +0.000 C 
ATOM     15  N   UNL     1      -0.396  10.518  18.885  0.00  0.00    +0.000 NA
ATOM     16  O   UNL     1      -0.924  10.731  20.138  0.00  0.00    +0.000 OA
ATOM     17  C   UNL     1      -0.219  10.021  21.054  0.00  0.00    +0.000 A 
ATOM     18  C   UNL     1      -0.589  10.250  22.462  0.00  0.00    +0.000 C 
ENDBRANCH  11  12
ENDBRANCH  10  11
ENDBRANCH   7  10
ENDBRANCH   4   6
BRANCH   1  19
ATOM     19  C   UNL     1       4.901   4.108  18.971  0.00  0.00    +0.000 C 
BRANCH  19  23
ATOM     20  C   UNL     1       6.758   5.167  15.285  0.00  0.00    +0.000 A 
ATOM     21  C   UNL     1       5.467   5.618  15.479  0.00  0.00    +0.000 A 
ATOM     22  C   UNL     1       4.826   5.313  16.685  0.00  0.00    +0.000 A 
ATOM     23  C   UNL     1       5.516   4.605  17.675  0.00  0.00    +0.000 A 
ATOM     24  C   UNL     1       6.826   4.231  17.381  0.00  0.00    +0.000 A 
ATOM     25  N   UNL     1       7.463   4.497  16.217  0.00  0.00    +0.000 NA
BRANCH  20  27
ATOM     26  C   UNL     1       7.086   4.381  13.118  0.00  0.00    +0.000 C 
ATOM     27  O   UNL     1       7.339   5.426  14.057  0.00  0.00    +0.000 OA
ENDBRANCH  20  27
ENDBRANCH  19  23
ENDBRANCH   1  19
TORSDOF 7
ENDMDL
MODEL 9
REMARK VINA RESULT:      -7.0      4.202      9.673
REMARK  Name = 
REMARK  10 active torsions:
REMARK  status: ('A' for Active; 'I' for Inactive)
REMARK    1  A    between atoms: C_1  and  O_2
REMARK    2  A    between atoms: O_2  and  C_3
REMARK    3  A    between atoms: C_6  and  C_7
REMARK    4  A    between atoms: C_7  and  N_8
REMARK    5  A    between atoms: C_11  and  N_12
REMARK    6  A    between atoms: C_13  and  C_15
REMARK    7  A    between atoms: C_15  and  C_16
REMARK    8  A    between atoms: C_16  and  C_17
REMARK    9  A    between atoms: C_18  and  C_19
REMARK   10  A    between atoms: C_22  and  C_23
REMARK                            x       y       z     vdW  Elec       q    Type
REMARK                         _______ _______ _______ _____ _____    ______ ____
ROOT
ATOM      1  N   UNL     1      -0.981  11.380  19.140  0.00  0.00    +0.000 NA
ATOM      2  C   UNL     1       0.079  12.356  18.882  0.00  0.00    +0.000 C 
ATOM      3  C   UNL     1       1.390  11.598  18.744  0.00  0.00    +0.000 C 
ATOM      4  C   UNL     1       1.194  10.262  19.447  0.00  0.00    +0.000 C 
ATOM      5  C   UNL     1      -0.323  10.177  19.703  0.00  0.00    +0.000 C 
ENDROOT
BRANCH   4   6
ATOM      6  N   UNL     1       1.776   9.169  18.662  0.00  0.00    +0.000 N 
ATOM      7  C   UNL     1       2.126   7.955  19.227  0.00  0.00    +0.000 C 
ATOM      8  O   UNL     1       1.849   7.647  20.380  0.00  0.00    +0.000 OA
ATOM      9  H   UNL     1       2.288   9.429  17.830  0.00  0.00    +0.000 HD
BRANCH   7  10
ATOM     10  C   UNL     1       2.889   7.043  18.269  0.00  0.00    +0.000 C 
BRANCH  10  11
ATOM     11  C   UNL     1       3.400   5.778  18.960  0.00  0.00    +0.000 C 
BRANCH  11  12
ATOM     12  C   UNL     1       2.778   4.511  18.461  0.00  0.00    +0.000 A 
ATOM     13  C   UNL     1       1.658   3.787  18.973  0.00  0.00    +0.000 A 
ATOM     14  C   UNL     1       0.885   3.987  20.220  0.00  0.00    +0.000 C 
ATOM     15  N   UNL     1       1.335   2.757  18.182  0.00  0.00    +0.000 NA
ATOM     16  O   UNL     1       2.285   2.732  17.187  0.00  0.00    +0.000 OA
ATOM     17  C   UNL     1       3.168   3.744  17.379  0.00  0.00    +0.000 A 
ATOM     18  C   UNL     1       4.322   3.767  16.461  0.00  0.00    +0.000 C 
ENDBRANCH  11  12
ENDBRANCH  10  11
ENDBRANCH   7  10
ENDBRANCH   4   6
BRANCH   1  19
ATOM     19  C   UNL     1      -1.784  11.042  17.961  0.00  0.00    +0.000 C 
BRANCH  19  23
ATOM     20  C   UNL     1      -5.939  11.979  17.826  0.00  0.00    +0.000 A 
ATOM     21  C   UNL     1      -5.290  12.221  19.021  0.00  0.00    +0.000 A 
ATOM     22  C   UNL     1      -3.919  11.949  19.104  0.00  0.00    +0.000 A 
ATOM     23  C   UNL     1      -3.237  11.487  17.973  0.00  0.00    +0.000 A 
ATOM     24  C   UNL     1      -3.989  11.312  16.813  0.00  0.00    +0.000 A 
ATOM     25  N   UNL     1      -5.318  11.550  16.711  0.00  0.00    +0.000 NA
BRANCH  20  27
ATOM     26  C   UNL     1      -7.669  13.395  18.476  0.00  0.00    +0.000 C 
ATOM     27  O   UNL     1      -7.305  12.193  17.798  0.00  0.00    +0.000 OA
ENDBRANCH  20  27
ENDBRANCH  19  23
ENDBRANCH   1  19
TORSDOF 7
ENDMDL
