MODEL 1
REMARK VINA RESULT:      -6.7      0.000      0.000
REMARK  Name = 
REMARK  4 active torsions:
REMARK  status: ('A' for Active; 'I' for Inactive)
REMARK    1  A    between atoms: C_1  and  N_2
REMARK    2  A    between atoms: N_4  and  N_5
REMARK    3  A    between atoms: C_7  and  C_8
REMARK    4  A    between atoms: C_13  and  C_14
REMARK                            x       y       z     vdW  Elec       q    Type
REMARK                         _______ _______ _______ _____ _____    ______ ____
ROOT
ATOM      1  C   UNL     1       7.477   5.029  16.223  0.00  0.00    +0.000 C 
ATOM      2  N   UNL     1       6.457   4.787  17.233  0.00  0.00    +0.000 N 
ATOM      3  C   UNL     1       6.692   4.869  18.600  0.00  0.00    +0.000 A 
ATOM      4  N   UNL     1       7.941   5.265  19.062  0.00  0.00    +0.000 N 
ATOM      5  N   UNL     1       5.757   4.575  19.462  0.00  0.00    +0.000 NA
ATOM      6  C   UNL     1       4.534   4.156  19.006  0.00  0.00    +0.000 A 
ATOM      7  C   UNL     1       4.188   4.071  17.714  0.00  0.00    +0.000 A 
ATOM      8  C   UNL     1       5.211   4.423  16.726  0.00  0.00    +0.000 A 
ATOM      9  O   UNL     1       4.959   4.384  15.524  0.00  0.00    +0.000 OA
ATOM     10  H   UNL     1       8.526   5.845  18.468  0.00  0.00    +0.000 HD
ENDROOT
BRANCH   6  11
ATOM     11  C   UNL     1       3.621   3.775  20.046  0.00  0.00    +0.000 A 
ATOM     12  C   UNL     1       2.646   4.529  20.697  0.00  0.00    +0.000 A 
ATOM     13  C   UNL     1       2.018   3.704  21.662  0.00  0.00    +0.000 A 
ATOM     14  C   UNL     1       2.634   2.485  21.567  0.00  0.00    +0.000 A 
ATOM     15  O   UNL     1       3.594   2.517  20.617  0.00  0.00    +0.000 OA
ENDBRANCH   6  11
BRANCH   4  16
ATOM     16  N   UNL     1       8.113   5.440  20.458  0.00  0.00    +0.000 NA
ATOM     17  H   UNL     1       8.669   6.291  20.608  0.00  0.00    +0.000 HD
ATOM     18  H   UNL     1       8.720   4.699  20.821  0.00  0.00    +0.000 HD
ENDBRANCH   4  16
BRANCH   7  19
ATOM     19  C   UNL     1       2.815   3.622  17.242  0.00  0.00    +0.000 C 
ATOM     20  N   UNL     1       1.675   3.250  16.851  0.00  0.00    +0.000 NA
ENDBRANCH   7  19
TORSDOF 3
ENDMDL
MODEL 2
REMARK VINA RESULT:      -6.7      0.929      1.134
REMARK  Name = 
REMARK  4 active torsions:
REMARK  status: ('A' for Active; 'I' for Inactive)
REMARK    1  A    between atoms: C_1  and  N_2
REMARK    2  A    between atoms: N_4  and  N_5
REMARK    3  A    between atoms: C_7  and  C_8
REMARK    4  A    between atoms: C_13  and  C_14
REMARK                            x       y       z     vdW  Elec       q    Type
REMARK                         _______ _______ _______ _____ _____    ______ ____
ROOT
ATOM      1  C   UNL     1       7.297   6.049  16.732  0.00  0.00    +0.000 C 
ATOM      2  N   UNL     1       6.324   5.538  17.687  0.00  0.00    +0.000 N 
ATOM      3  C   UNL     1       6.623   5.254  19.014  0.00  0.00    +0.000 A 
ATOM      4  N   UNL     1       7.894   5.522  19.507  0.00  0.00    +0.000 N 
ATOM      5  N   UNL     1       5.727   4.733  19.809  0.00  0.00    +0.000 NA
ATOM      6  C   UNL     1       4.483   4.441  19.314  0.00  0.00    +0.000 A 
ATOM      7  C   UNL     1       4.077   4.701  18.064  0.00  0.00    +0.000 A 
ATOM      8  C   UNL     1       5.054   5.313  17.160  0.00  0.00    +0.000 A 
ATOM      9  O   UNL     1       4.746   5.594  16.003  0.00  0.00    +0.000 OA
ATOM     10  H   UNL     1       8.452   6.244  19.063  0.00  0.00    +0.000 HD
ENDROOT
BRANCH   6  11
ATOM     11  C   UNL     1       3.617   3.789  20.255  0.00  0.00    +0.000 A 
ATOM     12  C   UNL     1       3.569   2.451  20.642  0.00  0.00    +0.000 A 
ATOM     13  C   UNL     1       2.525   2.300  21.588  0.00  0.00    +0.000 A 
ATOM     14  C   UNL     1       1.976   3.545  21.738  0.00  0.00    +0.000 A 
ATOM     15  O   UNL     1       2.611   4.436  20.944  0.00  0.00    +0.000 OA
ENDBRANCH   6  11
BRANCH   4  16
ATOM     16  N   UNL     1       8.131   5.320  20.890  0.00  0.00    +0.000 NA
ATOM     17  H   UNL     1       8.375   6.226  21.309  0.00  0.00    +0.000 HD
ATOM     18  H   UNL     1       8.988   4.770  21.010  0.00  0.00    +0.000 HD
ENDBRANCH   4  16
BRANCH   7  19
ATOM     19  C   UNL     1       2.681   4.384  17.553  0.00  0.00    +0.000 C 
ATOM     20  N   UNL     1       1.522   4.120  17.129  0.00  0.00    +0.000 NA
ENDBRANCH   7  19
TORSDOF 3
ENDMDL
MODEL 3
REMARK VINA RESULT:      -6.1      2.975      3.436
REMARK  Name = 
REMARK  4 active torsions:
REMARK  status: ('A' for Active; 'I' for Inactive)
REMARK    1  A    between atoms: C_1  and  N_2
REMARK    2  A    between atoms: N_4  and  N_5
REMARK    3  A    between atoms: C_7  and  C_8
REMARK    4  A    between atoms: C_13  and  C_14
REMARK                            x       y       z     vdW  Elec       q    Type
REMARK                         _______ _______ _______ _____ _____    ______ ____
ROOT
ATOM      1  C   UNL     1       7.238   4.313  16.507  0.00  0.00    +0.000 C 
ATOM      2  N   UNL     1       6.119   5.159  16.898  0.00  0.00    +0.000 N 
ATOM      3  C   UNL     1       6.244   6.508  17.206  0.00  0.00    +0.000 A 
ATOM      4  N   UNL     1       7.479   7.132  17.081  0.00  0.00    +0.000 N 
ATOM      5  N   UNL     1       5.217   7.203  17.616  0.00  0.00    +0.000 NA
ATOM      6  C   UNL     1       4.006   6.579  17.767  0.00  0.00    +0.000 A 
ATOM      7  C   UNL     1       3.764   5.295  17.471  0.00  0.00    +0.000 A 
ATOM      8  C   UNL     1       4.893   4.501  16.980  0.00  0.00    +0.000 A 
ATOM      9  O   UNL     1       4.742   3.321  16.673  0.00  0.00    +0.000 OA
ATOM     10  H   UNL     1       8.160   6.752  16.430  0.00  0.00    +0.000 HD
ENDROOT
BRANCH   6  11
ATOM     11  C   UNL     1       2.979   7.422  18.311  0.00  0.00    +0.000 A 
ATOM     12  C   UNL     1       2.282   8.474  17.718  0.00  0.00    +0.000 A 
ATOM     13  C   UNL     1       1.380   9.003  18.674  0.00  0.00    +0.000 A 
ATOM     14  C   UNL     1       1.563   8.261  19.809  0.00  0.00    +0.000 A 
ATOM     15  O   UNL     1       2.517   7.324  19.609  0.00  0.00    +0.000 OA
ENDBRANCH   6  11
BRANCH   4  16
ATOM     16  N   UNL     1       7.547   8.530  17.300  0.00  0.00    +0.000 NA
ATOM     17  H   UNL     1       7.339   8.709  18.290  0.00  0.00    +0.000 HD
ATOM     18  H   UNL     1       6.769   8.988  16.814  0.00  0.00    +0.000 HD
ENDBRANCH   4  16
BRANCH   7  19
ATOM     19  C   UNL     1       2.402   4.640  17.630  0.00  0.00    +0.000 C 
ATOM     20  N   UNL     1       1.271   4.097  17.762  0.00  0.00    +0.000 NA
ENDBRANCH   7  19
TORSDOF 3
ENDMDL
MODEL 4
REMARK VINA RESULT:      -5.9      2.550      5.095
REMARK  Name = 
REMARK  4 active torsions:
REMARK  status: ('A' for Active; 'I' for Inactive)
REMARK    1  A    between atoms: C_1  and  N_2
REMARK    2  A    between atoms: N_4  and  N_5
REMARK    3  A    between atoms: C_7  and  C_8
REMARK    4  A    between atoms: C_13  and  C_14
REMARK                            x       y       z     vdW  Elec       q    Type
REMARK                         _______ _______ _______ _____ _____    ______ ____
ROOT
ATOM      1  C   UNL     1       1.940   3.297  21.761  0.00  0.00    +0.000 C 
ATOM      2  N   UNL     1       2.752   3.777  20.652  0.00  0.00    +0.000 N 
ATOM      3  C   UNL     1       3.861   3.100  20.159  0.00  0.00    +0.000 A 
ATOM      4  N   UNL     1       4.203   1.861  20.688  0.00  0.00    +0.000 N 
ATOM      5  N   UNL     1       4.593   3.610  19.206  0.00  0.00    +0.000 NA
ATOM      6  C   UNL     1       4.272   4.845  18.706  0.00  0.00    +0.000 A 
ATOM      7  C   UNL     1       3.211   5.572  19.082  0.00  0.00    +0.000 A 
ATOM      8  C   UNL     1       2.356   5.007  20.130  0.00  0.00    +0.000 A 
ATOM      9  O   UNL     1       1.356   5.610  20.514  0.00  0.00    +0.000 OA
ATOM     10  H   UNL     1       3.480   1.293  21.118  0.00  0.00    +0.000 HD
ENDROOT
BRANCH   6  11
ATOM     11  C   UNL     1       5.201   5.340  17.730  0.00  0.00    +0.000 A 
ATOM     12  C   UNL     1       5.275   5.089  16.361  0.00  0.00    +0.000 A 
ATOM     13  C   UNL     1       6.383   5.799  15.838  0.00  0.00    +0.000 A 
ATOM     14  C   UNL     1       6.944   6.451  16.903  0.00  0.00    +0.000 A 
ATOM     15  O   UNL     1       6.256   6.179  18.034  0.00  0.00    +0.000 OA
ENDBRANCH   6  11
BRANCH   4  16
ATOM     16  N   UNL     1       5.274   1.152  20.090  0.00  0.00    +0.000 NA
ATOM     17  H   UNL     1       5.722   0.578  20.815  0.00  0.00    +0.000 HD
ATOM     18  H   UNL     1       6.013   1.812  19.827  0.00  0.00    +0.000 HD
ENDBRANCH   4  16
BRANCH   7  19
ATOM     19  C   UNL     1       2.871   6.930  18.490  0.00  0.00    +0.000 C 
ATOM     20  N   UNL     1       2.589   8.057  18.000  0.00  0.00    +0.000 NA
ENDBRANCH   7  19
TORSDOF 3
ENDMDL
MODEL 5
REMARK VINA RESULT:      -5.9      2.804      5.311
REMARK  Name = 
REMARK  4 active torsions:
REMARK  status: ('A' for Active; 'I' for Inactive)
REMARK    1  A    between atoms: C_1  and  N_2
REMARK    2  A    between atoms: N_4  and  N_5
REMARK    3  A    between atoms: C_7  and  C_8
REMARK    4  A    between atoms: C_13  and  C_14
REMARK                            x       y       z     vdW  Elec       q    Type
REMARK                         _______ _______ _______ _____ _____    ______ ____
ROOT
ATOM      1  C   UNL     1       1.103   6.818  20.880  0.00  0.00    +0.000 C 
ATOM      2  N   UNL     1       2.169   6.356  20.003  0.00  0.00    +0.000 N 
ATOM      3  C   UNL     1       2.589   7.045  18.872  0.00  0.00    +0.000 A 
ATOM      4  N   UNL     1       2.028   8.279  18.569  0.00  0.00    +0.000 N 
ATOM      5  N   UNL     1       3.505   6.550  18.084  0.00  0.00    +0.000 NA
ATOM      6  C   UNL     1       4.037   5.319  18.368  0.00  0.00    +0.000 A 
ATOM      7  C   UNL     1       3.731   4.583  19.444  0.00  0.00    +0.000 A 
ATOM      8  C   UNL     1       2.727   5.130  20.361  0.00  0.00    +0.000 A 
ATOM      9  O   UNL     1       2.408   4.517  21.377  0.00  0.00    +0.000 OA
ATOM     10  H   UNL     1       1.633   8.838  19.318  0.00  0.00    +0.000 HD
ENDROOT
BRANCH   6  11
ATOM     11  C   UNL     1       4.965   4.841  17.381  0.00  0.00    +0.000 A 
ATOM     12  C   UNL     1       4.729   4.117  16.214  0.00  0.00    +0.000 A 
ATOM     13  C   UNL     1       5.975   3.869  15.586  0.00  0.00    +0.000 A 
ATOM     14  C   UNL     1       6.919   4.445  16.393  0.00  0.00    +0.000 A 
ATOM     15  O   UNL     1       6.332   5.017  17.468  0.00  0.00    +0.000 OA
ENDBRANCH   6  11
BRANCH   4  16
ATOM     16  N   UNL     1       2.555   9.001  17.469  0.00  0.00    +0.000 NA
ATOM     17  H   UNL     1       1.818   9.618  17.108  0.00  0.00    +0.000 HD
ATOM     18  H   UNL     1       2.722   8.358  16.689  0.00  0.00    +0.000 HD
ENDBRANCH   4  16
BRANCH   7  19
ATOM     19  C   UNL     1       4.357   3.230  19.741  0.00  0.00    +0.000 C 
ATOM     20  N   UNL     1       4.876   2.107  19.987  0.00  0.00    +0.000 NA
ENDBRANCH   7  19
TORSDOF 3
ENDMDL
MODEL 6
REMARK VINA RESULT:      -5.9      2.809      4.786
REMARK  Name = 
REMARK  4 active torsions:
REMARK  status: ('A' for Active; 'I' for Inactive)
REMARK    1  A    between atoms: C_1  and  N_2
REMARK    2  A    between atoms: N_4  and  N_5
REMARK    3  A    between atoms: C_7  and  C_8
REMARK    4  A    between atoms: C_13  and  C_14
REMARK                            x       y       z     vdW  Elec       q    Type
REMARK                         _______ _______ _______ _____ _____    ______ ____
ROOT
ATOM      1  C   UNL     1       0.885   2.342  18.478  0.00  0.00    +0.000 C 
ATOM      2  N   UNL     1       2.166   3.030  18.412  0.00  0.00    +0.000 N 
ATOM      3  C   UNL     1       3.388   2.405  18.631  0.00  0.00    +0.000 A 
ATOM      4  N   UNL     1       3.430   1.036  18.862  0.00  0.00    +0.000 N 
ATOM      5  N   UNL     1       4.503   3.085  18.625  0.00  0.00    +0.000 NA
ATOM      6  C   UNL     1       4.457   4.441  18.425  0.00  0.00    +0.000 A 
ATOM      7  C   UNL     1       3.342   5.140  18.174  0.00  0.00    +0.000 A 
ATOM      8  C   UNL     1       2.081   4.395  18.146  0.00  0.00    +0.000 A 
ATOM      9  O   UNL     1       1.021   4.969  17.906  0.00  0.00    +0.000 OA
ATOM     10  H   UNL     1       2.682   0.452  18.503  0.00  0.00    +0.000 HD
ENDROOT
BRANCH   6  11
ATOM     11  C   UNL     1       5.733   5.091  18.533  0.00  0.00    +0.000 A 
ATOM     12  C   UNL     1       6.458   5.796  17.574  0.00  0.00    +0.000 A 
ATOM     13  C   UNL     1       7.670   6.231  18.164  0.00  0.00    +0.000 A 
ATOM     14  C   UNL     1       7.641   5.772  19.454  0.00  0.00    +0.000 A 
ATOM     15  O   UNL     1       6.499   5.085  19.682  0.00  0.00    +0.000 OA
ENDBRANCH   6  11
BRANCH   4  16
ATOM     16  N   UNL     1       4.699   0.416  18.974  0.00  0.00    +0.000 NA
ATOM     17  H   UNL     1       4.765  -0.014  19.905  0.00  0.00    +0.000 HD
ATOM     18  H   UNL     1       5.428   1.136  19.000  0.00  0.00    +0.000 HD
ENDBRANCH   4  16
BRANCH   7  19
ATOM     19  C   UNL     1       3.330   6.641  17.936  0.00  0.00    +0.000 C 
ATOM     20  N   UNL     1       3.321   7.887  17.738  0.00  0.00    +0.000 NA
ENDBRANCH   7  19
TORSDOF 3
ENDMDL
MODEL 7
REMARK VINA RESULT:      -5.7      2.604      4.939
REMARK  Name = 
REMARK  4 active torsions:
REMARK  status: ('A' for Active; 'I' for Inactive)
REMARK    1  A    between atoms: C_1  and  N_2
REMARK    2  A    between atoms: N_4  and  N_5
REMARK    3  A    between atoms: C_7  and  C_8
REMARK    4  A    between atoms: C_13  and  C_14
REMARK                            x       y       z     vdW  Elec       q    Type
REMARK                         _______ _______ _______ _____ _____    ______ ____
ROOT
ATOM      1  C   UNL     1       0.841   3.435  18.454  0.00  0.00    +0.000 C 
ATOM      2  N   UNL     1       2.155   4.061  18.419  0.00  0.00    +0.000 N 
ATOM      3  C   UNL     1       2.546   5.080  19.279  0.00  0.00    +0.000 A 
ATOM      4  N   UNL     1       1.684   5.504  20.283  0.00  0.00    +0.000 N 
ATOM      5  N   UNL     1       3.714   5.651  19.158  0.00  0.00    +0.000 NA
ATOM      6  C   UNL     1       4.552   5.252  18.149  0.00  0.00    +0.000 A 
ATOM      7  C   UNL     1       4.291   4.262  17.285  0.00  0.00    +0.000 A 
ATOM      8  C   UNL     1       2.999   3.585  17.418  0.00  0.00    +0.000 A 
ATOM      9  O   UNL     1       2.699   2.657  16.670  0.00  0.00    +0.000 OA
ATOM     10  H   UNL     1       0.983   4.860  20.635  0.00  0.00    +0.000 HD
ENDROOT
BRANCH   6  11
ATOM     11  C   UNL     1       5.765   6.015  18.061  0.00  0.00    +0.000 A 
ATOM     12  C   UNL     1       6.971   5.854  18.742  0.00  0.00    +0.000 A 
ATOM     13  C   UNL     1       7.859   6.873  18.318  0.00  0.00    +0.000 A 
ATOM     14  C   UNL     1       7.164   7.615  17.401  0.00  0.00    +0.000 A 
ATOM     15  O   UNL     1       5.916   7.120  17.247  0.00  0.00    +0.000 OA
ENDBRANCH   6  11
BRANCH   4  16
ATOM     16  N   UNL     1       2.158   6.469  21.207  0.00  0.00    +0.000 NA
ATOM     17  H   UNL     1       3.066   6.149  21.566  0.00  0.00    +0.000 HD
ATOM     18  H   UNL     1       1.562   6.460  22.041  0.00  0.00    +0.000 HD
ENDBRANCH   4  16
BRANCH   7  19
ATOM     19  C   UNL     1       5.253   3.830  16.190  0.00  0.00    +0.000 C 
ATOM     20  N   UNL     1       6.051   3.472  15.281  0.00  0.00    +0.000 NA
ENDBRANCH   7  19
TORSDOF 3
ENDMDL
MODEL 8
REMARK VINA RESULT:      -5.6      3.207      4.768
REMARK  Name = 
REMARK  4 active torsions:
REMARK  status: ('A' for Active; 'I' for Inactive)
REMARK    1  A    between atoms: C_1  and  N_2
REMARK    2  A    between atoms: N_4  and  N_5
REMARK    3  A    between atoms: C_7  and  C_8
REMARK    4  A    between atoms: C_13  and  C_14
REMARK                            x       y       z     vdW  Elec       q    Type
REMARK                         _______ _______ _______ _____ _____    ______ ____
ROOT
ATOM      1  C   UNL     1       3.682   1.514  18.160  0.00  0.00    +0.000 C 
ATOM      2  N   UNL     1       3.396   2.931  18.334  0.00  0.00    +0.000 N 
ATOM      3  C   UNL     1       2.397   3.418  19.169  0.00  0.00    +0.000 A 
ATOM      4  N   UNL     1       1.656   2.535  19.944  0.00  0.00    +0.000 N 
ATOM      5  N   UNL     1       2.140   4.696  19.236  0.00  0.00    +0.000 NA
ATOM      6  C   UNL     1       2.852   5.563  18.448  0.00  0.00    +0.000 A 
ATOM      7  C   UNL     1       3.855   5.209  17.633  0.00  0.00    +0.000 A 
ATOM      8  C   UNL     1       4.183   3.783  17.563  0.00  0.00    +0.000 A 
ATOM      9  O   UNL     1       5.102   3.387  16.848  0.00  0.00    +0.000 OA
ATOM     10  H   UNL     1       2.064   1.642  20.202  0.00  0.00    +0.000 HD
ENDROOT
BRANCH   6  11
ATOM     11  C   UNL     1       2.417   6.928  18.540  0.00  0.00    +0.000 A 
ATOM     12  C   UNL     1       2.207   7.867  17.531  0.00  0.00    +0.000 A 
ATOM     13  C   UNL     1       1.796   9.082  18.134  0.00  0.00    +0.000 A 
ATOM     14  C   UNL     1       1.777   8.841  19.481  0.00  0.00    +0.000 A 
ATOM     15  O   UNL     1       2.153   7.567  19.736  0.00  0.00    +0.000 OA
ENDBRANCH   6  11
BRANCH   4  16
ATOM     16  N   UNL     1       0.720   3.075  20.862  0.00  0.00    +0.000 NA
ATOM     17  H   UNL     1      -0.225   2.857  20.522  0.00  0.00    +0.000 HD
ATOM     18  H   UNL     1       0.752   4.099  20.816  0.00  0.00    +0.000 HD
ENDBRANCH   4  16
BRANCH   7  19
ATOM     19  C   UNL     1       4.639   6.200  16.789  0.00  0.00    +0.000 C 
ATOM     20  N   UNL     1       5.290   7.023  16.089  0.00  0.00    +0.000 NA
ENDBRANCH   7  19
TORSDOF 3
ENDMDL
MODEL 9
REMARK VINA RESULT:      -5.5      2.254      2.486
REMARK  Name = 
REMARK  4 active torsions:
REMARK  status: ('A' for Active; 'I' for Inactive)
REMARK    1  A    between atoms: C_1  and  N_2
REMARK    2  A    between atoms: N_4  and  N_5
REMARK    3  A    between atoms: C_7  and  C_8
REMARK    4  A    between atoms: C_13  and  C_14
REMARK                            x       y       z     vdW  Elec       q    Type
REMARK                         _______ _______ _______ _____ _____    ______ ____
ROOT
ATOM      1  C   UNL     1       7.463   4.764  15.162  0.00  0.00    +0.000 C 
ATOM      2  N   UNL     1       6.385   5.180  16.048  0.00  0.00    +0.000 N 
ATOM      3  C   UNL     1       6.430   6.329  16.829  0.00  0.00    +0.000 A 
ATOM      4  N   UNL     1       7.520   7.185  16.734  0.00  0.00    +0.000 N 
ATOM      5  N   UNL     1       5.462   6.617  17.657  0.00  0.00    +0.000 NA
ATOM      6  C   UNL     1       4.401   5.757  17.771  0.00  0.00    +0.000 A 
ATOM      7  C   UNL     1       4.240   4.641  17.047  0.00  0.00    +0.000 A 
ATOM      8  C   UNL     1       5.298   4.310  16.089  0.00  0.00    +0.000 A 
ATOM      9  O   UNL     1       5.209   3.310  15.380  0.00  0.00    +0.000 OA
ATOM     10  H   UNL     1       8.060   7.202  15.875  0.00  0.00    +0.000 HD
ENDROOT
BRANCH   6  11
ATOM     11  C   UNL     1       3.448   6.133  18.777  0.00  0.00    +0.000 A 
ATOM     12  C   UNL     1       2.653   7.274  18.869  0.00  0.00    +0.000 A 
ATOM     13  C   UNL     1       1.891   7.189  20.060  0.00  0.00    +0.000 A 
ATOM     14  C   UNL     1       2.251   6.007  20.649  0.00  0.00    +0.000 A 
ATOM     15  O   UNL     1       3.183   5.375  19.900  0.00  0.00    +0.000 OA
ENDBRANCH   6  11
BRANCH   4  16
ATOM     16  N   UNL     1       7.481   8.398  17.465  0.00  0.00    +0.000 NA
ATOM     17  H   UNL     1       8.175   9.039  17.059  0.00  0.00    +0.000 HD
ATOM     18  H   UNL     1       7.841   8.237  18.411  0.00  0.00    +0.000 HD
ENDBRANCH   4  16
BRANCH   7  19
ATOM     19  C   UNL     1       3.039   3.719  17.184  0.00  0.00    +0.000 C 
ATOM     20  N   UNL     1       2.042   2.954  17.297  0.00  0.00    +0.000 NA
ENDBRANCH   7  19
TORSDOF 3
ENDMDL
