MODEL 1
REMARK VINA RESULT:      -8.2      0.000      0.000
REMARK  Name = 
REMARK  9 active torsions:
REMARK  status: ('A' for Active; 'I' for Inactive)
REMARK    1  A    between atoms: C_1  and  C_2
REMARK    2  A    between atoms: C_2  and  C_3
REMARK    3  A    between atoms: C_9  and  C_10
REMARK    4  A    between atoms: C_10  and  C_12
REMARK    5  A    between atoms: C_12  and  C_13
REMARK    6  A    between atoms: C_13  and  C_14
REMARK    7  A    between atoms: C_14  and  C_15
REMARK    8  A    between atoms: C_14  and  C_16
REMARK    9  A    between atoms: C_14  and  C_17
REMARK                            x       y       z     vdW  Elec       q    Type
REMARK                         _______ _______ _______ _____ _____    ______ ____
ROOT
ATOM      1  C   UNL     1       5.976   3.544  12.600  0.00  0.00    +0.000 A 
ATOM      2  C   UNL     1       7.117   4.333  12.391  0.00  0.00    +0.000 A 
ATOM      3  C   UNL     1       7.649   5.103  13.429  0.00  0.00    +0.000 A 
ATOM      4  C   UNL     1       7.053   5.091  14.691  0.00  0.00    +0.000 A 
ATOM      5  N   UNL     1       7.588   5.834  15.744  0.00  0.00    +0.000 N 
ATOM      6  C   UNL     1       7.026   5.781  16.991  0.00  0.00    +0.000 A 
ATOM      7  C   UNL     1       5.901   5.123  17.318  0.00  0.00    +0.000 A 
ATOM      8  C   UNL     1       5.236   4.344  16.225  0.00  0.00    +0.000 A 
ATOM      9  O   UNL     1       4.172   3.755  16.380  0.00  0.00    +0.000 OA
ATOM     10  C   UNL     1       5.894   4.325  14.891  0.00  0.00    +0.000 A 
ATOM     11  C   UNL     1       5.361   3.552  13.857  0.00  0.00    +0.000 A 
ATOM     12  H   UNL     1       8.456   6.339  15.606  0.00  0.00    +0.000 HD
ENDROOT
BRANCH   1  14
ATOM     13  C   UNL     1       4.034   3.045  11.118  0.00  0.00    +0.000 C 
ATOM     14  C   UNL     1       5.452   2.652  11.506  0.00  0.00    +0.000 C 
ENDBRANCH   1  14
BRANCH   7  15
ATOM     15  C   UNL     1       5.357   5.168  18.709  0.00  0.00    +0.000 C 
ATOM     16  O   UNL     1       6.021   4.778  19.668  0.00  0.00    +0.000 OA
BRANCH  15  17
ATOM     17  C   UNL     1       3.982   5.772  18.954  0.00  0.00    +0.000 C 
BRANCH  17  18
ATOM     18  C   UNL     1       3.165   5.036  20.024  0.00  0.00    +0.000 C 
BRANCH  18  19
ATOM     19  C   UNL     1       2.137   4.016  19.469  0.00  0.00    +0.000 C 
ATOM     20  C   UNL     1       1.642   4.428  18.072  0.00  0.00    +0.000 C 
ATOM     21  C   UNL     1       2.822   2.641  19.348  0.00  0.00    +0.000 C 
ATOM     22  C   UNL     1       0.939   3.884  20.421  0.00  0.00    +0.000 C 
ENDBRANCH  18  19
ENDBRANCH  17  18
ENDBRANCH  15  17
ENDBRANCH   7  15
TORSDOF 5
ENDMDL
MODEL 2
REMARK VINA RESULT:      -8.2      0.704      1.194
REMARK  Name = 
REMARK  9 active torsions:
REMARK  status: ('A' for Active; 'I' for Inactive)
REMARK    1  A    between atoms: C_1  and  C_2
REMARK    2  A    between atoms: C_2  and  C_3
REMARK    3  A    between atoms: C_9  and  C_10
REMARK    4  A    between atoms: C_10  and  C_12
REMARK    5  A    between atoms: C_12  and  C_13
REMARK    6  A    between atoms: C_13  and  C_14
REMARK    7  A    between atoms: C_14  and  C_15
REMARK    8  A    between atoms: C_14  and  C_16
REMARK    9  A    between atoms: C_14  and  C_17
REMARK                            x       y       z     vdW  Elec       q    Type
REMARK                         _______ _______ _______ _____ _____    ______ ____
ROOT
ATOM      1  C   UNL     1       5.865   3.514  12.664  0.00  0.00    +0.000 A 
ATOM      2  C   UNL     1       6.969   4.337  12.402  0.00  0.00    +0.000 A 
ATOM      3  C   UNL     1       7.537   5.110  13.418  0.00  0.00    +0.000 A 
ATOM      4  C   UNL     1       7.016   5.066  14.712  0.00  0.00    +0.000 A 
ATOM      5  N   UNL     1       7.588   5.812  15.742  0.00  0.00    +0.000 N 
ATOM      6  C   UNL     1       7.101   5.728  17.019  0.00  0.00    +0.000 A 
ATOM      7  C   UNL     1       6.014   5.034  17.400  0.00  0.00    +0.000 A 
ATOM      8  C   UNL     1       5.311   4.249  16.337  0.00  0.00    +0.000 A 
ATOM      9  O   UNL     1       4.275   3.627  16.544  0.00  0.00    +0.000 OA
ATOM     10  C   UNL     1       5.892   4.265  14.967  0.00  0.00    +0.000 A 
ATOM     11  C   UNL     1       5.323   3.489  13.954  0.00  0.00    +0.000 A 
ATOM     12  H   UNL     1       8.433   6.343  15.563  0.00  0.00    +0.000 HD
ENDROOT
BRANCH   1  14
ATOM     13  C   UNL     1       3.971   3.149  11.085  0.00  0.00    +0.000 C 
ATOM     14  C   UNL     1       5.304   2.619  11.590  0.00  0.00    +0.000 C 
ENDBRANCH   1  14
BRANCH   7  15
ATOM     15  C   UNL     1       5.551   5.047  18.820  0.00  0.00    +0.000 C 
ATOM     16  O   UNL     1       6.350   5.095  19.754  0.00  0.00    +0.000 OA
BRANCH  15  17
ATOM     17  C   UNL     1       4.058   5.070  19.117  0.00  0.00    +0.000 C 
BRANCH  17  18
ATOM     18  C   UNL     1       3.555   3.822  19.853  0.00  0.00    +0.000 C 
BRANCH  18  19
ATOM     19  C   UNL     1       2.084   3.902  20.340  0.00  0.00    +0.000 C 
ATOM     20  C   UNL     1       1.879   3.084  21.627  0.00  0.00    +0.000 C 
ATOM     21  C   UNL     1       1.747   5.374  20.649  0.00  0.00    +0.000 C 
ATOM     22  C   UNL     1       1.126   3.398  19.251  0.00  0.00    +0.000 C 
ENDBRANCH  18  19
ENDBRANCH  17  18
ENDBRANCH  15  17
ENDBRANCH   7  15
TORSDOF 5
ENDMDL
MODEL 3
REMARK VINA RESULT:      -8.2      0.432      1.175
REMARK  Name = 
REMARK  9 active torsions:
REMARK  status: ('A' for Active; 'I' for Inactive)
REMARK    1  A    between atoms: C_1  and  C_2
REMARK    2  A    between atoms: C_2  and  C_3
REMARK    3  A    between atoms: C_9  and  C_10
REMARK    4  A    between atoms: C_10  and  C_12
REMARK    5  A    between atoms: C_12  and  C_13
REMARK    6  A    between atoms: C_13  and  C_14
REMARK    7  A    between atoms: C_14  and  C_15
REMARK    8  A    between atoms: C_14  and  C_16
REMARK    9  A    between atoms: C_14  and  C_17
REMARK                            x       y       z     vdW  Elec       q    Type
REMARK                         _______ _______ _______ _____ _____    ______ ____
ROOT
ATOM      1  C   UNL     1       6.002   3.366  12.450  0.00  0.00    +0.000 A 
ATOM      2  C   UNL     1       7.104   4.195  12.194  0.00  0.00    +0.000 A 
ATOM      3  C   UNL     1       7.621   5.021  13.196  0.00  0.00    +0.000 A 
ATOM      4  C   UNL     1       7.050   5.026  14.469  0.00  0.00    +0.000 A 
ATOM      5  N   UNL     1       7.571   5.825  15.486  0.00  0.00    +0.000 N 
ATOM      6  C   UNL     1       7.035   5.791  16.746  0.00  0.00    +0.000 A 
ATOM      7  C   UNL     1       5.945   5.097  17.115  0.00  0.00    +0.000 A 
ATOM      8  C   UNL     1       5.294   4.255  16.062  0.00  0.00    +0.000 A 
ATOM      9  O   UNL     1       4.260   3.627  16.257  0.00  0.00    +0.000 OA
ATOM     10  C   UNL     1       5.928   4.219  14.716  0.00  0.00    +0.000 A 
ATOM     11  C   UNL     1       5.410   3.390  13.718  0.00  0.00    +0.000 A 
ATOM     12  H   UNL     1       8.415   6.361  15.315  0.00  0.00    +0.000 HD
ENDROOT
BRANCH   1  14
ATOM     13  C   UNL     1       6.541   1.357  11.076  0.00  0.00    +0.000 C 
ATOM     14  C   UNL     1       5.497   2.416  11.397  0.00  0.00    +0.000 C 
ENDBRANCH   1  14
BRANCH   7  15
ATOM     15  C   UNL     1       5.426   5.166  18.514  0.00  0.00    +0.000 C 
ATOM     16  O   UNL     1       6.101   4.779  19.468  0.00  0.00    +0.000 OA
BRANCH  15  17
ATOM     17  C   UNL     1       4.061   5.790  18.774  0.00  0.00    +0.000 C 
BRANCH  17  18
ATOM     18  C   UNL     1       3.264   5.092  19.883  0.00  0.00    +0.000 C 
BRANCH  18  19
ATOM     19  C   UNL     1       2.194   4.088  19.381  0.00  0.00    +0.000 C 
ATOM     20  C   UNL     1       2.763   2.661  19.303  0.00  0.00    +0.000 C 
ATOM     21  C   UNL     1       1.019   4.080  20.379  0.00  0.00    +0.000 C 
ATOM     22  C   UNL     1       1.663   4.508  18.003  0.00  0.00    +0.000 C 
ENDBRANCH  18  19
ENDBRANCH  17  18
ENDBRANCH  15  17
ENDBRANCH   7  15
TORSDOF 5
ENDMDL
MODEL 4
REMARK VINA RESULT:      -8.0      0.774      1.101
REMARK  Name = 
REMARK  9 active torsions:
REMARK  status: ('A' for Active; 'I' for Inactive)
REMARK    1  A    between atoms: C_1  and  C_2
REMARK    2  A    between atoms: C_2  and  C_3
REMARK    3  A    between atoms: C_9  and  C_10
REMARK    4  A    between atoms: C_10  and  C_12
REMARK    5  A    between atoms: C_12  and  C_13
REMARK    6  A    between atoms: C_13  and  C_14
REMARK    7  A    between atoms: C_14  and  C_15
REMARK    8  A    between atoms: C_14  and  C_16
REMARK    9  A    between atoms: C_14  and  C_17
REMARK                            x       y       z     vdW  Elec       q    Type
REMARK                         _______ _______ _______ _____ _____    ______ ____
ROOT
ATOM      1  C   UNL     1       5.866   3.489  12.612  0.00  0.00    +0.000 A 
ATOM      2  C   UNL     1       6.957   4.324  12.335  0.00  0.00    +0.000 A 
ATOM      3  C   UNL     1       7.525   5.110  13.342  0.00  0.00    +0.000 A 
ATOM      4  C   UNL     1       7.016   5.067  14.640  0.00  0.00    +0.000 A 
ATOM      5  N   UNL     1       7.589   5.825  15.661  0.00  0.00    +0.000 N 
ATOM      6  C   UNL     1       7.114   5.743  16.943  0.00  0.00    +0.000 A 
ATOM      7  C   UNL     1       6.040   5.038  17.338  0.00  0.00    +0.000 A 
ATOM      8  C   UNL     1       5.336   4.238  16.285  0.00  0.00    +0.000 A 
ATOM      9  O   UNL     1       4.310   3.605  16.506  0.00  0.00    +0.000 OA
ATOM     10  C   UNL     1       5.904   4.253  14.910  0.00  0.00    +0.000 A 
ATOM     11  C   UNL     1       5.336   3.464  13.907  0.00  0.00    +0.000 A 
ATOM     12  H   UNL     1       8.425   6.366  15.471  0.00  0.00    +0.000 HD
ENDROOT
BRANCH   1  14
ATOM     13  C   UNL     1       6.262   1.433  11.258  0.00  0.00    +0.000 C 
ATOM     14  C   UNL     1       5.306   2.581  11.548  0.00  0.00    +0.000 C 
ENDBRANCH   1  14
BRANCH   7  15
ATOM     15  C   UNL     1       5.589   5.053  18.762  0.00  0.00    +0.000 C 
ATOM     16  O   UNL     1       6.397   5.070  19.689  0.00  0.00    +0.000 OA
BRANCH  15  17
ATOM     17  C   UNL     1       4.100   5.119  19.072  0.00  0.00    +0.000 C 
BRANCH  17  18
ATOM     18  C   UNL     1       3.555   3.857  19.754  0.00  0.00    +0.000 C 
BRANCH  18  19
ATOM     19  C   UNL     1       2.139   4.010  20.369  0.00  0.00    +0.000 C 
ATOM     20  C   UNL     1       1.798   5.489  20.619  0.00  0.00    +0.000 C 
ATOM     21  C   UNL     1       1.106   3.443  19.376  0.00  0.00    +0.000 C 
ATOM     22  C   UNL     1       2.034   3.227  21.686  0.00  0.00    +0.000 C 
ENDBRANCH  18  19
ENDBRANCH  17  18
ENDBRANCH  15  17
ENDBRANCH   7  15
TORSDOF 5
ENDMDL
MODEL 5
REMARK VINA RESULT:      -7.5      1.582      6.758
REMARK  Name = 
REMARK  9 active torsions:
REMARK  status: ('A' for Active; 'I' for Inactive)
REMARK    1  A    between atoms: C_1  and  C_2
REMARK    2  A    between atoms: C_2  and  C_3
REMARK    3  A    between atoms: C_9  and  C_10
REMARK    4  A    between atoms: C_10  and  C_12
REMARK    5  A    between atoms: C_12  and  C_13
REMARK    6  A    between atoms: C_13  and  C_14
REMARK    7  A    between atoms: C_14  and  C_15
REMARK    8  A    between atoms: C_14  and  C_16
REMARK    9  A    between atoms: C_14  and  C_17
REMARK                            x       y       z     vdW  Elec       q    Type
REMARK                         _______ _______ _______ _____ _____    ______ ____
ROOT
ATOM      1  C   UNL     1       1.862   4.269  19.710  0.00  0.00    +0.000 A 
ATOM      2  C   UNL     1       1.789   5.638  20.003  0.00  0.00    +0.000 A 
ATOM      3  C   UNL     1       2.661   6.544  19.393  0.00  0.00    +0.000 A 
ATOM      4  C   UNL     1       3.613   6.096  18.476  0.00  0.00    +0.000 A 
ATOM      5  N   UNL     1       4.473   6.991  17.839  0.00  0.00    +0.000 N 
ATOM      6  C   UNL     1       5.373   6.550  16.907  0.00  0.00    +0.000 A 
ATOM      7  C   UNL     1       5.596   5.267  16.576  0.00  0.00    +0.000 A 
ATOM      8  C   UNL     1       4.748   4.239  17.260  0.00  0.00    +0.000 A 
ATOM      9  O   UNL     1       4.897   3.034  17.092  0.00  0.00    +0.000 OA
ATOM     10  C   UNL     1       3.706   4.721  18.206  0.00  0.00    +0.000 A 
ATOM     11  C   UNL     1       2.834   3.814  18.812  0.00  0.00    +0.000 A 
ATOM     12  H   UNL     1       4.362   7.986  17.997  0.00  0.00    +0.000 HD
ENDROOT
BRANCH   1  14
ATOM     13  C   UNL     1       1.406   2.701  21.595  0.00  0.00    +0.000 C 
ATOM     14  C   UNL     1       0.870   3.304  20.305  0.00  0.00    +0.000 C 
ENDBRANCH   1  14
BRANCH   7  15
ATOM     15  C   UNL     1       6.636   4.899  15.568  0.00  0.00    +0.000 C 
ATOM     16  O   UNL     1       7.778   4.593  15.908  0.00  0.00    +0.000 OA
BRANCH  15  17
ATOM     17  C   UNL     1       6.256   4.835  14.095  0.00  0.00    +0.000 C 
BRANCH  17  18
ATOM     18  C   UNL     1       5.849   3.433  13.623  0.00  0.00    +0.000 C 
BRANCH  18  19
ATOM     19  C   UNL     1       5.894   3.225  12.087  0.00  0.00    +0.000 C 
ATOM     20  C   UNL     1       6.196   1.759  11.732  0.00  0.00    +0.000 C 
ATOM     21  C   UNL     1       4.515   3.585  11.500  0.00  0.00    +0.000 C 
ATOM     22  C   UNL     1       6.951   4.139  11.448  0.00  0.00    +0.000 C 
ENDBRANCH  18  19
ENDBRANCH  17  18
ENDBRANCH  15  17
ENDBRANCH   7  15
TORSDOF 5
ENDMDL
MODEL 6
REMARK VINA RESULT:      -7.4      1.100      1.565
REMARK  Name = 
REMARK  9 active torsions:
REMARK  status: ('A' for Active; 'I' for Inactive)
REMARK    1  A    between atoms: C_1  and  C_2
REMARK    2  A    between atoms: C_2  and  C_3
REMARK    3  A    between atoms: C_9  and  C_10
REMARK    4  A    between atoms: C_10  and  C_12
REMARK    5  A    between atoms: C_12  and  C_13
REMARK    6  A    between atoms: C_13  and  C_14
REMARK    7  A    between atoms: C_14  and  C_15
REMARK    8  A    between atoms: C_14  and  C_16
REMARK    9  A    between atoms: C_14  and  C_17
REMARK                            x       y       z     vdW  Elec       q    Type
REMARK                         _______ _______ _______ _____ _____    ______ ____
ROOT
ATOM      1  C   UNL     1       5.837   3.475  12.613  0.00  0.00    +0.000 A 
ATOM      2  C   UNL     1       6.895   4.344  12.311  0.00  0.00    +0.000 A 
ATOM      3  C   UNL     1       7.500   5.105  13.315  0.00  0.00    +0.000 A 
ATOM      4  C   UNL     1       7.061   5.003  14.636  0.00  0.00    +0.000 A 
ATOM      5  N   UNL     1       7.672   5.736  15.654  0.00  0.00    +0.000 N 
ATOM      6  C   UNL     1       7.268   5.597  16.954  0.00  0.00    +0.000 A 
ATOM      7  C   UNL     1       6.230   4.854  17.378  0.00  0.00    +0.000 A 
ATOM      8  C   UNL     1       5.488   4.078  16.335  0.00  0.00    +0.000 A 
ATOM      9  O   UNL     1       4.488   3.415  16.585  0.00  0.00    +0.000 OA
ATOM     10  C   UNL     1       5.982   4.156  14.933  0.00  0.00    +0.000 A 
ATOM     11  C   UNL     1       5.377   3.392  13.933  0.00  0.00    +0.000 A 
ATOM     12  H   UNL     1       8.486   6.301  15.440  0.00  0.00    +0.000 HD
ENDROOT
BRANCH   1  14
ATOM     13  C   UNL     1       3.904   3.148  11.073  0.00  0.00    +0.000 C 
ATOM     14  C   UNL     1       5.240   2.595  11.547  0.00  0.00    +0.000 C 
ENDBRANCH   1  14
BRANCH   7  15
ATOM     15  C   UNL     1       5.856   4.807  18.824  0.00  0.00    +0.000 C 
ATOM     16  O   UNL     1       6.692   4.985  19.708  0.00  0.00    +0.000 OA
BRANCH  15  17
ATOM     17  C   UNL     1       4.397   4.604  19.210  0.00  0.00    +0.000 C 
BRANCH  17  18
ATOM     18  C   UNL     1       3.704   5.883  19.697  0.00  0.00    +0.000 C 
BRANCH  18  19
ATOM     19  C   UNL     1       2.800   6.575  18.644  0.00  0.00    +0.000 C 
ATOM     20  C   UNL     1       3.641   7.268  17.558  0.00  0.00    +0.000 C 
ATOM     21  C   UNL     1       1.928   5.502  17.961  0.00  0.00    +0.000 C 
ATOM     22  C   UNL     1       1.876   7.602  19.315  0.00  0.00    +0.000 C 
ENDBRANCH  18  19
ENDBRANCH  17  18
ENDBRANCH  15  17
ENDBRANCH   7  15
TORSDOF 5
ENDMDL
MODEL 7
REMARK VINA RESULT:      -7.2      1.275      1.944
REMARK  Name = 
REMARK  9 active torsions:
REMARK  status: ('A' for Active; 'I' for Inactive)
REMARK    1  A    between atoms: C_1  and  C_2
REMARK    2  A    between atoms: C_2  and  C_3
REMARK    3  A    between atoms: C_9  and  C_10
REMARK    4  A    between atoms: C_10  and  C_12
REMARK    5  A    between atoms: C_12  and  C_13
REMARK    6  A    between atoms: C_13  and  C_14
REMARK    7  A    between atoms: C_14  and  C_15
REMARK    8  A    between atoms: C_14  and  C_16
REMARK    9  A    between atoms: C_14  and  C_17
REMARK                            x       y       z     vdW  Elec       q    Type
REMARK                         _______ _______ _______ _____ _____    ______ ____
ROOT
ATOM      1  C   UNL     1       5.911   3.346  12.544  0.00  0.00    +0.000 A 
ATOM      2  C   UNL     1       6.926   4.243  12.182  0.00  0.00    +0.000 A 
ATOM      3  C   UNL     1       7.510   5.080  13.136  0.00  0.00    +0.000 A 
ATOM      4  C   UNL     1       7.094   5.029  14.467  0.00  0.00    +0.000 A 
ATOM      5  N   UNL     1       7.686   5.840  15.436  0.00  0.00    +0.000 N 
ATOM      6  C   UNL     1       7.305   5.752  16.747  0.00  0.00    +0.000 A 
ATOM      7  C   UNL     1       6.307   4.988  17.225  0.00  0.00    +0.000 A 
ATOM      8  C   UNL     1       5.585   4.128  16.234  0.00  0.00    +0.000 A 
ATOM      9  O   UNL     1       4.618   3.436  16.534  0.00  0.00    +0.000 OA
ATOM     10  C   UNL     1       6.057   4.153  14.824  0.00  0.00    +0.000 A 
ATOM     11  C   UNL     1       5.473   3.313  13.873  0.00  0.00    +0.000 A 
ATOM     12  H   UNL     1       8.471   6.428  15.181  0.00  0.00    +0.000 HD
ENDROOT
BRANCH   1  14
ATOM     13  C   UNL     1       6.386   1.369  11.102  0.00  0.00    +0.000 C 
ATOM     14  C   UNL     1       5.340   2.387  11.534  0.00  0.00    +0.000 C 
ENDBRANCH   1  14
BRANCH   7  15
ATOM     15  C   UNL     1       5.953   5.001  18.676  0.00  0.00    +0.000 C 
ATOM     16  O   UNL     1       6.800   4.791  19.544  0.00  0.00    +0.000 OA
BRANCH  15  17
ATOM     17  C   UNL     1       4.531   5.350  19.095  0.00  0.00    +0.000 C 
BRANCH  17  18
ATOM     18  C   UNL     1       4.005   6.648  18.470  0.00  0.00    +0.000 C 
BRANCH  18  19
ATOM     19  C   UNL     1       2.473   6.856  18.596  0.00  0.00    +0.000 C 
ATOM     20  C   UNL     1       2.062   7.093  20.059  0.00  0.00    +0.000 C 
ATOM     21  C   UNL     1       2.075   8.101  17.779  0.00  0.00    +0.000 C 
ATOM     22  C   UNL     1       1.715   5.642  18.038  0.00  0.00    +0.000 C 
ENDBRANCH  18  19
ENDBRANCH  17  18
ENDBRANCH  15  17
ENDBRANCH   7  15
TORSDOF 5
ENDMDL
MODEL 8
REMARK VINA RESULT:      -7.2      3.095      4.716
REMARK  Name = 
REMARK  9 active torsions:
REMARK  status: ('A' for Active; 'I' for Inactive)
REMARK    1  A    between atoms: C_1  and  C_2
REMARK    2  A    between atoms: C_2  and  C_3
REMARK    3  A    between atoms: C_9  and  C_10
REMARK    4  A    between atoms: C_10  and  C_12
REMARK    5  A    between atoms: C_12  and  C_13
REMARK    6  A    between atoms: C_13  and  C_14
REMARK    7  A    between atoms: C_14  and  C_15
REMARK    8  A    between atoms: C_14  and  C_16
REMARK    9  A    between atoms: C_14  and  C_17
REMARK                            x       y       z     vdW  Elec       q    Type
REMARK                         _______ _______ _______ _____ _____    ______ ____
ROOT
ATOM      1  C   UNL     1       6.986   7.182  17.394  0.00  0.00    +0.000 A 
ATOM      2  C   UNL     1       7.805   6.089  17.076  0.00  0.00    +0.000 A 
ATOM      3  C   UNL     1       7.263   4.808  16.949  0.00  0.00    +0.000 A 
ATOM      4  C   UNL     1       5.895   4.600  17.130  0.00  0.00    +0.000 A 
ATOM      5  N   UNL     1       5.336   3.331  16.981  0.00  0.00    +0.000 N 
ATOM      6  C   UNL     1       3.986   3.142  17.115  0.00  0.00    +0.000 A 
ATOM      7  C   UNL     1       3.096   4.080  17.479  0.00  0.00    +0.000 A 
ATOM      8  C   UNL     1       3.629   5.460  17.712  0.00  0.00    +0.000 A 
ATOM      9  O   UNL     1       2.930   6.386  18.108  0.00  0.00    +0.000 OA
ATOM     10  C   UNL     1       5.081   5.689  17.479  0.00  0.00    +0.000 A 
ATOM     11  C   UNL     1       5.618   6.972  17.604  0.00  0.00    +0.000 A 
ATOM     12  H   UNL     1       5.921   2.562  16.674  0.00  0.00    +0.000 HD
ENDROOT
BRANCH   1  14
ATOM     13  C   UNL     1       8.559   8.705  18.586  0.00  0.00    +0.000 C 
ATOM     14  C   UNL     1       7.555   8.575  17.450  0.00  0.00    +0.000 C 
ENDBRANCH   1  14
BRANCH   7  15
ATOM     15  C   UNL     1       1.647   3.750  17.631  0.00  0.00    +0.000 C 
ATOM     16  O   UNL     1       0.781   4.367  17.013  0.00  0.00    +0.000 OA
BRANCH  15  17
ATOM     17  C   UNL     1       1.237   2.580  18.515  0.00  0.00    +0.000 C 
BRANCH  17  18
ATOM     18  C   UNL     1       0.739   3.001  19.904  0.00  0.00    +0.000 C 
BRANCH  18  19
ATOM     19  C   UNL     1       1.853   3.180  20.968  0.00  0.00    +0.000 C 
ATOM     20  C   UNL     1       2.189   4.666  21.177  0.00  0.00    +0.000 C 
ATOM     21  C   UNL     1       1.351   2.609  22.309  0.00  0.00    +0.000 C 
ATOM     22  C   UNL     1       3.121   2.418  20.555  0.00  0.00    +0.000 C 
ENDBRANCH  18  19
ENDBRANCH  17  18
ENDBRANCH  15  17
ENDBRANCH   7  15
TORSDOF 5
ENDMDL
MODEL 9
REMARK VINA RESULT:      -7.1      2.427      6.803
REMARK  Name = 
REMARK  9 active torsions:
REMARK  status: ('A' for Active; 'I' for Inactive)
REMARK    1  A    between atoms: C_1  and  C_2
REMARK    2  A    between atoms: C_2  and  C_3
REMARK    3  A    between atoms: C_9  and  C_10
REMARK    4  A    between atoms: C_10  and  C_12
REMARK    5  A    between atoms: C_12  and  C_13
REMARK    6  A    between atoms: C_13  and  C_14
REMARK    7  A    between atoms: C_14  and  C_15
REMARK    8  A    between atoms: C_14  and  C_16
REMARK    9  A    between atoms: C_14  and  C_17
REMARK                            x       y       z     vdW  Elec       q    Type
REMARK                         _______ _______ _______ _____ _____    ______ ____
ROOT
ATOM      1  C   UNL     1       2.243   7.815  18.778  0.00  0.00    +0.000 A 
ATOM      2  C   UNL     1       1.847   6.709  19.543  0.00  0.00    +0.000 A 
ATOM      3  C   UNL     1       2.480   5.473  19.389  0.00  0.00    +0.000 A 
ATOM      4  C   UNL     1       3.522   5.326  18.473  0.00  0.00    +0.000 A 
ATOM      5  N   UNL     1       4.182   4.105  18.326  0.00  0.00    +0.000 N 
ATOM      6  C   UNL     1       5.234   3.980  17.460  0.00  0.00    +0.000 A 
ATOM      7  C   UNL     1       5.677   4.932  16.621  0.00  0.00    +0.000 A 
ATOM      8  C   UNL     1       4.982   6.257  16.680  0.00  0.00    +0.000 A 
ATOM      9  O   UNL     1       5.251   7.184  15.924  0.00  0.00    +0.000 OA
ATOM     10  C   UNL     1       3.898   6.425  17.685  0.00  0.00    +0.000 A 
ATOM     11  C   UNL     1       3.269   7.663  17.839  0.00  0.00    +0.000 A 
ATOM     12  H   UNL     1       3.942   3.333  18.938  0.00  0.00    +0.000 HD
ENDROOT
BRANCH   1  14
ATOM     13  C   UNL     1       0.678   9.525  17.860  0.00  0.00    +0.000 C 
ATOM     14  C   UNL     1       1.617   9.166  19.003  0.00  0.00    +0.000 C 
ENDBRANCH   1  14
BRANCH   7  15
ATOM     15  C   UNL     1       6.814   4.669  15.688  0.00  0.00    +0.000 C 
ATOM     16  O   UNL     1       7.938   4.398  16.108  0.00  0.00    +0.000 OA
BRANCH  15  17
ATOM     17  C   UNL     1       6.562   4.668  14.186  0.00  0.00    +0.000 C 
BRANCH  17  18
ATOM     18  C   UNL     1       5.881   3.392  13.676  0.00  0.00    +0.000 C 
BRANCH  18  19
ATOM     19  C   UNL     1       5.871   3.233  12.133  0.00  0.00    +0.000 C 
ATOM     20  C   UNL     1       4.499   3.606  11.544  0.00  0.00    +0.000 C 
ATOM     21  C   UNL     1       6.924   4.184  11.532  0.00  0.00    +0.000 C 
ATOM     22  C   UNL     1       6.227   1.793  11.735  0.00  0.00    +0.000 C 
ENDBRANCH  18  19
ENDBRANCH  17  18
ENDBRANCH  15  17
ENDBRANCH   7  15
TORSDOF 5
ENDMDL
