MODEL 1
REMARK VINA RESULT:      -8.5      0.000      0.000
REMARK  Name = 
REMARK  4 active torsions:
REMARK  status: ('A' for Active; 'I' for Inactive)
REMARK    1  A    between atoms: C_4  and  C_5
REMARK    2  A    between atoms: N_11  and  C_12
REMARK    3  A    between atoms: C_12  and  C_13
REMARK    4  A    between atoms: C_16  and  C_17
REMARK                            x       y       z     vdW  Elec       q    Type
REMARK                         _______ _______ _______ _____ _____    ______ ____
ROOT
ATOM      1  N   UNL     1       6.712   3.697  13.748  0.00  0.00    +0.000 N 
ATOM      2  C   UNL     1       6.494   4.135  14.993  0.00  0.00    +0.000 A 
ATOM      3  C   UNL     1       5.284   3.979  15.692  0.00  0.00    +0.000 A 
ATOM      4  C   UNL     1       5.471   4.581  16.928  0.00  0.00    +0.000 A 
ATOM      5  N   UNL     1       6.800   4.995  16.905  0.00  0.00    +0.000 N 
ATOM      6  N   UNL     1       7.400   4.773  15.714  0.00  0.00    +0.000 NA
ATOM      7  H   UNL     1       6.151   2.962  13.349  0.00  0.00    +0.000 HD
ATOM      8  H   UNL     1       7.684   3.679  13.453  0.00  0.00    +0.000 HD
ENDROOT
BRANCH   4   9
ATOM      9  C   UNL     1       4.524   4.716  18.048  0.00  0.00    +0.000 A 
ATOM     10  C   UNL     1       3.926   5.956  18.318  0.00  0.00    +0.000 A 
ATOM     11  C   UNL     1       3.026   6.107  19.380  0.00  0.00    +0.000 A 
ATOM     12  C   UNL     1       2.695   5.015  20.178  0.00  0.00    +0.000 A 
ATOM     13  C   UNL     1       3.288   3.783  19.937  0.00  0.00    +0.000 A 
ATOM     14  C   UNL     1       4.218   3.647  18.903  0.00  0.00    +0.000 A 
ENDBRANCH   4   9
BRANCH   5  15
ATOM     15  C   UNL     1       7.544   5.596  18.012  0.00  0.00    +0.000 C 
BRANCH  15  16
ATOM     16  C   UNL     1       7.684   7.070  17.952  0.00  0.00    +0.000 A 
ATOM     17  C   UNL     1       6.951   7.967  17.208  0.00  0.00    +0.000 A 
ATOM     18  O   UNL     1       7.401   9.218  17.487  0.00  0.00    +0.000 OA
ATOM     19  C   UNL     1       8.405   9.017  18.398  0.00  0.00    +0.000 A 
ATOM     20  N   UNL     1       8.575   7.757  18.748  0.00  0.00    +0.000 NA
BRANCH  19  21
ATOM     21  C   UNL     1       9.146  10.194  18.833  0.00  0.00    +0.000 A 
ATOM     22  C   UNL     1       9.318  10.497  20.194  0.00  0.00    +0.000 A 
ATOM     23  C   UNL     1      10.004  11.652  20.581  0.00  0.00    +0.000 A 
ATOM     24  C   UNL     1      10.522  12.507  19.611  0.00  0.00    +0.000 A 
ATOM     25 BR   UNL     1      11.433  14.077  20.137  0.00  0.00    +0.000 Br
ATOM     26  C   UNL     1      10.365  12.220  18.257  0.00  0.00    +0.000 A 
ATOM     27  C   UNL     1       9.679  11.065  17.873  0.00  0.00    +0.000 A 
ENDBRANCH  19  21
ENDBRANCH  15  16
ENDBRANCH   5  15
TORSDOF 4
ENDMDL
MODEL 2
REMARK VINA RESULT:      -8.2      5.548      7.305
REMARK  Name = 
REMARK  4 active torsions:
REMARK  status: ('A' for Active; 'I' for Inactive)
REMARK    1  A    between atoms: C_4  and  C_5
REMARK    2  A    between atoms: N_11  and  C_12
REMARK    3  A    between atoms: C_12  and  C_13
REMARK    4  A    between atoms: C_16  and  C_17
REMARK                            x       y       z     vdW  Elec       q    Type
REMARK                         _______ _______ _______ _____ _____    ______ ____
ROOT
ATOM      1  N   UNL     1       0.724   2.010  18.612  0.00  0.00    +0.000 N 
ATOM      2  C   UNL     1       1.777   2.828  18.511  0.00  0.00    +0.000 A 
ATOM      3  C   UNL     1       2.731   2.777  17.481  0.00  0.00    +0.000 A 
ATOM      4  C   UNL     1       3.653   3.778  17.756  0.00  0.00    +0.000 A 
ATOM      5  N   UNL     1       3.148   4.399  18.894  0.00  0.00    +0.000 N 
ATOM      6  N   UNL     1       2.042   3.789  19.380  0.00  0.00    +0.000 NA
ATOM      7  H   UNL     1       0.369   1.518  17.807  0.00  0.00    +0.000 HD
ATOM      8  H   UNL     1       0.006   2.297  19.270  0.00  0.00    +0.000 HD
ENDROOT
BRANCH   4   9
ATOM      9  C   UNL     1       4.862   4.157  17.006  0.00  0.00    +0.000 A 
ATOM     10  C   UNL     1       4.785   4.415  15.629  0.00  0.00    +0.000 A 
ATOM     11  C   UNL     1       5.925   4.773  14.898  0.00  0.00    +0.000 A 
ATOM     12  C   UNL     1       7.156   4.899  15.535  0.00  0.00    +0.000 A 
ATOM     13  C   UNL     1       7.256   4.632  16.894  0.00  0.00    +0.000 A 
ATOM     14  C   UNL     1       6.125   4.234  17.611  0.00  0.00    +0.000 A 
ENDBRANCH   4   9
BRANCH   5  15
ATOM     15  C   UNL     1       3.684   5.595  19.545  0.00  0.00    +0.000 C 
BRANCH  15  16
ATOM     16  C   UNL     1       2.818   6.795  19.472  0.00  0.00    +0.000 A 
ATOM     17  C   UNL     1       2.527   7.573  18.375  0.00  0.00    +0.000 A 
ATOM     18  O   UNL     1       1.665   8.549  18.762  0.00  0.00    +0.000 OA
ATOM     19  C   UNL     1       1.474   8.315  20.099  0.00  0.00    +0.000 A 
ATOM     20  N   UNL     1       2.098   7.247  20.556  0.00  0.00    +0.000 NA
BRANCH  19  21
ATOM     21  C   UNL     1       0.642   9.268  20.822  0.00  0.00    +0.000 A 
ATOM     22  C   UNL     1       0.447   9.175  22.210  0.00  0.00    +0.000 A 
ATOM     23  C   UNL     1      -0.384  10.082  22.872  0.00  0.00    +0.000 A 
ATOM     24  C   UNL     1      -1.022  11.089  22.150  0.00  0.00    +0.000 A 
ATOM     25 BR   UNL     1      -2.160  12.304  23.045  0.00  0.00    +0.000 Br
ATOM     26  C   UNL     1      -0.837  11.200  20.774  0.00  0.00    +0.000 A 
ATOM     27  C   UNL     1      -0.006  10.291  20.116  0.00  0.00    +0.000 A 
ENDBRANCH  19  21
ENDBRANCH  15  16
ENDBRANCH   5  15
TORSDOF 4
ENDMDL
MODEL 3
REMARK VINA RESULT:      -8.2      5.493      7.328
REMARK  Name = 
REMARK  4 active torsions:
REMARK  status: ('A' for Active; 'I' for Inactive)
REMARK    1  A    between atoms: C_4  and  C_5
REMARK    2  A    between atoms: N_11  and  C_12
REMARK    3  A    between atoms: C_12  and  C_13
REMARK    4  A    between atoms: C_16  and  C_17
REMARK                            x       y       z     vdW  Elec       q    Type
REMARK                         _______ _______ _______ _____ _____    ______ ____
ROOT
ATOM      1  N   UNL     1       0.858   1.826  18.642  0.00  0.00    +0.000 N 
ATOM      2  C   UNL     1       1.890   2.673  18.545  0.00  0.00    +0.000 A 
ATOM      3  C   UNL     1       2.843   2.652  17.513  0.00  0.00    +0.000 A 
ATOM      4  C   UNL     1       3.739   3.674  17.792  0.00  0.00    +0.000 A 
ATOM      5  N   UNL     1       3.220   4.276  18.934  0.00  0.00    +0.000 N 
ATOM      6  N   UNL     1       2.132   3.635  19.419  0.00  0.00    +0.000 NA
ATOM      7  H   UNL     1       0.514   1.330  17.835  0.00  0.00    +0.000 HD
ATOM      8  H   UNL     1       0.134   2.091  19.303  0.00  0.00    +0.000 HD
ENDROOT
BRANCH   4   9
ATOM      9  C   UNL     1       4.937   4.089  17.043  0.00  0.00    +0.000 A 
ATOM     10  C   UNL     1       6.164   4.242  17.706  0.00  0.00    +0.000 A 
ATOM     11  C   UNL     1       7.314   4.640  17.014  0.00  0.00    +0.000 A 
ATOM     12  C   UNL     1       7.261   4.873  15.643  0.00  0.00    +0.000 A 
ATOM     13  C   UNL     1       6.053   4.743  14.970  0.00  0.00    +0.000 A 
ATOM     14  C   UNL     1       4.899   4.387  15.673  0.00  0.00    +0.000 A 
ENDBRANCH   4   9
BRANCH   5  15
ATOM     15  C   UNL     1       3.726   5.482  19.591  0.00  0.00    +0.000 C 
BRANCH  15  16
ATOM     16  C   UNL     1       2.862   6.678  19.467  0.00  0.00    +0.000 A 
ATOM     17  C   UNL     1       2.593   7.424  18.342  0.00  0.00    +0.000 A 
ATOM     18  O   UNL     1       1.723   8.410  18.684  0.00  0.00    +0.000 OA
ATOM     19  C   UNL     1       1.505   8.215  20.023  0.00  0.00    +0.000 A 
ATOM     20  N   UNL     1       2.120   7.161  20.524  0.00  0.00    +0.000 NA
BRANCH  19  21
ATOM     21  C   UNL     1       0.659   9.187  20.702  0.00  0.00    +0.000 A 
ATOM     22  C   UNL     1       0.132  10.304  20.030  0.00  0.00    +0.000 A 
ATOM     23  C   UNL     1      -0.649  11.238  20.716  0.00  0.00    +0.000 A 
ATOM     24  C   UNL     1      -0.908  11.062  22.073  0.00  0.00    +0.000 A 
ATOM     25 BR   UNL     1      -1.949  12.337  23.001  0.00  0.00    +0.000 Br
ATOM     26  C   UNL     1      -0.398   9.959  22.754  0.00  0.00    +0.000 A 
ATOM     27  C   UNL     1       0.382   9.026  22.066  0.00  0.00    +0.000 A 
ENDBRANCH  19  21
ENDBRANCH  15  16
ENDBRANCH   5  15
TORSDOF 4
ENDMDL
MODEL 4
REMARK VINA RESULT:      -8.0      5.487      7.159
REMARK  Name = 
REMARK  4 active torsions:
REMARK  status: ('A' for Active; 'I' for Inactive)
REMARK    1  A    between atoms: C_4  and  C_5
REMARK    2  A    between atoms: N_11  and  C_12
REMARK    3  A    between atoms: C_12  and  C_13
REMARK    4  A    between atoms: C_16  and  C_17
REMARK                            x       y       z     vdW  Elec       q    Type
REMARK                         _______ _______ _______ _____ _____    ______ ____
ROOT
ATOM      1  N   UNL     1       0.691   2.019  18.665  0.00  0.00    +0.000 N 
ATOM      2  C   UNL     1       1.736   2.847  18.550  0.00  0.00    +0.000 A 
ATOM      3  C   UNL     1       2.717   2.757  17.548  0.00  0.00    +0.000 A 
ATOM      4  C   UNL     1       3.618   3.784  17.795  0.00  0.00    +0.000 A 
ATOM      5  N   UNL     1       3.075   4.455  18.887  0.00  0.00    +0.000 N 
ATOM      6  N   UNL     1       1.965   3.854  19.375  0.00  0.00    +0.000 NA
ATOM      7  H   UNL     1       0.363   1.482  17.878  0.00  0.00    +0.000 HD
ATOM      8  H   UNL     1      -0.048   2.329  19.290  0.00  0.00    +0.000 HD
ENDROOT
BRANCH   4   9
ATOM      9  C   UNL     1       4.841   4.143  17.058  0.00  0.00    +0.000 A 
ATOM     10  C   UNL     1       6.059   4.280  17.742  0.00  0.00    +0.000 A 
ATOM     11  C   UNL     1       7.233   4.626  17.061  0.00  0.00    +0.000 A 
ATOM     12  C   UNL     1       7.213   4.819  15.682  0.00  0.00    +0.000 A 
ATOM     13  C   UNL     1       6.015   4.703  14.990  0.00  0.00    +0.000 A 
ATOM     14  C   UNL     1       4.838   4.401  15.680  0.00  0.00    +0.000 A 
ENDBRANCH   4   9
BRANCH   5  15
ATOM     15  C   UNL     1       3.578   5.690  19.489  0.00  0.00    +0.000 C 
BRANCH  15  16
ATOM     16  C   UNL     1       2.901   6.930  19.044  0.00  0.00    +0.000 A 
ATOM     17  C   UNL     1       3.019   7.581  17.837  0.00  0.00    +0.000 A 
ATOM     18  O   UNL     1       2.192   8.658  17.852  0.00  0.00    +0.000 OA
ATOM     19  C   UNL     1       1.605   8.612  19.091  0.00  0.00    +0.000 A 
ATOM     20  N   UNL     1       1.956   7.569  19.817  0.00  0.00    +0.000 NA
BRANCH  19  21
ATOM     21  C   UNL     1       0.710   9.708  19.436  0.00  0.00    +0.000 A 
ATOM     22  C   UNL     1       0.669  10.247  20.734  0.00  0.00    +0.000 A 
ATOM     23  C   UNL     1      -0.225  11.275  21.045  0.00  0.00    +0.000 A 
ATOM     24  C   UNL     1      -1.081  11.769  20.063  0.00  0.00    +0.000 A 
ATOM     25 BR   UNL     1      -2.302  13.146  20.492  0.00  0.00    +0.000 Br
ATOM     26  C   UNL     1      -1.051  11.250  18.771  0.00  0.00    +0.000 A 
ATOM     27  C   UNL     1      -0.156  10.223  18.462  0.00  0.00    +0.000 A 
ENDBRANCH  19  21
ENDBRANCH  15  16
ENDBRANCH   5  15
TORSDOF 4
ENDMDL
MODEL 5
REMARK VINA RESULT:      -7.9      2.220      3.201
REMARK  Name = 
REMARK  4 active torsions:
REMARK  status: ('A' for Active; 'I' for Inactive)
REMARK    1  A    between atoms: C_4  and  C_5
REMARK    2  A    between atoms: N_11  and  C_12
REMARK    3  A    between atoms: C_12  and  C_13
REMARK    4  A    between atoms: C_16  and  C_17
REMARK                            x       y       z     vdW  Elec       q    Type
REMARK                         _______ _______ _______ _____ _____    ______ ____
ROOT
ATOM      1  N   UNL     1       1.678   9.034  17.843  0.00  0.00    +0.000 N 
ATOM      2  C   UNL     1       2.475   7.961  17.780  0.00  0.00    +0.000 A 
ATOM      3  C   UNL     1       2.104   6.668  18.185  0.00  0.00    +0.000 A 
ATOM      4  C   UNL     1       3.213   5.861  17.970  0.00  0.00    +0.000 A 
ATOM      5  N   UNL     1       4.145   6.716  17.390  0.00  0.00    +0.000 N 
ATOM      6  N   UNL     1       3.716   7.998  17.326  0.00  0.00    +0.000 NA
ATOM      7  H   UNL     1       0.676   8.936  17.883  0.00  0.00    +0.000 HD
ATOM      8  H   UNL     1       1.992   9.845  17.318  0.00  0.00    +0.000 HD
ENDROOT
BRANCH   4   9
ATOM      9  C   UNL     1       3.378   4.421  18.230  0.00  0.00    +0.000 A 
ATOM     10  C   UNL     1       4.117   3.987  19.341  0.00  0.00    +0.000 A 
ATOM     11  C   UNL     1       4.290   2.623  19.604  0.00  0.00    +0.000 A 
ATOM     12  C   UNL     1       3.711   1.670  18.771  0.00  0.00    +0.000 A 
ATOM     13  C   UNL     1       2.990   2.079  17.657  0.00  0.00    +0.000 A 
ATOM     14  C   UNL     1       2.856   3.441  17.375  0.00  0.00    +0.000 A 
ENDBRANCH   4   9
BRANCH   5  15
ATOM     15  C   UNL     1       5.460   6.345  16.865  0.00  0.00    +0.000 C 
BRANCH  15  16
ATOM     16  C   UNL     1       6.610   7.024  17.507  0.00  0.00    +0.000 A 
ATOM     17  C   UNL     1       7.610   6.468  18.273  0.00  0.00    +0.000 A 
ATOM     18  O   UNL     1       8.472   7.456  18.627  0.00  0.00    +0.000 OA
ATOM     19  C   UNL     1       7.943   8.583  18.054  0.00  0.00    +0.000 A 
ATOM     20  N   UNL     1       6.862   8.367  17.330  0.00  0.00    +0.000 NA
BRANCH  19  21
ATOM     21  C   UNL     1       8.620   9.843  18.331  0.00  0.00    +0.000 A 
ATOM     22  C   UNL     1       9.523   9.977  19.401  0.00  0.00    +0.000 A 
ATOM     23  C   UNL     1      10.131  11.207  19.664  0.00  0.00    +0.000 A 
ATOM     24  C   UNL     1       9.844  12.308  18.860  0.00  0.00    +0.000 A 
ATOM     25 BR   UNL     1      10.654  13.974  19.229  0.00  0.00    +0.000 Br
ATOM     26  C   UNL     1       8.956  12.192  17.792  0.00  0.00    +0.000 A 
ATOM     27  C   UNL     1       8.349  10.962  17.531  0.00  0.00    +0.000 A 
ENDBRANCH  19  21
ENDBRANCH  15  16
ENDBRANCH   5  15
TORSDOF 4
ENDMDL
MODEL 6
REMARK VINA RESULT:      -7.9      5.021      7.310
REMARK  Name = 
REMARK  4 active torsions:
REMARK  status: ('A' for Active; 'I' for Inactive)
REMARK    1  A    between atoms: C_4  and  C_5
REMARK    2  A    between atoms: N_11  and  C_12
REMARK    3  A    between atoms: C_12  and  C_13
REMARK    4  A    between atoms: C_16  and  C_17
REMARK                            x       y       z     vdW  Elec       q    Type
REMARK                         _______ _______ _______ _____ _____    ______ ____
ROOT
ATOM      1  N   UNL     1       2.036   1.860  18.275  0.00  0.00    +0.000 N 
ATOM      2  C   UNL     1       2.632   3.058  18.265  0.00  0.00    +0.000 A 
ATOM      3  C   UNL     1       4.024   3.256  18.259  0.00  0.00    +0.000 A 
ATOM      4  C   UNL     1       4.220   4.630  18.262  0.00  0.00    +0.000 A 
ATOM      5  N   UNL     1       2.933   5.155  18.203  0.00  0.00    +0.000 N 
ATOM      6  N   UNL     1       1.973   4.204  18.259  0.00  0.00    +0.000 NA
ATOM      7  H   UNL     1       2.523   1.034  17.965  0.00  0.00    +0.000 HD
ATOM      8  H   UNL     1       1.044   1.862  18.056  0.00  0.00    +0.000 HD
ENDROOT
BRANCH   4   9
ATOM      9  C   UNL     1       5.483   5.387  18.269  0.00  0.00    +0.000 A 
ATOM     10  C   UNL     1       6.397   5.221  19.320  0.00  0.00    +0.000 A 
ATOM     11  C   UNL     1       7.601   5.936  19.348  0.00  0.00    +0.000 A 
ATOM     12  C   UNL     1       7.920   6.813  18.315  0.00  0.00    +0.000 A 
ATOM     13  C   UNL     1       7.021   7.003  17.274  0.00  0.00    +0.000 A 
ATOM     14  C   UNL     1       5.801   6.321  17.273  0.00  0.00    +0.000 A 
ENDBRANCH   4   9
BRANCH   5  15
ATOM     15  C   UNL     1       2.572   6.568  18.075  0.00  0.00    +0.000 C 
BRANCH  15  16
ATOM     16  C   UNL     1       2.024   7.192  19.301  0.00  0.00    +0.000 A 
ATOM     17  C   UNL     1       1.913   6.648  20.560  0.00  0.00    +0.000 A 
ATOM     18  O   UNL     1       1.382   7.588  21.385  0.00  0.00    +0.000 OA
ATOM     19  C   UNL     1       1.188   8.675  20.572  0.00  0.00    +0.000 A 
ATOM     20  N   UNL     1       1.606   8.505  19.332  0.00  0.00    +0.000 NA
BRANCH  19  21
ATOM     21  C   UNL     1       0.543   9.837  21.168  0.00  0.00    +0.000 A 
ATOM     22  C   UNL     1       0.709  11.128  20.637  0.00  0.00    +0.000 A 
ATOM     23  C   UNL     1       0.106  12.229  21.250  0.00  0.00    +0.000 A 
ATOM     24  C   UNL     1      -0.667  12.046  22.395  0.00  0.00    +0.000 A 
ATOM     25 BR   UNL     1      -1.466  13.539  23.233  0.00  0.00    +0.000 Br
ATOM     26  C   UNL     1      -0.845  10.774  22.933  0.00  0.00    +0.000 A 
ATOM     27  C   UNL     1      -0.242   9.675  22.318  0.00  0.00    +0.000 A 
ENDBRANCH  19  21
ENDBRANCH  15  16
ENDBRANCH   5  15
TORSDOF 4
ENDMDL
MODEL 7
REMARK VINA RESULT:      -7.9      3.643      6.209
REMARK  Name = 
REMARK  4 active torsions:
REMARK  status: ('A' for Active; 'I' for Inactive)
REMARK    1  A    between atoms: C_4  and  C_5
REMARK    2  A    between atoms: N_11  and  C_12
REMARK    3  A    between atoms: C_12  and  C_13
REMARK    4  A    between atoms: C_16  and  C_17
REMARK                            x       y       z     vdW  Elec       q    Type
REMARK                         _______ _______ _______ _____ _____    ______ ____
ROOT
ATOM      1  N   UNL     1       6.104   3.361  12.937  0.00  0.00    +0.000 N 
ATOM      2  C   UNL     1       6.143   3.792  14.202  0.00  0.00    +0.000 A 
ATOM      3  C   UNL     1       6.915   4.878  14.651  0.00  0.00    +0.000 A 
ATOM      4  C   UNL     1       6.682   4.982  16.015  0.00  0.00    +0.000 A 
ATOM      5  N   UNL     1       5.737   3.993  16.273  0.00  0.00    +0.000 N 
ATOM      6  N   UNL     1       5.453   3.239  15.185  0.00  0.00    +0.000 NA
ATOM      7  H   UNL     1       6.369   3.963  12.173  0.00  0.00    +0.000 HD
ATOM      8  H   UNL     1       5.348   2.720  12.714  0.00  0.00    +0.000 HD
ENDROOT
BRANCH   4   9
ATOM      9  C   UNL     1       7.242   5.940  16.983  0.00  0.00    +0.000 A 
ATOM     10  C   UNL     1       7.701   5.492  18.231  0.00  0.00    +0.000 A 
ATOM     11  C   UNL     1       8.233   6.387  19.167  0.00  0.00    +0.000 A 
ATOM     12  C   UNL     1       8.335   7.741  18.863  0.00  0.00    +0.000 A 
ATOM     13  C   UNL     1       7.872   8.207  17.639  0.00  0.00    +0.000 A 
ATOM     14  C   UNL     1       7.302   7.317  16.725  0.00  0.00    +0.000 A 
ENDBRANCH   4   9
BRANCH   5  15
ATOM     15  C   UNL     1       5.063   3.742  17.547  0.00  0.00    +0.000 C 
BRANCH  15  16
ATOM     16  C   UNL     1       3.851   4.557  17.792  0.00  0.00    +0.000 A 
ATOM     17  C   UNL     1       2.533   4.199  17.625  0.00  0.00    +0.000 A 
ATOM     18  O   UNL     1       1.756   5.249  18.000  0.00  0.00    +0.000 OA
ATOM     19  C   UNL     1       2.655   6.211  18.378  0.00  0.00    +0.000 A 
ATOM     20  N   UNL     1       3.915   5.827  18.324  0.00  0.00    +0.000 NA
BRANCH  19  21
ATOM     21  C   UNL     1       2.110   7.507  18.762  0.00  0.00    +0.000 A 
ATOM     22  C   UNL     1       1.985   8.559  17.839  0.00  0.00    +0.000 A 
ATOM     23  C   UNL     1       1.490   9.801  18.244  0.00  0.00    +0.000 A 
ATOM     24  C   UNL     1       1.118   9.999  19.572  0.00  0.00    +0.000 A 
ATOM     25 BR   UNL     1       0.467  11.685  20.121  0.00  0.00    +0.000 Br
ATOM     26  C   UNL     1       1.231   8.966  20.500  0.00  0.00    +0.000 A 
ATOM     27  C   UNL     1       1.725   7.725  20.092  0.00  0.00    +0.000 A 
ENDBRANCH  19  21
ENDBRANCH  15  16
ENDBRANCH   5  15
TORSDOF 4
ENDMDL
MODEL 8
REMARK VINA RESULT:      -7.8      4.757      6.991
REMARK  Name = 
REMARK  4 active torsions:
REMARK  status: ('A' for Active; 'I' for Inactive)
REMARK    1  A    between atoms: C_4  and  C_5
REMARK    2  A    between atoms: N_11  and  C_12
REMARK    3  A    between atoms: C_12  and  C_13
REMARK    4  A    between atoms: C_16  and  C_17
REMARK                            x       y       z     vdW  Elec       q    Type
REMARK                         _______ _______ _______ _____ _____    ______ ____
ROOT
ATOM      1  N   UNL     1       8.076   5.124  19.554  0.00  0.00    +0.000 N 
ATOM      2  C   UNL     1       7.438   5.280  18.388  0.00  0.00    +0.000 A 
ATOM      3  C   UNL     1       7.777   4.614  17.198  0.00  0.00    +0.000 A 
ATOM      4  C   UNL     1       6.887   5.064  16.234  0.00  0.00    +0.000 A 
ATOM      5  N   UNL     1       6.037   5.918  16.932  0.00  0.00    +0.000 N 
ATOM      6  N   UNL     1       6.405   6.088  18.222  0.00  0.00    +0.000 NA
ATOM      7  H   UNL     1       8.628   4.301  19.739  0.00  0.00    +0.000 HD
ATOM      8  H   UNL     1       7.595   5.490  20.370  0.00  0.00    +0.000 HD
ENDROOT
BRANCH   4   9
ATOM      9  C   UNL     1       6.797   4.701  14.810  0.00  0.00    +0.000 A 
ATOM     10  C   UNL     1       5.824   3.789  14.376  0.00  0.00    +0.000 A 
ATOM     11  C   UNL     1       5.725   3.427  13.027  0.00  0.00    +0.000 A 
ATOM     12  C   UNL     1       6.586   3.986  12.086  0.00  0.00    +0.000 A 
ATOM     13  C   UNL     1       7.567   4.878  12.498  0.00  0.00    +0.000 A 
ATOM     14  C   UNL     1       7.689   5.204  13.852  0.00  0.00    +0.000 A 
ENDBRANCH   4   9
BRANCH   5  15
ATOM     15  C   UNL     1       4.844   6.583  16.405  0.00  0.00    +0.000 C 
BRANCH  15  16
ATOM     16  C   UNL     1       3.765   6.817  17.392  0.00  0.00    +0.000 A 
ATOM     17  C   UNL     1       3.095   5.893  18.161  0.00  0.00    +0.000 A 
ATOM     18  O   UNL     1       2.209   6.556  18.948  0.00  0.00    +0.000 OA
ATOM     19  C   UNL     1       2.383   7.873  18.611  0.00  0.00    +0.000 A 
ATOM     20  N   UNL     1       3.338   8.084  17.727  0.00  0.00    +0.000 NA
BRANCH  19  21
ATOM     21  C   UNL     1       1.496   8.838  19.247  0.00  0.00    +0.000 A 
ATOM     22  C   UNL     1       1.105   8.709  20.591  0.00  0.00    +0.000 A 
ATOM     23  C   UNL     1       0.226   9.631  21.164  0.00  0.00    +0.000 A 
ATOM     24  C   UNL     1      -0.265  10.687  20.399  0.00  0.00    +0.000 A 
ATOM     25 BR   UNL     1      -1.469  11.922  21.171  0.00  0.00    +0.000 Br
ATOM     26  C   UNL     1       0.115  10.834  19.067  0.00  0.00    +0.000 A 
ATOM     27  C   UNL     1       0.994   9.911  18.496  0.00  0.00    +0.000 A 
ENDBRANCH  19  21
ENDBRANCH  15  16
ENDBRANCH   5  15
TORSDOF 4
ENDMDL
MODEL 9
REMARK VINA RESULT:      -7.7      4.773      6.875
REMARK  Name = 
REMARK  4 active torsions:
REMARK  status: ('A' for Active; 'I' for Inactive)
REMARK    1  A    between atoms: C_4  and  C_5
REMARK    2  A    between atoms: N_11  and  C_12
REMARK    3  A    between atoms: C_12  and  C_13
REMARK    4  A    between atoms: C_16  and  C_17
REMARK                            x       y       z     vdW  Elec       q    Type
REMARK                         _______ _______ _______ _____ _____    ______ ____
ROOT
ATOM      1  N   UNL     1       8.353   5.365  20.459  0.00  0.00    +0.000 N 
ATOM      2  C   UNL     1       7.469   5.220  19.465  0.00  0.00    +0.000 A 
ATOM      3  C   UNL     1       7.807   4.919  18.135  0.00  0.00    +0.000 A 
ATOM      4  C   UNL     1       6.611   4.871  17.432  0.00  0.00    +0.000 A 
ATOM      5  N   UNL     1       5.639   5.081  18.405  0.00  0.00    +0.000 N 
ATOM      6  N   UNL     1       6.162   5.345  19.624  0.00  0.00    +0.000 NA
ATOM      7  H   UNL     1       9.276   4.965  20.397  0.00  0.00    +0.000 HD
ATOM      8  H   UNL     1       7.963   5.360  21.397  0.00  0.00    +0.000 HD
ENDROOT
BRANCH   4   9
ATOM      9  C   UNL     1       6.385   4.605  16.001  0.00  0.00    +0.000 A 
ATOM     10  C   UNL     1       7.352   4.977  15.055  0.00  0.00    +0.000 A 
ATOM     11  C   UNL     1       7.154   4.737  13.690  0.00  0.00    +0.000 A 
ATOM     12  C   UNL     1       5.995   4.105  13.250  0.00  0.00    +0.000 A 
ATOM     13  C   UNL     1       5.019   3.744  14.169  0.00  0.00    +0.000 A 
ATOM     14  C   UNL     1       5.201   4.023  15.526  0.00  0.00    +0.000 A 
ENDBRANCH   4   9
BRANCH   5  15
ATOM     15  C   UNL     1       4.189   5.021  18.216  0.00  0.00    +0.000 C 
BRANCH  15  16
ATOM     16  C   UNL     1       3.477   6.309  18.385  0.00  0.00    +0.000 A 
ATOM     17  C   UNL     1       3.429   7.378  17.518  0.00  0.00    +0.000 A 
ATOM     18  O   UNL     1       2.632   8.333  18.066  0.00  0.00    +0.000 OA
ATOM     19  C   UNL     1       2.233   7.791  19.260  0.00  0.00    +0.000 A 
ATOM     20  N   UNL     1       2.666   6.563  19.469  0.00  0.00    +0.000 NA
BRANCH  19  21
ATOM     21  C   UNL     1       1.417   8.633  20.124  0.00  0.00    +0.000 A 
ATOM     22  C   UNL     1       1.189   8.306  21.472  0.00  0.00    +0.000 A 
ATOM     23  C   UNL     1       0.374   9.114  22.269  0.00  0.00    +0.000 A 
ATOM     24  C   UNL     1      -0.216  10.253  21.725  0.00  0.00    +0.000 A 
ATOM     25 BR   UNL     1      -1.332  11.334  22.799  0.00  0.00    +0.000 Br
ATOM     26  C   UNL     1       0.003  10.595  20.392  0.00  0.00    +0.000 A 
ATOM     27  C   UNL     1       0.819   9.786  19.598  0.00  0.00    +0.000 A 
ENDBRANCH  19  21
ENDBRANCH  15  16
ENDBRANCH   5  15
TORSDOF 4
ENDMDL
