MODEL 1
REMARK VINA RESULT:      -6.5      0.000      0.000
REMARK  Name = 
REMARK  8 active torsions:
REMARK  status: ('A' for Active; 'I' for Inactive)
REMARK    1  A    between atoms: C_1  and  C_2
REMARK    2  A    between atoms: C_2  and  O_3
REMARK    3  A    between atoms: O_3  and  C_4
REMARK    4  A    between atoms: C_7  and  C_8
REMARK    5  A    between atoms: C_8  and  N_9
REMARK    6  A    between atoms: N_9  and  C_10
REMARK    7  A    between atoms: C_10  and  C_11
REMARK    8  A    between atoms: C_11  and  C_12
REMARK                            x       y       z     vdW  Elec       q    Type
REMARK                         _______ _______ _______ _____ _____    ______ ____
ROOT
ATOM      1  N   UNL     1       1.240   2.964  20.595  0.00  0.00    +0.000 NA
ATOM      2  H   UNL     1       1.982   2.949  21.296  0.00  0.00    +0.000 HD
ENDROOT
BRANCH   1   3
ATOM      3  C   UNL     1       1.667   2.152  19.461  0.00  0.00    +0.000 C 
BRANCH   3   7
ATOM      4  C   UNL     1       5.045   3.914  17.448  0.00  0.00    +0.000 A 
ATOM      5  C   UNL     1       3.831   3.721  16.785  0.00  0.00    +0.000 A 
ATOM      6  C   UNL     1       2.752   3.142  17.445  0.00  0.00    +0.000 A 
ATOM      7  C   UNL     1       2.863   2.753  18.782  0.00  0.00    +0.000 A 
ATOM      8  C   UNL     1       4.083   2.924  19.443  0.00  0.00    +0.000 A 
ATOM      9  C   UNL     1       5.170   3.501  18.778  0.00  0.00    +0.000 A 
BRANCH   4  10
ATOM     10  O   UNL     1       6.157   4.486  16.886  0.00  0.00    +0.000 OA
BRANCH  10  12
ATOM     11  C   UNL     1       6.821   6.718  17.484  0.00  0.00    +0.000 C 
ATOM     12  C   UNL     1       6.967   5.243  17.786  0.00  0.00    +0.000 C 
ENDBRANCH  10  12
ENDBRANCH   4  10
ENDBRANCH   3   7
ENDBRANCH   1   3
BRANCH   1  13
ATOM     13  C   UNL     1       0.992   4.355  20.193  0.00  0.00    +0.000 C 
BRANCH  13  14
ATOM     14  C   UNL     1       1.812   5.363  21.026  0.00  0.00    +0.000 C 
BRANCH  14  15
ATOM     15  C   UNL     1       2.100   6.562  20.172  0.00  0.00    +0.000 A 
ATOM     16  C   UNL     1       2.771   6.415  18.938  0.00  0.00    +0.000 A 
ATOM     17  C   UNL     1       2.793   7.463  18.018  0.00  0.00    +0.000 A 
ATOM     18  C   UNL     1       2.123   8.620  18.357  0.00  0.00    +0.000 A 
ATOM     19  C   UNL     1       1.541   8.790  19.592  0.00  0.00    +0.000 A 
ATOM     20  C   UNL     1       1.549   7.800  20.539  0.00  0.00    +0.000 A 
ATOM     21  O   UNL     1       0.863   9.968  19.687  0.00  0.00    +0.000 OA
ATOM     22  C   UNL     1       0.819  10.313  18.290  0.00  0.00    +0.000 C 
ATOM     23  O   UNL     1       1.865   9.671  17.530  0.00  0.00    +0.000 OA
ENDBRANCH  14  15
ENDBRANCH  13  14
ENDBRANCH   1  13
TORSDOF 7
ENDMDL
MODEL 2
REMARK VINA RESULT:      -6.4      4.004      6.086
REMARK  Name = 
REMARK  8 active torsions:
REMARK  status: ('A' for Active; 'I' for Inactive)
REMARK    1  A    between atoms: C_1  and  C_2
REMARK    2  A    between atoms: C_2  and  O_3
REMARK    3  A    between atoms: O_3  and  C_4
REMARK    4  A    between atoms: C_7  and  C_8
REMARK    5  A    between atoms: C_8  and  N_9
REMARK    6  A    between atoms: N_9  and  C_10
REMARK    7  A    between atoms: C_10  and  C_11
REMARK    8  A    between atoms: C_11  and  C_12
REMARK                            x       y       z     vdW  Elec       q    Type
REMARK                         _______ _______ _______ _____ _____    ______ ____
ROOT
ATOM      1  N   UNL     1       7.832   4.537  16.675  0.00  0.00    +0.000 NA
ATOM      2  H   UNL     1       8.800   4.749  16.915  0.00  0.00    +0.000 HD
ENDROOT
BRANCH   1   3
ATOM      3  C   UNL     1       7.385   5.508  15.682  0.00  0.00    +0.000 C 
BRANCH   3   7
ATOM      4  C   UNL     1       5.698   3.537  12.240  0.00  0.00    +0.000 A 
ATOM      5  C   UNL     1       7.004   4.031  12.221  0.00  0.00    +0.000 A 
ATOM      6  C   UNL     1       7.532   4.674  13.335  0.00  0.00    +0.000 A 
ATOM      7  C   UNL     1       6.768   4.827  14.495  0.00  0.00    +0.000 A 
ATOM      8  C   UNL     1       5.453   4.354  14.512  0.00  0.00    +0.000 A 
ATOM      9  C   UNL     1       4.920   3.712  13.389  0.00  0.00    +0.000 A 
BRANCH   4  10
ATOM     10  O   UNL     1       5.098   2.881  11.197  0.00  0.00    +0.000 OA
BRANCH  10  12
ATOM     11  C   UNL     1       3.284   3.858   9.958  0.00  0.00    +0.000 C 
ATOM     12  C   UNL     1       3.677   3.005  11.145  0.00  0.00    +0.000 C 
ENDBRANCH  10  12
ENDBRANCH   4  10
ENDBRANCH   3   7
ENDBRANCH   1   3
BRANCH   1  13
ATOM     13  C   UNL     1       7.012   4.602  17.893  0.00  0.00    +0.000 C 
BRANCH  13  14
ATOM     14  C   UNL     1       6.068   5.824  17.900  0.00  0.00    +0.000 C 
BRANCH  14  15
ATOM     15  C   UNL     1       4.738   5.394  18.446  0.00  0.00    +0.000 A 
ATOM     16  C   UNL     1       3.609   6.231  18.316  0.00  0.00    +0.000 A 
ATOM     17  C   UNL     1       2.329   5.732  18.561  0.00  0.00    +0.000 A 
ATOM     18  C   UNL     1       2.222   4.402  18.908  0.00  0.00    +0.000 A 
ATOM     19  C   UNL     1       3.328   3.610  19.113  0.00  0.00    +0.000 A 
ATOM     20  C   UNL     1       4.602   4.085  18.935  0.00  0.00    +0.000 A 
ATOM     21  O   UNL     1       2.998   2.313  19.366  0.00  0.00    +0.000 OA
ATOM     22  C   UNL     1       1.618   2.352  18.957  0.00  0.00    +0.000 C 
ATOM     23  O   UNL     1       1.067   3.685  18.998  0.00  0.00    +0.000 OA
ENDBRANCH  14  15
ENDBRANCH  13  14
ENDBRANCH   1  13
TORSDOF 7
ENDMDL
MODEL 3
REMARK VINA RESULT:      -6.4      1.447      5.969
REMARK  Name = 
REMARK  8 active torsions:
REMARK  status: ('A' for Active; 'I' for Inactive)
REMARK    1  A    between atoms: C_1  and  C_2
REMARK    2  A    between atoms: C_2  and  O_3
REMARK    3  A    between atoms: O_3  and  C_4
REMARK    4  A    between atoms: C_7  and  C_8
REMARK    5  A    between atoms: C_8  and  N_9
REMARK    6  A    between atoms: N_9  and  C_10
REMARK    7  A    between atoms: C_10  and  C_11
REMARK    8  A    between atoms: C_11  and  C_12
REMARK                            x       y       z     vdW  Elec       q    Type
REMARK                         _______ _______ _______ _____ _____    ______ ____
ROOT
ATOM      1  N   UNL     1       2.228   4.142  19.315  0.00  0.00    +0.000 NA
ATOM      2  H   UNL     1       1.763   4.567  18.512  0.00  0.00    +0.000 HD
ENDROOT
BRANCH   1   3
ATOM      3  C   UNL     1       2.756   5.212  20.154  0.00  0.00    +0.000 C 
BRANCH   3   7
ATOM      4  C   UNL     1       1.478   9.108  18.827  0.00  0.00    +0.000 A 
ATOM      5  C   UNL     1       1.273   8.692  20.144  0.00  0.00    +0.000 A 
ATOM      6  C   UNL     1       1.682   7.428  20.556  0.00  0.00    +0.000 A 
ATOM      7  C   UNL     1       2.312   6.559  19.661  0.00  0.00    +0.000 A 
ATOM      8  C   UNL     1       2.500   6.963  18.337  0.00  0.00    +0.000 A 
ATOM      9  C   UNL     1       2.084   8.232  17.921  0.00  0.00    +0.000 A 
BRANCH   4  10
ATOM     10  O   UNL     1       1.122  10.337  18.334  0.00  0.00    +0.000 OA
BRANCH  10  12
ATOM     11  C   UNL     1      -1.008  11.450  18.302  0.00  0.00    +0.000 C 
ATOM     12  C   UNL     1       0.192  11.062  19.138  0.00  0.00    +0.000 C 
ENDBRANCH  10  12
ENDBRANCH   4  10
ENDBRANCH   3   7
ENDBRANCH   1   3
BRANCH   1  13
ATOM     13  C   UNL     1       3.301   3.261  18.835  0.00  0.00    +0.000 C 
BRANCH  13  14
ATOM     14  C   UNL     1       3.467   3.320  17.301  0.00  0.00    +0.000 C 
BRANCH  14  15
ATOM     15  C   UNL     1       4.756   4.020  16.989  0.00  0.00    +0.000 A 
ATOM     16  C   UNL     1       5.084   4.351  15.655  0.00  0.00    +0.000 A 
ATOM     17  C   UNL     1       6.126   5.239  15.385  0.00  0.00    +0.000 A 
ATOM     18  C   UNL     1       6.793   5.783  16.462  0.00  0.00    +0.000 A 
ATOM     19  C   UNL     1       6.526   5.397  17.756  0.00  0.00    +0.000 A 
ATOM     20  C   UNL     1       5.546   4.486  18.052  0.00  0.00    +0.000 A 
ATOM     21  O   UNL     1       7.237   6.116  18.668  0.00  0.00    +0.000 OA
ATOM     22  C   UNL     1       7.687   7.181  17.810  0.00  0.00    +0.000 C 
ATOM     23  O   UNL     1       7.696   6.800  16.418  0.00  0.00    +0.000 OA
ENDBRANCH  14  15
ENDBRANCH  13  14
ENDBRANCH   1  13
TORSDOF 7
ENDMDL
MODEL 4
REMARK VINA RESULT:      -6.4      1.618      5.179
REMARK  Name = 
REMARK  8 active torsions:
REMARK  status: ('A' for Active; 'I' for Inactive)
REMARK    1  A    between atoms: C_1  and  C_2
REMARK    2  A    between atoms: C_2  and  O_3
REMARK    3  A    between atoms: O_3  and  C_4
REMARK    4  A    between atoms: C_7  and  C_8
REMARK    5  A    between atoms: C_8  and  N_9
REMARK    6  A    between atoms: N_9  and  C_10
REMARK    7  A    between atoms: C_10  and  C_11
REMARK    8  A    between atoms: C_11  and  C_12
REMARK                            x       y       z     vdW  Elec       q    Type
REMARK                         _______ _______ _______ _____ _____    ______ ____
ROOT
ATOM      1  N   UNL     1       2.378   2.019  19.100  0.00  0.00    +0.000 NA
ATOM      2  H   UNL     1       2.047   1.070  18.921  0.00  0.00    +0.000 HD
ENDROOT
BRANCH   1   3
ATOM      3  C   UNL     1       1.493   2.949  18.407  0.00  0.00    +0.000 C 
BRANCH   3   7
ATOM      4  C   UNL     1       1.965   6.997  19.808  0.00  0.00    +0.000 A 
ATOM      5  C   UNL     1       2.161   6.671  18.465  0.00  0.00    +0.000 A 
ATOM      6  C   UNL     1       2.015   5.359  18.028  0.00  0.00    +0.000 A 
ATOM      7  C   UNL     1       1.661   4.348  18.926  0.00  0.00    +0.000 A 
ATOM      8  C   UNL     1       1.486   4.665  20.275  0.00  0.00    +0.000 A 
ATOM      9  C   UNL     1       1.638   5.983  20.715  0.00  0.00    +0.000 A 
BRANCH   4  10
ATOM     10  O   UNL     1       2.074   8.261  20.328  0.00  0.00    +0.000 OA
BRANCH  10  12
ATOM     11  C   UNL     1       0.166   9.435  21.198  0.00  0.00    +0.000 C 
ATOM     12  C   UNL     1       1.310   8.495  21.510  0.00  0.00    +0.000 C 
ENDBRANCH  10  12
ENDBRANCH   4  10
ENDBRANCH   3   7
ENDBRANCH   1   3
BRANCH   1  13
ATOM     13  C   UNL     1       3.761   2.140  18.620  0.00  0.00    +0.000 C 
BRANCH  13  14
ATOM     14  C   UNL     1       4.593   3.127  19.468  0.00  0.00    +0.000 C 
BRANCH  14  15
ATOM     15  C   UNL     1       5.430   3.960  18.544  0.00  0.00    +0.000 A 
ATOM     16  C   UNL     1       5.069   4.101  17.186  0.00  0.00    +0.000 A 
ATOM     17  C   UNL     1       5.666   5.083  16.395  0.00  0.00    +0.000 A 
ATOM     18  C   UNL     1       6.593   5.907  16.998  0.00  0.00    +0.000 A 
ATOM     19  C   UNL     1       7.003   5.715  18.298  0.00  0.00    +0.000 A 
ATOM     20  C   UNL     1       6.476   4.724  19.085  0.00  0.00    +0.000 A 
ATOM     21  O   UNL     1       7.859   6.687  18.720  0.00  0.00    +0.000 OA
ATOM     22  C   UNL     1       7.646   7.644  17.666  0.00  0.00    +0.000 C 
ATOM     23  O   UNL     1       7.139   7.033  16.461  0.00  0.00    +0.000 OA
ENDBRANCH  14  15
ENDBRANCH  13  14
ENDBRANCH   1  13
TORSDOF 7
ENDMDL
MODEL 5
REMARK VINA RESULT:      -6.4      5.419      7.782
REMARK  Name = 
REMARK  8 active torsions:
REMARK  status: ('A' for Active; 'I' for Inactive)
REMARK    1  A    between atoms: C_1  and  C_2
REMARK    2  A    between atoms: C_2  and  O_3
REMARK    3  A    between atoms: O_3  and  C_4
REMARK    4  A    between atoms: C_7  and  C_8
REMARK    5  A    between atoms: C_8  and  N_9
REMARK    6  A    between atoms: N_9  and  C_10
REMARK    7  A    between atoms: C_10  and  C_11
REMARK    8  A    between atoms: C_11  and  C_12
REMARK                            x       y       z     vdW  Elec       q    Type
REMARK                         _______ _______ _______ _____ _____    ______ ____
ROOT
ATOM      1  N   UNL     1       7.660   7.764  16.983  0.00  0.00    +0.000 NA
ATOM      2  H   UNL     1       6.783   7.749  16.460  0.00  0.00    +0.000 HD
ENDROOT
BRANCH   1   3
ATOM      3  C   UNL     1       7.695   6.591  17.849  0.00  0.00    +0.000 C 
BRANCH   3   7
ATOM      4  C   UNL     1       3.786   4.854  18.372  0.00  0.00    +0.000 A 
ATOM      5  C   UNL     1       4.737   4.811  19.394  0.00  0.00    +0.000 A 
ATOM      6  C   UNL     1       5.998   5.367  19.208  0.00  0.00    +0.000 A 
ATOM      7  C   UNL     1       6.330   5.985  17.999  0.00  0.00    +0.000 A 
ATOM      8  C   UNL     1       5.389   6.011  16.966  0.00  0.00    +0.000 A 
ATOM      9  C   UNL     1       4.123   5.447  17.152  0.00  0.00    +0.000 A 
BRANCH   4  10
ATOM     10  O   UNL     1       2.516   4.346  18.468  0.00  0.00    +0.000 OA
BRANCH  10  12
ATOM     11  C   UNL     1       1.024   2.479  18.725  0.00  0.00    +0.000 C 
ATOM     12  C   UNL     1       2.428   2.923  18.379  0.00  0.00    +0.000 C 
ENDBRANCH  10  12
ENDBRANCH   4  10
ENDBRANCH   3   7
ENDBRANCH   1   3
BRANCH   1  13
ATOM     13  C   UNL     1       7.727   9.007  17.764  0.00  0.00    +0.000 C 
BRANCH  13  14
ATOM     14  C   UNL     1       8.784   8.938  18.887  0.00  0.00    +0.000 C 
BRANCH  14  15
ATOM     15  C   UNL     1       9.392  10.300  19.052  0.00  0.00    +0.000 A 
ATOM     16  C   UNL     1       9.703  10.791  20.338  0.00  0.00    +0.000 A 
ATOM     17  C   UNL     1      10.516  11.916  20.486  0.00  0.00    +0.000 A 
ATOM     18  C   UNL     1      11.007  12.500  19.338  0.00  0.00    +0.000 A 
ATOM     19  C   UNL     1      10.636  12.069  18.085  0.00  0.00    +0.000 A 
ATOM     20  C   UNL     1       9.797  11.001  17.905  0.00  0.00    +0.000 A 
ATOM     21  O   UNL     1      11.300  12.727  17.093  0.00  0.00    +0.000 OA
ATOM     22  C   UNL     1      12.333  13.341  17.887  0.00  0.00    +0.000 C 
ATOM     23  O   UNL     1      11.958  13.473  19.274  0.00  0.00    +0.000 OA
ENDBRANCH  14  15
ENDBRANCH  13  14
ENDBRANCH   1  13
TORSDOF 7
ENDMDL
MODEL 6
REMARK VINA RESULT:      -6.3      3.320      5.017
REMARK  Name = 
REMARK  8 active torsions:
REMARK  status: ('A' for Active; 'I' for Inactive)
REMARK    1  A    between atoms: C_1  and  C_2
REMARK    2  A    between atoms: C_2  and  O_3
REMARK    3  A    between atoms: O_3  and  C_4
REMARK    4  A    between atoms: C_7  and  C_8
REMARK    5  A    between atoms: C_8  and  N_9
REMARK    6  A    between atoms: N_9  and  C_10
REMARK    7  A    between atoms: C_10  and  C_11
REMARK    8  A    between atoms: C_11  and  C_12
REMARK                            x       y       z     vdW  Elec       q    Type
REMARK                         _______ _______ _______ _____ _____    ______ ____
ROOT
ATOM      1  N   UNL     1       5.177   5.870  18.788  0.00  0.00    +0.000 NA
ATOM      2  H   UNL     1       6.019   6.396  19.026  0.00  0.00    +0.000 HD
ENDROOT
BRANCH   1   3
ATOM      3  C   UNL     1       5.576   4.523  18.396  0.00  0.00    +0.000 C 
BRANCH   3   7
ATOM      4  C   UNL     1       6.499   4.324  14.191  0.00  0.00    +0.000 A 
ATOM      5  C   UNL     1       7.390   4.901  15.098  0.00  0.00    +0.000 A 
ATOM      6  C   UNL     1       7.074   4.968  16.451  0.00  0.00    +0.000 A 
ATOM      7  C   UNL     1       5.866   4.449  16.925  0.00  0.00    +0.000 A 
ATOM      8  C   UNL     1       4.962   3.890  16.017  0.00  0.00    +0.000 A 
ATOM      9  C   UNL     1       5.277   3.829  14.656  0.00  0.00    +0.000 A 
BRANCH   4  10
ATOM     10  O   UNL     1       6.728   4.202  12.845  0.00  0.00    +0.000 OA
BRANCH  10  12
ATOM     11  C   UNL     1       6.811   2.239  11.460  0.00  0.00    +0.000 C 
ATOM     12  C   UNL     1       5.922   3.228  12.182  0.00  0.00    +0.000 C 
ENDBRANCH  10  12
ENDBRANCH   4  10
ENDBRANCH   3   7
ENDBRANCH   1   3
BRANCH   1  13
ATOM     13  C   UNL     1       4.477   6.560  17.696  0.00  0.00    +0.000 C 
BRANCH  13  14
ATOM     14  C   UNL     1       3.044   6.981  18.090  0.00  0.00    +0.000 C 
BRANCH  14  15
ATOM     15  C   UNL     1       2.329   5.780  18.636  0.00  0.00    +0.000 A 
ATOM     16  C   UNL     1       1.868   4.768  17.765  0.00  0.00    +0.000 A 
ATOM     17  C   UNL     1       1.462   3.533  18.272  0.00  0.00    +0.000 A 
ATOM     18  C   UNL     1       1.550   3.346  19.635  0.00  0.00    +0.000 A 
ATOM     19  C   UNL     1       1.922   4.360  20.488  0.00  0.00    +0.000 A 
ATOM     20  C   UNL     1       2.275   5.602  20.027  0.00  0.00    +0.000 A 
ATOM     21  O   UNL     1       2.025   3.940  21.780  0.00  0.00    +0.000 OA
ATOM     22  C   UNL     1       2.009   2.518  21.553  0.00  0.00    +0.000 C 
ATOM     23  O   UNL     1       1.389   2.167  20.297  0.00  0.00    +0.000 OA
ENDBRANCH  14  15
ENDBRANCH  13  14
ENDBRANCH   1  13
TORSDOF 7
ENDMDL
MODEL 7
REMARK VINA RESULT:      -6.3      3.504      5.470
REMARK  Name = 
REMARK  8 active torsions:
REMARK  status: ('A' for Active; 'I' for Inactive)
REMARK    1  A    between atoms: C_1  and  C_2
REMARK    2  A    between atoms: C_2  and  O_3
REMARK    3  A    between atoms: O_3  and  C_4
REMARK    4  A    between atoms: C_7  and  C_8
REMARK    5  A    between atoms: C_8  and  N_9
REMARK    6  A    between atoms: N_9  and  C_10
REMARK    7  A    between atoms: C_10  and  C_11
REMARK    8  A    between atoms: C_11  and  C_12
REMARK                            x       y       z     vdW  Elec       q    Type
REMARK                         _______ _______ _______ _____ _____    ______ ____
ROOT
ATOM      1  N   UNL     1       5.970   6.687  17.523  0.00  0.00    +0.000 NA
ATOM      2  H   UNL     1       6.623   7.359  17.119  0.00  0.00    +0.000 HD
ENDROOT
BRANCH   1   3
ATOM      3  C   UNL     1       6.556   5.356  17.405  0.00  0.00    +0.000 C 
BRANCH   3   7
ATOM      4  C   UNL     1       6.481   3.971  13.325  0.00  0.00    +0.000 A 
ATOM      5  C   UNL     1       7.347   4.991  13.725  0.00  0.00    +0.000 A 
ATOM      6  C   UNL     1       7.353   5.435  15.043  0.00  0.00    +0.000 A 
ATOM      7  C   UNL     1       6.500   4.861  15.989  0.00  0.00    +0.000 A 
ATOM      8  C   UNL     1       5.617   3.855  15.589  0.00  0.00    +0.000 A 
ATOM      9  C   UNL     1       5.606   3.412  14.263  0.00  0.00    +0.000 A 
BRANCH   4  10
ATOM     10  O   UNL     1       6.413   3.460  12.055  0.00  0.00    +0.000 OA
BRANCH  10  12
ATOM     11  C   UNL     1       4.188   3.267  11.164  0.00  0.00    +0.000 C 
ATOM     12  C   UNL     1       5.340   2.545  11.830  0.00  0.00    +0.000 C 
ENDBRANCH  10  12
ENDBRANCH   4  10
ENDBRANCH   3   7
ENDBRANCH   1   3
BRANCH   1  13
ATOM     13  C   UNL     1       4.691   6.772  16.804  0.00  0.00    +0.000 C 
BRANCH  13  14
ATOM     14  C   UNL     1       3.529   7.209  17.723  0.00  0.00    +0.000 C 
BRANCH  14  15
ATOM     15  C   UNL     1       3.055   6.011  18.491  0.00  0.00    +0.000 A 
ATOM     16  C   UNL     1       2.634   6.145  19.833  0.00  0.00    +0.000 A 
ATOM     17  C   UNL     1       1.934   5.112  20.458  0.00  0.00    +0.000 A 
ATOM     18  C   UNL     1       1.663   3.985  19.711  0.00  0.00    +0.000 A 
ATOM     19  C   UNL     1       2.145   3.824  18.432  0.00  0.00    +0.000 A 
ATOM     20  C   UNL     1       2.881   4.797  17.808  0.00  0.00    +0.000 A 
ATOM     21  O   UNL     1       1.691   2.681  17.847  0.00  0.00    +0.000 OA
ATOM     22  C   UNL     1       0.635   2.362  18.773  0.00  0.00    +0.000 C 
ATOM     23  O   UNL     1       0.838   2.962  20.069  0.00  0.00    +0.000 OA
ENDBRANCH  14  15
ENDBRANCH  13  14
ENDBRANCH   1  13
TORSDOF 7
ENDMDL
MODEL 8
REMARK VINA RESULT:      -6.3      1.555      5.642
REMARK  Name = 
REMARK  8 active torsions:
REMARK  status: ('A' for Active; 'I' for Inactive)
REMARK    1  A    between atoms: C_1  and  C_2
REMARK    2  A    between atoms: C_2  and  O_3
REMARK    3  A    between atoms: O_3  and  C_4
REMARK    4  A    between atoms: C_7  and  C_8
REMARK    5  A    between atoms: C_8  and  N_9
REMARK    6  A    between atoms: N_9  and  C_10
REMARK    7  A    between atoms: C_10  and  C_11
REMARK    8  A    between atoms: C_11  and  C_12
REMARK                            x       y       z     vdW  Elec       q    Type
REMARK                         _______ _______ _______ _____ _____    ______ ____
ROOT
ATOM      1  N   UNL     1       2.883   2.586  19.784  0.00  0.00    +0.000 NA
ATOM      2  H   UNL     1       2.585   1.626  19.959  0.00  0.00    +0.000 HD
ENDROOT
BRANCH   1   3
ATOM      3  C   UNL     1       1.842   3.255  19.012  0.00  0.00    +0.000 C 
BRANCH   3   7
ATOM      4  C   UNL     1       1.968   7.537  19.484  0.00  0.00    +0.000 A 
ATOM      5  C   UNL     1       2.177   6.942  18.238  0.00  0.00    +0.000 A 
ATOM      6  C   UNL     1       2.144   5.558  18.102  0.00  0.00    +0.000 A 
ATOM      7  C   UNL     1       1.890   4.742  19.209  0.00  0.00    +0.000 A 
ATOM      8  C   UNL     1       1.702   5.332  20.461  0.00  0.00    +0.000 A 
ATOM      9  C   UNL     1       1.741   6.723  20.599  0.00  0.00    +0.000 A 
BRANCH   4  10
ATOM     10  O   UNL     1       1.970   8.888  19.712  0.00  0.00    +0.000 OA
BRANCH  10  12
ATOM     11  C   UNL     1      -0.077  10.111  19.405  0.00  0.00    +0.000 C 
ATOM     12  C   UNL     1       1.221   9.660  18.773  0.00  0.00    +0.000 C 
ENDBRANCH  10  12
ENDBRANCH   4  10
ENDBRANCH   3   7
ENDBRANCH   1   3
BRANCH   1  13
ATOM     13  C   UNL     1       4.159   2.564  19.054  0.00  0.00    +0.000 C 
BRANCH  13  14
ATOM     14  C   UNL     1       5.114   3.690  19.506  0.00  0.00    +0.000 C 
BRANCH  14  15
ATOM     15  C   UNL     1       5.574   4.439  18.291  0.00  0.00    +0.000 A 
ATOM     16  C   UNL     1       6.568   5.436  18.401  0.00  0.00    +0.000 A 
ATOM     17  C   UNL     1       7.198   5.933  17.260  0.00  0.00    +0.000 A 
ATOM     18  C   UNL     1       6.825   5.399  16.045  0.00  0.00    +0.000 A 
ATOM     19  C   UNL     1       5.800   4.487  15.933  0.00  0.00    +0.000 A 
ATOM     20  C   UNL     1       5.124   4.019  17.029  0.00  0.00    +0.000 A 
ATOM     21  O   UNL     1       5.653   4.028  14.659  0.00  0.00    +0.000 OA
ATOM     22  C   UNL     1       6.898   4.496  14.108  0.00  0.00    +0.000 C 
ATOM     23  O   UNL     1       7.447   5.605  14.851  0.00  0.00    +0.000 OA
ENDBRANCH  14  15
ENDBRANCH  13  14
ENDBRANCH   1  13
TORSDOF 7
ENDMDL
MODEL 9
REMARK VINA RESULT:      -6.3      2.532      6.358
REMARK  Name = 
REMARK  8 active torsions:
REMARK  status: ('A' for Active; 'I' for Inactive)
REMARK    1  A    between atoms: C_1  and  C_2
REMARK    2  A    between atoms: C_2  and  O_3
REMARK    3  A    between atoms: O_3  and  C_4
REMARK    4  A    between atoms: C_7  and  C_8
REMARK    5  A    between atoms: C_8  and  N_9
REMARK    6  A    between atoms: N_9  and  C_10
REMARK    7  A    between atoms: C_10  and  C_11
REMARK    8  A    between atoms: C_11  and  C_12
REMARK                            x       y       z     vdW  Elec       q    Type
REMARK                         _______ _______ _______ _____ _____    ______ ____
ROOT
ATOM      1  N   UNL     1       5.509   6.900  17.351  0.00  0.00    +0.000 NA
ATOM      2  H   UNL     1       5.500   7.097  18.353  0.00  0.00    +0.000 HD
ENDROOT
BRANCH   1   3
ATOM      3  C   UNL     1       4.139   6.983  16.858  0.00  0.00    +0.000 C 
BRANCH   3   7
ATOM      4  C   UNL     1       1.450   8.006  20.066  0.00  0.00    +0.000 A 
ATOM      5  C   UNL     1       2.162   6.805  20.077  0.00  0.00    +0.000 A 
ATOM      6  C   UNL     1       3.019   6.483  19.030  0.00  0.00    +0.000 A 
ATOM      7  C   UNL     1       3.188   7.361  17.955  0.00  0.00    +0.000 A 
ATOM      8  C   UNL     1       2.460   8.553  17.929  0.00  0.00    +0.000 A 
ATOM      9  C   UNL     1       1.594   8.875  18.979  0.00  0.00    +0.000 A 
BRANCH   4  10
ATOM     10  O   UNL     1       0.594   8.414  21.056  0.00  0.00    +0.000 OA
BRANCH  10  12
ATOM     11  C   UNL     1       0.186   9.526  23.148  0.00  0.00    +0.000 C 
ATOM     12  C   UNL     1       1.160   9.313  22.010  0.00  0.00    +0.000 C 
ENDBRANCH  10  12
ENDBRANCH   4  10
ENDBRANCH   3   7
ENDBRANCH   1   3
BRANCH   1  13
ATOM     13  C   UNL     1       6.076   5.562  17.133  0.00  0.00    +0.000 C 
BRANCH  13  14
ATOM     14  C   UNL     1       5.110   4.633  16.366  0.00  0.00    +0.000 C 
BRANCH  14  15
ATOM     15  C   UNL     1       4.401   3.761  17.359  0.00  0.00    +0.000 A 
ATOM     16  C   UNL     1       4.973   3.510  18.626  0.00  0.00    +0.000 A 
ATOM     17  C   UNL     1       4.208   2.945  19.646  0.00  0.00    +0.000 A 
ATOM     18  C   UNL     1       2.886   2.667  19.369  0.00  0.00    +0.000 A 
ATOM     19  C   UNL     1       2.353   2.835  18.111  0.00  0.00    +0.000 A 
ATOM     20  C   UNL     1       3.093   3.338  17.073  0.00  0.00    +0.000 A 
ATOM     21  O   UNL     1       1.015   2.582  18.077  0.00  0.00    +0.000 OA
ATOM     22  C   UNL     1       0.753   2.580  19.493  0.00  0.00    +0.000 C 
ATOM     23  O   UNL     1       1.935   2.299  20.272  0.00  0.00    +0.000 OA
ENDBRANCH  14  15
ENDBRANCH  13  14
ENDBRANCH   1  13
TORSDOF 7
ENDMDL
