MODEL 1
REMARK VINA RESULT:      -7.0      0.000      0.000
REMARK  Name = 
REMARK  8 active torsions:
REMARK  status: ('A' for Active; 'I' for Inactive)
REMARK    1  A    between atoms: C_1  and  C_2
REMARK    2  A    between atoms: C_2  and  O_3
REMARK    3  A    between atoms: O_3  and  C_4
REMARK    4  A    between atoms: C_4  and  C_6
REMARK    5  A    between atoms: C_6  and  C_7
REMARK    6  A    between atoms: C_7  and  S_8
REMARK    7  A    between atoms: S_8  and  C_9
REMARK    8  A    between atoms: C_13  and  N_14
REMARK                            x       y       z     vdW  Elec       q    Type
REMARK                         _______ _______ _______ _____ _____    ______ ____
ROOT
ATOM      1  C   UNL     1      -0.149  10.921  19.379  0.00  0.00    +0.000 A 
ATOM      2  N   UNL     1       0.628  10.473  18.420  0.00  0.00    +0.000 NA
ATOM      3  C   UNL     1       1.278   9.320  18.840  0.00  0.00    +0.000 A 
ATOM      4  C   UNL     1       2.210   8.567  18.088  0.00  0.00    +0.000 A 
ATOM      5  C   UNL     1       2.730   7.372  18.613  0.00  0.00    +0.000 A 
ATOM      6  C   UNL     1       2.368   6.971  19.898  0.00  0.00    +0.000 A 
ATOM      7  F   UNL     1       2.926   5.878  20.443  0.00  0.00    +0.000 F 
ATOM      8  C   UNL     1       1.501   7.726  20.689  0.00  0.00    +0.000 A 
ATOM      9  C   UNL     1       0.951   8.889  20.130  0.00  0.00    +0.000 A 
ATOM     10  S   UNL     1      -0.161  10.003  20.826  0.00  0.00    +0.000 S 
ENDROOT
BRANCH   5  11
ATOM     11  N   UNL     1       3.611   6.584  17.850  0.00  0.00    +0.000 N 
ATOM     12  C   UNL     1       4.858   6.985  17.444  0.00  0.00    +0.000 C 
ATOM     13  O   UNL     1       5.444   8.037  17.627  0.00  0.00    +0.000 OA
ATOM     14  C   UNL     1       5.450   5.846  16.742  0.00  0.00    +0.000 A 
ATOM     15  C   UNL     1       6.704   5.691  16.180  0.00  0.00    +0.000 A 
ATOM     16  C   UNL     1       6.976   4.475  15.546  0.00  0.00    +0.000 A 
ATOM     17  C   UNL     1       6.000   3.461  15.476  0.00  0.00    +0.000 A 
ATOM     18  C   UNL     1       4.745   3.633  16.067  0.00  0.00    +0.000 A 
ATOM     19  C   UNL     1       4.510   4.833  16.715  0.00  0.00    +0.000 A 
ATOM     20  C   UNL     1       3.338   5.291  17.456  0.00  0.00    +0.000 C 
ATOM     21  O   UNL     1       2.329   4.623  17.593  0.00  0.00    +0.000 OA
ENDBRANCH   5  11
BRANCH   1  22
ATOM     22  S   UNL     1      -1.087  12.394  19.228  0.00  0.00    +0.000 S 
BRANCH  22  23
ATOM     23  C   UNL     1      -2.708  11.746  18.719  0.00  0.00    +0.000 C 
BRANCH  23  24
ATOM     24  C   UNL     1      -2.660  11.343  17.249  0.00  0.00    +0.000 C 
BRANCH  24  25
ATOM     25  C   UNL     1      -3.084   9.906  17.084  0.00  0.00    +0.000 C 
ATOM     26  O   UNL     1      -3.518   9.190  17.974  0.00  0.00    +0.000 OA
BRANCH  25  27
ATOM     27  O   UNL     1      -2.822   9.505  15.807  0.00  0.00    +0.000 OA
BRANCH  27  29
ATOM     28  C   UNL     1      -3.901   9.927  13.724  0.00  0.00    +0.000 C 
ATOM     29  C   UNL     1      -3.005  10.513  14.802  0.00  0.00    +0.000 C 
ENDBRANCH  27  29
ENDBRANCH  25  27
ENDBRANCH  24  25
ENDBRANCH  23  24
ENDBRANCH  22  23
ENDBRANCH   1  22
TORSDOF 7
ENDMDL
MODEL 2
REMARK VINA RESULT:      -7.0      3.661      8.635
REMARK  Name = 
REMARK  8 active torsions:
REMARK  status: ('A' for Active; 'I' for Inactive)
REMARK    1  A    between atoms: C_1  and  C_2
REMARK    2  A    between atoms: C_2  and  O_3
REMARK    3  A    between atoms: O_3  and  C_4
REMARK    4  A    between atoms: C_4  and  C_6
REMARK    5  A    between atoms: C_6  and  C_7
REMARK    6  A    between atoms: C_7  and  S_8
REMARK    7  A    between atoms: S_8  and  C_9
REMARK    8  A    between atoms: C_13  and  N_14
REMARK                            x       y       z     vdW  Elec       q    Type
REMARK                         _______ _______ _______ _____ _____    ______ ____
ROOT
ATOM      1  C   UNL     1       5.589   5.040  17.791  0.00  0.00    +0.000 A 
ATOM      2  N   UNL     1       5.116   6.265  17.748  0.00  0.00    +0.000 NA
ATOM      3  C   UNL     1       3.978   6.359  18.539  0.00  0.00    +0.000 A 
ATOM      4  C   UNL     1       3.183   7.514  18.722  0.00  0.00    +0.000 A 
ATOM      5  C   UNL     1       2.102   7.483  19.618  0.00  0.00    +0.000 A 
ATOM      6  C   UNL     1       1.786   6.296  20.274  0.00  0.00    +0.000 A 
ATOM      7  F   UNL     1       0.702   6.232  21.064  0.00  0.00    +0.000 F 
ATOM      8  C   UNL     1       2.511   5.122  20.065  0.00  0.00    +0.000 A 
ATOM      9  C   UNL     1       3.619   5.183  19.206  0.00  0.00    +0.000 A 
ATOM     10  S   UNL     1       4.722   3.935  18.772  0.00  0.00    +0.000 S 
ENDROOT
BRANCH   5  11
ATOM     11  N   UNL     1       1.341   8.644  19.854  0.00  0.00    +0.000 N 
ATOM     12  C   UNL     1       0.689   9.356  18.880  0.00  0.00    +0.000 C 
ATOM     13  O   UNL     1       0.629   9.171  17.677  0.00  0.00    +0.000 OA
ATOM     14  C   UNL     1      -0.025  10.435  19.564  0.00  0.00    +0.000 A 
ATOM     15  C   UNL     1      -0.874  11.405  19.067  0.00  0.00    +0.000 A 
ATOM     16  C   UNL     1      -1.395  12.329  19.978  0.00  0.00    +0.000 A 
ATOM     17  C   UNL     1      -1.051  12.271  21.344  0.00  0.00    +0.000 A 
ATOM     18  C   UNL     1      -0.205  11.268  21.827  0.00  0.00    +0.000 A 
ATOM     19  C   UNL     1       0.274  10.348  20.911  0.00  0.00    +0.000 A 
ATOM     20  C   UNL     1       1.125   9.178  21.107  0.00  0.00    +0.000 C 
ATOM     21  O   UNL     1       1.571   8.847  22.190  0.00  0.00    +0.000 OA
ENDBRANCH   5  11
BRANCH   1  22
ATOM     22  S   UNL     1       6.991   4.534  16.869  0.00  0.00    +0.000 S 
BRANCH  22  23
ATOM     23  C   UNL     1       6.651   5.278  15.245  0.00  0.00    +0.000 C 
BRANCH  23  24
ATOM     24  C   UNL     1       6.613   4.187  14.180  0.00  0.00    +0.000 C 
BRANCH  24  25
ATOM     25  C   UNL     1       7.255   4.673  12.906  0.00  0.00    +0.000 C 
ATOM     26  O   UNL     1       8.096   5.558  12.831  0.00  0.00    +0.000 OA
BRANCH  25  27
ATOM     27  O   UNL     1       6.687   4.033  11.844  0.00  0.00    +0.000 OA
BRANCH  27  29
ATOM     28  C   UNL     1       4.491   3.224  11.399  0.00  0.00    +0.000 C 
ATOM     29  C   UNL     1       5.769   2.985  12.184  0.00  0.00    +0.000 C 
ENDBRANCH  27  29
ENDBRANCH  25  27
ENDBRANCH  24  25
ENDBRANCH  23  24
ENDBRANCH  22  23
ENDBRANCH   1  22
TORSDOF 7
ENDMDL
MODEL 3
REMARK VINA RESULT:      -7.0      0.577      1.748
REMARK  Name = 
REMARK  8 active torsions:
REMARK  status: ('A' for Active; 'I' for Inactive)
REMARK    1  A    between atoms: C_1  and  C_2
REMARK    2  A    between atoms: C_2  and  O_3
REMARK    3  A    between atoms: O_3  and  C_4
REMARK    4  A    between atoms: C_4  and  C_6
REMARK    5  A    between atoms: C_6  and  C_7
REMARK    6  A    between atoms: C_7  and  S_8
REMARK    7  A    between atoms: S_8  and  C_9
REMARK    8  A    between atoms: C_13  and  N_14
REMARK                            x       y       z     vdW  Elec       q    Type
REMARK                         _______ _______ _______ _____ _____    ______ ____
ROOT
ATOM      1  C   UNL     1      -0.181  10.926  19.016  0.00  0.00    +0.000 A 
ATOM      2  N   UNL     1       0.607  10.422  18.095  0.00  0.00    +0.000 NA
ATOM      3  C   UNL     1       1.277   9.315  18.602  0.00  0.00    +0.000 A 
ATOM      4  C   UNL     1       2.227   8.526  17.911  0.00  0.00    +0.000 A 
ATOM      5  C   UNL     1       2.766   7.384  18.526  0.00  0.00    +0.000 A 
ATOM      6  C   UNL     1       2.405   7.073  19.835  0.00  0.00    +0.000 A 
ATOM      7  F   UNL     1       2.982   6.035  20.462  0.00  0.00    +0.000 F 
ATOM      8  C   UNL     1       1.521   7.868  20.565  0.00  0.00    +0.000 A 
ATOM      9  C   UNL     1       0.953   8.976  19.919  0.00  0.00    +0.000 A 
ATOM     10  S   UNL     1      -0.183  10.118  20.527  0.00  0.00    +0.000 S 
ENDROOT
BRANCH   5  11
ATOM     11  N   UNL     1       3.665   6.558  17.825  0.00  0.00    +0.000 N 
ATOM     12  C   UNL     1       3.392   5.274  17.430  0.00  0.00    +0.000 C 
ATOM     13  O   UNL     1       2.391   4.598  17.588  0.00  0.00    +0.000 OA
ATOM     14  C   UNL     1       4.563   4.813  16.683  0.00  0.00    +0.000 A 
ATOM     15  C   UNL     1       4.795   3.621  16.023  0.00  0.00    +0.000 A 
ATOM     16  C   UNL     1       6.041   3.460  15.410  0.00  0.00    +0.000 A 
ATOM     17  C   UNL     1       7.019   4.474  15.479  0.00  0.00    +0.000 A 
ATOM     18  C   UNL     1       6.754   5.679  16.137  0.00  0.00    +0.000 A 
ATOM     19  C   UNL     1       5.504   5.826  16.710  0.00  0.00    +0.000 A 
ATOM     20  C   UNL     1       4.918   6.963  17.414  0.00  0.00    +0.000 C 
ATOM     21  O   UNL     1       5.513   8.005  17.617  0.00  0.00    +0.000 OA
ENDBRANCH   5  11
BRANCH   1  22
ATOM     22  S   UNL     1      -1.146  12.365  18.752  0.00  0.00    +0.000 S 
BRANCH  22  23
ATOM     23  C   UNL     1      -2.697  11.927  19.595  0.00  0.00    +0.000 C 
BRANCH  23  24
ATOM     24  C   UNL     1      -3.834  11.872  18.580  0.00  0.00    +0.000 C 
BRANCH  24  25
ATOM     25  C   UNL     1      -3.633  10.722  17.627  0.00  0.00    +0.000 C 
ATOM     26  O   UNL     1      -3.275   9.596  17.943  0.00  0.00    +0.000 OA
BRANCH  25  27
ATOM     27  O   UNL     1      -3.826  11.158  16.350  0.00  0.00    +0.000 OA
BRANCH  27  29
ATOM     28  C   UNL     1      -3.472  10.068  14.260  0.00  0.00    +0.000 C 
ATOM     29  C   UNL     1      -2.800  10.787  15.417  0.00  0.00    +0.000 C 
ENDBRANCH  27  29
ENDBRANCH  25  27
ENDBRANCH  24  25
ENDBRANCH  23  24
ENDBRANCH  22  23
ENDBRANCH   1  22
TORSDOF 7
ENDMDL
MODEL 4
REMARK VINA RESULT:      -7.0      3.210      8.951
REMARK  Name = 
REMARK  8 active torsions:
REMARK  status: ('A' for Active; 'I' for Inactive)
REMARK    1  A    between atoms: C_1  and  C_2
REMARK    2  A    between atoms: C_2  and  O_3
REMARK    3  A    between atoms: O_3  and  C_4
REMARK    4  A    between atoms: C_4  and  C_6
REMARK    5  A    between atoms: C_6  and  C_7
REMARK    6  A    between atoms: C_7  and  S_8
REMARK    7  A    between atoms: S_8  and  C_9
REMARK    8  A    between atoms: C_13  and  N_14
REMARK                            x       y       z     vdW  Elec       q    Type
REMARK                         _______ _______ _______ _____ _____    ______ ____
ROOT
ATOM      1  C   UNL     1       3.962   7.031  17.315  0.00  0.00    +0.000 A 
ATOM      2  N   UNL     1       3.303   8.163  17.220  0.00  0.00    +0.000 NA
ATOM      3  C   UNL     1       2.457   8.309  18.313  0.00  0.00    +0.000 A 
ATOM      4  C   UNL     1       1.574   9.390  18.545  0.00  0.00    +0.000 A 
ATOM      5  C   UNL     1       0.835   9.444  19.738  0.00  0.00    +0.000 A 
ATOM      6  C   UNL     1       0.933   8.400  20.656  0.00  0.00    +0.000 A 
ATOM      7  F   UNL     1       0.164   8.398  21.757  0.00  0.00    +0.000 F 
ATOM      8  C   UNL     1       1.745   7.289  20.425  0.00  0.00    +0.000 A 
ATOM      9  C   UNL     1       2.516   7.275  19.252  0.00  0.00    +0.000 A 
ATOM     10  S   UNL     1       3.627   6.082  18.702  0.00  0.00    +0.000 S 
ENDROOT
BRANCH   5  11
ATOM     11  N   UNL     1      -0.000  10.545  20.008  0.00  0.00    +0.000 N 
ATOM     12  C   UNL     1      -1.248  10.723  19.467  0.00  0.00    +0.000 C 
ATOM     13  O   UNL     1      -1.872  10.030  18.683  0.00  0.00    +0.000 OA
ATOM     14  C   UNL     1      -1.785  11.947  20.062  0.00  0.00    +0.000 A 
ATOM     15  C   UNL     1      -3.017  12.553  19.909  0.00  0.00    +0.000 A 
ATOM     16  C   UNL     1      -3.234  13.749  20.601  0.00  0.00    +0.000 A 
ATOM     17  C   UNL     1      -2.225  14.310  21.410  0.00  0.00    +0.000 A 
ATOM     18  C   UNL     1      -0.992  13.669  21.564  0.00  0.00    +0.000 A 
ATOM     19  C   UNL     1      -0.812  12.473  20.892  0.00  0.00    +0.000 A 
ATOM     20  C   UNL     1       0.325  11.556  20.887  0.00  0.00    +0.000 C 
ATOM     21  O   UNL     1       1.349  11.756  21.512  0.00  0.00    +0.000 OA
ENDBRANCH   5  11
BRANCH   1  22
ATOM     22  S   UNL     1       5.084   6.483  16.086  0.00  0.00    +0.000 S 
BRANCH  22  23
ATOM     23  C   UNL     1       5.762   4.979  16.852  0.00  0.00    +0.000 C 
BRANCH  23  24
ATOM     24  C   UNL     1       5.602   3.801  15.897  0.00  0.00    +0.000 C 
BRANCH  24  25
ATOM     25  C   UNL     1       6.184   4.136  14.547  0.00  0.00    +0.000 C 
ATOM     26  O   UNL     1       7.301   4.593  14.352  0.00  0.00    +0.000 OA
BRANCH  25  27
ATOM     27  O   UNL     1       5.237   3.933  13.587  0.00  0.00    +0.000 OA
BRANCH  27  29
ATOM     28  C   UNL     1       4.525   3.154  11.450  0.00  0.00    +0.000 C 
ATOM     29  C   UNL     1       5.719   3.348  12.369  0.00  0.00    +0.000 C 
ENDBRANCH  27  29
ENDBRANCH  25  27
ENDBRANCH  24  25
ENDBRANCH  23  24
ENDBRANCH  22  23
ENDBRANCH   1  22
TORSDOF 7
ENDMDL
MODEL 5
REMARK VINA RESULT:      -6.9      3.726      8.368
REMARK  Name = 
REMARK  8 active torsions:
REMARK  status: ('A' for Active; 'I' for Inactive)
REMARK    1  A    between atoms: C_1  and  C_2
REMARK    2  A    between atoms: C_2  and  O_3
REMARK    3  A    between atoms: O_3  and  C_4
REMARK    4  A    between atoms: C_4  and  C_6
REMARK    5  A    between atoms: C_6  and  C_7
REMARK    6  A    between atoms: C_7  and  S_8
REMARK    7  A    between atoms: S_8  and  C_9
REMARK    8  A    between atoms: C_13  and  N_14
REMARK                            x       y       z     vdW  Elec       q    Type
REMARK                         _______ _______ _______ _____ _____    ______ ____
ROOT
ATOM      1  C   UNL     1       5.804   5.172  17.548  0.00  0.00    +0.000 A 
ATOM      2  N   UNL     1       5.280   6.375  17.518  0.00  0.00    +0.000 NA
ATOM      3  C   UNL     1       4.147   6.416  18.320  0.00  0.00    +0.000 A 
ATOM      4  C   UNL     1       3.305   7.536  18.519  0.00  0.00    +0.000 A 
ATOM      5  C   UNL     1       2.236   7.454  19.425  0.00  0.00    +0.000 A 
ATOM      6  C   UNL     1       1.976   6.250  20.076  0.00  0.00    +0.000 A 
ATOM      7  F   UNL     1       0.904   6.136  20.877  0.00  0.00    +0.000 F 
ATOM      8  C   UNL     1       2.749   5.110  19.853  0.00  0.00    +0.000 A 
ATOM      9  C   UNL     1       3.844   5.223  18.983  0.00  0.00    +0.000 A 
ATOM     10  S   UNL     1       4.995   4.025  18.531  0.00  0.00    +0.000 S 
ENDROOT
BRANCH   5  11
ATOM     11  N   UNL     1       1.429   8.581  19.676  0.00  0.00    +0.000 N 
ATOM     12  C   UNL     1       1.178   9.093  20.923  0.00  0.00    +0.000 C 
ATOM     13  O   UNL     1       1.557   8.719  22.018  0.00  0.00    +0.000 OA
ATOM     14  C   UNL     1       0.359  10.289  20.721  0.00  0.00    +0.000 A 
ATOM     15  C   UNL     1      -0.128  11.208  21.632  0.00  0.00    +0.000 A 
ATOM     16  C   UNL     1      -0.914  12.250  21.132  0.00  0.00    +0.000 A 
ATOM     17  C   UNL     1      -1.204  12.343  19.756  0.00  0.00    +0.000 A 
ATOM     18  C   UNL     1      -0.685  11.412  18.851  0.00  0.00    +0.000 A 
ATOM     19  C   UNL     1       0.114  10.407  19.365  0.00  0.00    +0.000 A 
ATOM     20  C   UNL     1       0.829   9.330  18.686  0.00  0.00    +0.000 C 
ATOM     21  O   UNL     1       0.793   9.157  17.482  0.00  0.00    +0.000 OA
ENDBRANCH   5  11
BRANCH   1  22
ATOM     22  S   UNL     1       7.217   4.731  16.610  0.00  0.00    +0.000 S 
BRANCH  22  23
ATOM     23  C   UNL     1       6.656   5.078  14.916  0.00  0.00    +0.000 C 
BRANCH  23  24
ATOM     24  C   UNL     1       5.618   4.042  14.497  0.00  0.00    +0.000 C 
BRANCH  24  25
ATOM     25  C   UNL     1       5.775   3.700  13.038  0.00  0.00    +0.000 C 
ATOM     26  O   UNL     1       6.841   3.554  12.456  0.00  0.00    +0.000 OA
BRANCH  25  27
ATOM     27  O   UNL     1       4.545   3.668  12.449  0.00  0.00    +0.000 OA
BRANCH  27  29
ATOM     28  C   UNL     1       3.343   3.520  10.397  0.00  0.00    +0.000 C 
ATOM     29  C   UNL     1       4.478   2.934  11.218  0.00  0.00    +0.000 C 
ENDBRANCH  27  29
ENDBRANCH  25  27
ENDBRANCH  24  25
ENDBRANCH  23  24
ENDBRANCH  22  23
ENDBRANCH   1  22
TORSDOF 7
ENDMDL
MODEL 6
REMARK VINA RESULT:      -6.9      3.334      8.740
REMARK  Name = 
REMARK  8 active torsions:
REMARK  status: ('A' for Active; 'I' for Inactive)
REMARK    1  A    between atoms: C_1  and  C_2
REMARK    2  A    between atoms: C_2  and  O_3
REMARK    3  A    between atoms: O_3  and  C_4
REMARK    4  A    between atoms: C_4  and  C_6
REMARK    5  A    between atoms: C_6  and  C_7
REMARK    6  A    between atoms: C_7  and  S_8
REMARK    7  A    between atoms: S_8  and  C_9
REMARK    8  A    between atoms: C_13  and  N_14
REMARK                            x       y       z     vdW  Elec       q    Type
REMARK                         _______ _______ _______ _____ _____    ______ ____
ROOT
ATOM      1  C   UNL     1       4.093   5.092  17.694  0.00  0.00    +0.000 A 
ATOM      2  N   UNL     1       3.752   6.343  17.484  0.00  0.00    +0.000 NA
ATOM      3  C   UNL     1       2.880   6.768  18.479  0.00  0.00    +0.000 A 
ATOM      4  C   UNL     1       2.282   8.046  18.574  0.00  0.00    +0.000 A 
ATOM      5  C   UNL     1       1.481   8.362  19.683  0.00  0.00    +0.000 A 
ATOM      6  C   UNL     1       1.233   7.391  20.651  0.00  0.00    +0.000 A 
ATOM      7  F   UNL     1       0.398   7.655  21.669  0.00  0.00    +0.000 F 
ATOM      8  C   UNL     1       1.756   6.101  20.552  0.00  0.00    +0.000 A 
ATOM      9  C   UNL     1       2.595   5.818  19.465  0.00  0.00    +0.000 A 
ATOM     10  S   UNL     1       3.412   4.352  19.081  0.00  0.00    +0.000 S 
ENDROOT
BRANCH   5  11
ATOM     11  N   UNL     1       0.931   9.651  19.819  0.00  0.00    +0.000 N 
ATOM     12  C   UNL     1       0.167  10.273  18.865  0.00  0.00    +0.000 C 
ATOM     13  O   UNL     1      -0.179   9.890  17.762  0.00  0.00    +0.000 OA
ATOM     14  C   UNL     1      -0.248  11.553  19.439  0.00  0.00    +0.000 A 
ATOM     15  C   UNL     1      -1.068  12.542  18.927  0.00  0.00    +0.000 A 
ATOM     16  C   UNL     1      -1.263  13.682  19.713  0.00  0.00    +0.000 A 
ATOM     17  C   UNL     1      -0.635  13.813  20.968  0.00  0.00    +0.000 A 
ATOM     18  C   UNL     1       0.175  12.791  21.473  0.00  0.00    +0.000 A 
ATOM     19  C   UNL     1       0.330  11.661  20.690  0.00  0.00    +0.000 A 
ATOM     20  C   UNL     1       1.061  10.425  20.953  0.00  0.00    +0.000 C 
ATOM     21  O   UNL     1       1.695  10.225  21.973  0.00  0.00    +0.000 OA
ENDBRANCH   5  11
BRANCH   1  22
ATOM     22  S   UNL     1       5.142   4.201  16.609  0.00  0.00    +0.000 S 
BRANCH  22  23
ATOM     23  C   UNL     1       6.654   5.211  16.648  0.00  0.00    +0.000 C 
BRANCH  23  24
ATOM     24  C   UNL     1       7.581   4.702  17.746  0.00  0.00    +0.000 C 
BRANCH  24  25
ATOM     25  C   UNL     1       7.594   5.660  18.910  0.00  0.00    +0.000 C 
ATOM     26  O   UNL     1       7.746   5.347  20.082  0.00  0.00    +0.000 OA
BRANCH  25  27
ATOM     27  O   UNL     1       7.319   6.917  18.460  0.00  0.00    +0.000 OA
BRANCH  27  29
ATOM     28  C   UNL     1       8.049   9.065  17.730  0.00  0.00    +0.000 C 
ATOM     29  C   UNL     1       8.397   7.857  18.582  0.00  0.00    +0.000 C 
ENDBRANCH  27  29
ENDBRANCH  25  27
ENDBRANCH  24  25
ENDBRANCH  23  24
ENDBRANCH  22  23
ENDBRANCH   1  22
TORSDOF 7
ENDMDL
MODEL 7
REMARK VINA RESULT:      -6.9      3.194      8.952
REMARK  Name = 
REMARK  8 active torsions:
REMARK  status: ('A' for Active; 'I' for Inactive)
REMARK    1  A    between atoms: C_1  and  C_2
REMARK    2  A    between atoms: C_2  and  O_3
REMARK    3  A    between atoms: O_3  and  C_4
REMARK    4  A    between atoms: C_4  and  C_6
REMARK    5  A    between atoms: C_6  and  C_7
REMARK    6  A    between atoms: C_7  and  S_8
REMARK    7  A    between atoms: S_8  and  C_9
REMARK    8  A    between atoms: C_13  and  N_14
REMARK                            x       y       z     vdW  Elec       q    Type
REMARK                         _______ _______ _______ _____ _____    ______ ____
ROOT
ATOM      1  C   UNL     1       3.969   6.957  17.272  0.00  0.00    +0.000 A 
ATOM      2  N   UNL     1       3.319   8.096  17.196  0.00  0.00    +0.000 NA
ATOM      3  C   UNL     1       2.502   8.247  18.309  0.00  0.00    +0.000 A 
ATOM      4  C   UNL     1       1.636   9.335  18.567  0.00  0.00    +0.000 A 
ATOM      5  C   UNL     1       0.927   9.393  19.778  0.00  0.00    +0.000 A 
ATOM      6  C   UNL     1       1.037   8.345  20.690  0.00  0.00    +0.000 A 
ATOM      7  F   UNL     1       0.296   8.348  21.810  0.00  0.00    +0.000 F 
ATOM      8  C   UNL     1       1.833   7.227  20.436  0.00  0.00    +0.000 A 
ATOM      9  C   UNL     1       2.574   7.209  19.245  0.00  0.00    +0.000 A 
ATOM     10  S   UNL     1       3.660   6.007  18.663  0.00  0.00    +0.000 S 
ENDROOT
BRANCH   5  11
ATOM     11  N   UNL     1       0.110  10.501  20.071  0.00  0.00    +0.000 N 
ATOM     12  C   UNL     1       0.489  11.559  20.856  0.00  0.00    +0.000 C 
ATOM     13  O   UNL     1       1.536  11.767  21.444  0.00  0.00    +0.000 OA
ATOM     14  C   UNL     1      -0.626  12.506  20.840  0.00  0.00    +0.000 A 
ATOM     15  C   UNL     1      -0.751  13.755  21.419  0.00  0.00    +0.000 A 
ATOM     16  C   UNL     1      -1.967  14.423  21.245  0.00  0.00    +0.000 A 
ATOM     17  C   UNL     1      -3.021  13.831  20.519  0.00  0.00    +0.000 A 
ATOM     18  C   UNL     1      -2.865  12.574  19.927  0.00  0.00    +0.000 A 
ATOM     19  C   UNL     1      -1.642  11.946  20.088  0.00  0.00    +0.000 A 
ATOM     20  C   UNL     1      -1.161  10.672  19.563  0.00  0.00    +0.000 C 
ATOM     21  O   UNL     1      -1.839   9.932  18.874  0.00  0.00    +0.000 OA
ENDBRANCH   5  11
BRANCH   1  22
ATOM     22  S   UNL     1       5.056   6.402  16.013  0.00  0.00    +0.000 S 
BRANCH  22  23
ATOM     23  C   UNL     1       6.375   5.616  16.987  0.00  0.00    +0.000 C 
BRANCH  23  24
ATOM     24  C   UNL     1       6.797   4.312  16.320  0.00  0.00    +0.000 C 
BRANCH  24  25
ATOM     25  C   UNL     1       7.096   4.541  14.860  0.00  0.00    +0.000 C 
ATOM     26  O   UNL     1       7.859   5.389  14.419  0.00  0.00    +0.000 OA
BRANCH  25  27
ATOM     27  O   UNL     1       6.315   3.715  14.107  0.00  0.00    +0.000 OA
BRANCH  27  29
ATOM     28  C   UNL     1       5.762   2.717  12.014  0.00  0.00    +0.000 C 
ATOM     29  C   UNL     1       6.406   3.916  12.689  0.00  0.00    +0.000 C 
ENDBRANCH  27  29
ENDBRANCH  25  27
ENDBRANCH  24  25
ENDBRANCH  23  24
ENDBRANCH  22  23
ENDBRANCH   1  22
TORSDOF 7
ENDMDL
MODEL 8
REMARK VINA RESULT:      -6.9      4.089      8.434
REMARK  Name = 
REMARK  8 active torsions:
REMARK  status: ('A' for Active; 'I' for Inactive)
REMARK    1  A    between atoms: C_1  and  C_2
REMARK    2  A    between atoms: C_2  and  O_3
REMARK    3  A    between atoms: O_3  and  C_4
REMARK    4  A    between atoms: C_4  and  C_6
REMARK    5  A    between atoms: C_6  and  C_7
REMARK    6  A    between atoms: C_7  and  S_8
REMARK    7  A    between atoms: S_8  and  C_9
REMARK    8  A    between atoms: C_13  and  N_14
REMARK                            x       y       z     vdW  Elec       q    Type
REMARK                         _______ _______ _______ _____ _____    ______ ____
ROOT
ATOM      1  C   UNL     1       5.921   5.381  15.587  0.00  0.00    +0.000 A 
ATOM      2  N   UNL     1       5.487   6.530  16.052  0.00  0.00    +0.000 NA
ATOM      3  C   UNL     1       4.403   6.318  16.895  0.00  0.00    +0.000 A 
ATOM      4  C   UNL     1       3.658   7.318  17.564  0.00  0.00    +0.000 A 
ATOM      5  C   UNL     1       2.634   6.950  18.451  0.00  0.00    +0.000 A 
ATOM      6  C   UNL     1       2.321   5.603  18.619  0.00  0.00    +0.000 A 
ATOM      7  F   UNL     1       1.286   5.245  19.397  0.00  0.00    +0.000 F 
ATOM      8  C   UNL     1       2.994   4.597  17.925  0.00  0.00    +0.000 A 
ATOM      9  C   UNL     1       4.048   4.978  17.081  0.00  0.00    +0.000 A 
ATOM     10  S   UNL     1       5.081   3.988  16.125  0.00  0.00    +0.000 S 
ENDROOT
BRANCH   5  11
ATOM     11  N   UNL     1       1.927   7.934  19.168  0.00  0.00    +0.000 N 
ATOM     12  C   UNL     1       1.642   7.863  20.507  0.00  0.00    +0.000 C 
ATOM     13  O   UNL     1       1.904   6.997  21.323  0.00  0.00    +0.000 OA
ATOM     14  C   UNL     1       0.961   9.112  20.851  0.00  0.00    +0.000 A 
ATOM     15  C   UNL     1       0.506   9.580  22.069  0.00  0.00    +0.000 A 
ATOM     16  C   UNL     1      -0.137  10.822  22.079  0.00  0.00    +0.000 A 
ATOM     17  C   UNL     1      -0.319  11.552  20.887  0.00  0.00    +0.000 A 
ATOM     18  C   UNL     1       0.167  11.067  19.669  0.00  0.00    +0.000 A 
ATOM     19  C   UNL     1       0.825   9.850  19.690  0.00  0.00    +0.000 A 
ATOM     20  C   UNL     1       1.475   9.112  18.611  0.00  0.00    +0.000 C 
ATOM     21  O   UNL     1       1.507   9.499  17.458  0.00  0.00    +0.000 OA
ENDBRANCH   5  11
BRANCH   1  22
ATOM     22  S   UNL     1       7.247   5.261  14.447  0.00  0.00    +0.000 S 
BRANCH  22  23
ATOM     23  C   UNL     1       6.848   3.713  13.581  0.00  0.00    +0.000 C 
BRANCH  23  24
ATOM     24  C   UNL     1       6.330   4.027  12.182  0.00  0.00    +0.000 C 
BRANCH  24  25
ATOM     25  C   UNL     1       5.335   2.983  11.743  0.00  0.00    +0.000 C 
ATOM     26  O   UNL     1       5.603   1.821  11.470  0.00  0.00    +0.000 OA
BRANCH  25  27
ATOM     27  O   UNL     1       4.107   3.561  11.610  0.00  0.00    +0.000 OA
BRANCH  27  29
ATOM     28  C   UNL     1       2.934   4.223   9.645  0.00  0.00    +0.000 C 
ATOM     29  C   UNL     1       3.306   3.050  10.535  0.00  0.00    +0.000 C 
ENDBRANCH  27  29
ENDBRANCH  25  27
ENDBRANCH  24  25
ENDBRANCH  23  24
ENDBRANCH  22  23
ENDBRANCH   1  22
TORSDOF 7
ENDMDL
MODEL 9
REMARK VINA RESULT:      -6.9      3.242      8.685
REMARK  Name = 
REMARK  8 active torsions:
REMARK  status: ('A' for Active; 'I' for Inactive)
REMARK    1  A    between atoms: C_1  and  C_2
REMARK    2  A    between atoms: C_2  and  O_3
REMARK    3  A    between atoms: O_3  and  C_4
REMARK    4  A    between atoms: C_4  and  C_6
REMARK    5  A    between atoms: C_6  and  C_7
REMARK    6  A    between atoms: C_7  and  S_8
REMARK    7  A    between atoms: S_8  and  C_9
REMARK    8  A    between atoms: C_13  and  N_14
REMARK                            x       y       z     vdW  Elec       q    Type
REMARK                         _______ _______ _______ _____ _____    ______ ____
ROOT
ATOM      1  C   UNL     1       3.738   4.967  18.628  0.00  0.00    +0.000 A 
ATOM      2  N   UNL     1       3.532   6.199  18.221  0.00  0.00    +0.000 NA
ATOM      3  C   UNL     1       2.619   6.826  19.060  0.00  0.00    +0.000 A 
ATOM      4  C   UNL     1       2.135   8.148  18.926  0.00  0.00    +0.000 A 
ATOM      5  C   UNL     1       1.273   8.678  19.899  0.00  0.00    +0.000 A 
ATOM      6  C   UNL     1       0.854   7.875  20.958  0.00  0.00    +0.000 A 
ATOM      7  F   UNL     1      -0.039   8.343  21.845  0.00  0.00    +0.000 F 
ATOM      8  C   UNL     1       1.263   6.546  21.082  0.00  0.00    +0.000 A 
ATOM      9  C   UNL     1       2.164   6.048  20.130  0.00  0.00    +0.000 A 
ATOM     10  S   UNL     1       2.875   4.484  20.026  0.00  0.00    +0.000 S 
ENDROOT
BRANCH   5  11
ATOM     11  N   UNL     1       0.833  10.012  19.808  0.00  0.00    +0.000 N 
ATOM     12  C   UNL     1       0.105  10.520  18.763  0.00  0.00    +0.000 C 
ATOM     13  O   UNL     1      -0.292   9.980  17.746  0.00  0.00    +0.000 OA
ATOM     14  C   UNL     1      -0.193  11.911  19.104  0.00  0.00    +0.000 A 
ATOM     15  C   UNL     1      -0.939  12.860  18.430  0.00  0.00    +0.000 A 
ATOM     16  C   UNL     1      -1.025  14.133  19.005  0.00  0.00    +0.000 A 
ATOM     17  C   UNL     1      -0.365  14.428  20.215  0.00  0.00    +0.000 A 
ATOM     18  C   UNL     1       0.367  13.445  20.888  0.00  0.00    +0.000 A 
ATOM     19  C   UNL     1       0.414  12.187  20.315  0.00  0.00    +0.000 A 
ATOM     20  C   UNL     1       1.047  10.959  20.789  0.00  0.00    +0.000 C 
ATOM     21  O   UNL     1       1.680  10.888  21.825  0.00  0.00    +0.000 OA
ENDBRANCH   5  11
BRANCH   1  22
ATOM     22  S   UNL     1       4.792   3.853  17.778  0.00  0.00    +0.000 S 
BRANCH  22  23
ATOM     23  C   UNL     1       4.956   4.667  16.159  0.00  0.00    +0.000 C 
BRANCH  23  24
ATOM     24  C   UNL     1       6.354   4.420  15.602  0.00  0.00    +0.000 C 
BRANCH  24  25
ATOM     25  C   UNL     1       7.401   4.902  16.574  0.00  0.00    +0.000 C 
ATOM     26  O   UNL     1       8.060   4.188  17.316  0.00  0.00    +0.000 OA
BRANCH  25  27
ATOM     27  O   UNL     1       7.432   6.265  16.560  0.00  0.00    +0.000 OA
BRANCH  27  29
ATOM     28  C   UNL     1       7.734   8.380  17.617  0.00  0.00    +0.000 C 
ATOM     29  C   UNL     1       7.601   6.884  17.844  0.00  0.00    +0.000 C 
ENDBRANCH  27  29
ENDBRANCH  25  27
ENDBRANCH  24  25
ENDBRANCH  23  24
ENDBRANCH  22  23
ENDBRANCH   1  22
TORSDOF 7
ENDMDL
