MODEL 1
REMARK VINA RESULT:      -7.9      0.000      0.000
REMARK  Name = 
REMARK  9 active torsions:
REMARK  status: ('A' for Active; 'I' for Inactive)
REMARK    1  A    between atoms: C_1  and  C_2
REMARK    2  A    between atoms: C_4  and  C_5
REMARK    3  A    between atoms: C_6  and  N_7
REMARK    4  A    between atoms: C_8  and  S_9
REMARK    5  A    between atoms: S_9  and  C_10
REMARK    6  A    between atoms: C_10  and  C_11
REMARK    7  A    between atoms: N_13  and  C_14
REMARK    8  A    between atoms: C_17  and  N_18
REMARK    9  A    between atoms: C_31  and  C_32
REMARK                            x       y       z     vdW  Elec       q    Type
REMARK                         _______ _______ _______ _____ _____    ______ ____
ROOT
ATOM      1  N   UNL     1      -0.964  12.705  20.735  0.00  0.00    +0.000 N 
ATOM      2  C   UNL     1      -0.641  12.217  22.009  0.00  0.00    +0.000 A 
ATOM      3  N   UNL     1      -0.028  13.107  22.768  0.00  0.00    +0.000 NA
ATOM      4  C   UNL     1       0.185  14.180  21.953  0.00  0.00    +0.000 A 
ATOM      5  C   UNL     1       0.927  15.347  22.194  0.00  0.00    +0.000 A 
ATOM      6  N   UNL     1       1.048  16.299  21.235  0.00  0.00    +0.000 NA
ATOM      7  C   UNL     1       0.345  16.151  20.094  0.00  0.00    +0.000 A 
ATOM      8  C   UNL     1      -0.502  15.084  19.817  0.00  0.00    +0.000 A 
ATOM      9  C   UNL     1      -0.469  14.022  20.731  0.00  0.00    +0.000 A 
ENDROOT
BRANCH   1  15
ATOM     10  C   UNL     1      -3.411  10.036  16.175  0.00  0.00    +0.000 C 
ATOM     11  C   UNL     1      -2.769  10.713  17.349  0.00  0.00    +0.000 A 
ATOM     12  C   UNL     1      -1.393  10.715  17.523  0.00  0.00    +0.000 A 
ATOM     13  C   UNL     1      -0.781  11.284  18.666  0.00  0.00    +0.000 A 
ATOM     14  C   UNL     1       0.692  10.957  18.775  0.00  0.00    +0.000 C 
ATOM     15  C   UNL     1      -1.575  12.003  19.614  0.00  0.00    +0.000 A 
ATOM     16  C   UNL     1      -2.993  12.013  19.416  0.00  0.00    +0.000 A 
ATOM     17  C   UNL     1      -4.052  12.722  20.228  0.00  0.00    +0.000 C 
ATOM     18  C   UNL     1      -3.553  11.318  18.319  0.00  0.00    +0.000 A 
ENDBRANCH   1  15
BRANCH   2  19
ATOM     19  S   UNL     1      -0.767  10.542  22.518  0.00  0.00    +0.000 S 
BRANCH  19  20
ATOM     20  C   UNL     1       0.879   9.844  22.204  0.00  0.00    +0.000 C 
BRANCH  20  21
ATOM     21  C   UNL     1       0.716   8.570  21.415  0.00  0.00    +0.000 C 
ATOM     22  O   UNL     1      -0.387   8.056  21.253  0.00  0.00    +0.000 OA
ATOM     23  N   UNL     1       1.902   8.007  20.938  0.00  0.00    +0.000 N 
ATOM     24  H   UNL     1       2.780   8.306  21.350  0.00  0.00    +0.000 HD
BRANCH  23  25
ATOM     25  C   UNL     1       1.917   6.777  20.221  0.00  0.00    +0.000 A 
ATOM     26  C   UNL     1       1.581   5.578  20.855  0.00  0.00    +0.000 A 
ATOM     27  C   UNL     1       1.784   4.350  20.242  0.00  0.00    +0.000 A 
ATOM     28  C   UNL     1       2.263   4.316  18.935  0.00  0.00    +0.000 A 
ATOM     29  C   UNL     1       2.499   5.508  18.230  0.00  0.00    +0.000 A 
ATOM     30  C   UNL     1       2.314   6.740  18.875  0.00  0.00    +0.000 A 
ATOM     31 CL   UNL     1       2.650   8.192  17.997  0.00  0.00    +0.000 Cl
BRANCH  28  32
ATOM     32  N   UNL     1       2.543   3.018  18.317  0.00  0.00    +0.000 N 
ATOM     33  O   UNL     1       1.801   2.067  18.600  0.00  0.00    +0.000 OA
ATOM     34  O   UNL     1       3.510   2.946  17.549  0.00  0.00    +0.000 OA
ENDBRANCH  28  32
ENDBRANCH  23  25
ENDBRANCH  20  21
ENDBRANCH  19  20
ENDBRANCH   2  19
TORSDOF 6
ENDMDL
MODEL 2
REMARK VINA RESULT:      -7.7      1.063      1.380
REMARK  Name = 
REMARK  9 active torsions:
REMARK  status: ('A' for Active; 'I' for Inactive)
REMARK    1  A    between atoms: C_1  and  C_2
REMARK    2  A    between atoms: C_4  and  C_5
REMARK    3  A    between atoms: C_6  and  N_7
REMARK    4  A    between atoms: C_8  and  S_9
REMARK    5  A    between atoms: S_9  and  C_10
REMARK    6  A    between atoms: C_10  and  C_11
REMARK    7  A    between atoms: N_13  and  C_14
REMARK    8  A    between atoms: C_17  and  N_18
REMARK    9  A    between atoms: C_31  and  C_32
REMARK                            x       y       z     vdW  Elec       q    Type
REMARK                         _______ _______ _______ _____ _____    ______ ____
ROOT
ATOM      1  N   UNL     1      -0.891  12.901  20.415  0.00  0.00    +0.000 N 
ATOM      2  C   UNL     1      -0.136  12.260  21.407  0.00  0.00    +0.000 A 
ATOM      3  N   UNL     1       1.005  12.870  21.669  0.00  0.00    +0.000 NA
ATOM      4  C   UNL     1       1.089  13.874  20.749  0.00  0.00    +0.000 A 
ATOM      5  C   UNL     1       2.158  14.739  20.470  0.00  0.00    +0.000 A 
ATOM      6  N   UNL     1       2.059  15.665  19.483  0.00  0.00    +0.000 NA
ATOM      7  C   UNL     1       0.873  15.810  18.859  0.00  0.00    +0.000 A 
ATOM      8  C   UNL     1      -0.271  15.074  19.147  0.00  0.00    +0.000 A 
ATOM      9  C   UNL     1      -0.101  13.999  20.031  0.00  0.00    +0.000 A 
ENDROOT
BRANCH   1  15
ATOM     10  C   UNL     1      -5.948  11.394  17.953  0.00  0.00    +0.000 C 
ATOM     11  C   UNL     1      -4.640  11.768  18.582  0.00  0.00    +0.000 A 
ATOM     12  C   UNL     1      -3.433  11.304  18.081  0.00  0.00    +0.000 A 
ATOM     13  C   UNL     1      -2.198  11.587  18.711  0.00  0.00    +0.000 A 
ATOM     14  C   UNL     1      -1.047  10.783  18.150  0.00  0.00    +0.000 C 
ATOM     15  C   UNL     1      -2.157  12.490  19.820  0.00  0.00    +0.000 A 
ATOM     16  C   UNL     1      -3.406  12.981  20.319  0.00  0.00    +0.000 A 
ATOM     17  C   UNL     1      -3.650  13.969  21.437  0.00  0.00    +0.000 C 
ATOM     18  C   UNL     1      -4.616  12.560  19.720  0.00  0.00    +0.000 A 
ENDBRANCH   1  15
BRANCH   2  19
ATOM     19  S   UNL     1      -0.480  10.676  22.083  0.00  0.00    +0.000 S 
BRANCH  19  20
ATOM     20  C   UNL     1       1.118   9.816  22.067  0.00  0.00    +0.000 C 
BRANCH  20  21
ATOM     21  C   UNL     1       0.935   8.481  21.390  0.00  0.00    +0.000 C 
ATOM     22  O   UNL     1      -0.109   7.844  21.505  0.00  0.00    +0.000 OA
ATOM     23  N   UNL     1       2.044   8.014  20.681  0.00  0.00    +0.000 N 
ATOM     24  H   UNL     1       2.950   8.431  20.869  0.00  0.00    +0.000 HD
BRANCH  23  25
ATOM     25  C   UNL     1       2.045   6.747  20.032  0.00  0.00    +0.000 A 
ATOM     26  C   UNL     1       1.635   5.597  20.713  0.00  0.00    +0.000 A 
ATOM     27  C   UNL     1       1.818   4.330  20.177  0.00  0.00    +0.000 A 
ATOM     28  C   UNL     1       2.353   4.208  18.898  0.00  0.00    +0.000 A 
ATOM     29  C   UNL     1       2.665   5.349  18.142  0.00  0.00    +0.000 A 
ATOM     30  C   UNL     1       2.500   6.621  18.710  0.00  0.00    +0.000 A 
ATOM     31 CL   UNL     1       2.930   8.009  17.772  0.00  0.00    +0.000 Cl
BRANCH  28  32
ATOM     32  N   UNL     1       2.611   2.868  18.365  0.00  0.00    +0.000 N 
ATOM     33  O   UNL     1       3.472   2.174  18.925  0.00  0.00    +0.000 OA
ATOM     34  O   UNL     1       1.954   2.507  17.380  0.00  0.00    +0.000 OA
ENDBRANCH  28  32
ENDBRANCH  23  25
ENDBRANCH  20  21
ENDBRANCH  19  20
ENDBRANCH   2  19
TORSDOF 6
ENDMDL
MODEL 3
REMARK VINA RESULT:      -7.6      2.177      4.684
REMARK  Name = 
REMARK  9 active torsions:
REMARK  status: ('A' for Active; 'I' for Inactive)
REMARK    1  A    between atoms: C_1  and  C_2
REMARK    2  A    between atoms: C_4  and  C_5
REMARK    3  A    between atoms: C_6  and  N_7
REMARK    4  A    between atoms: C_8  and  S_9
REMARK    5  A    between atoms: S_9  and  C_10
REMARK    6  A    between atoms: C_10  and  C_11
REMARK    7  A    between atoms: N_13  and  C_14
REMARK    8  A    between atoms: C_17  and  N_18
REMARK    9  A    between atoms: C_31  and  C_32
REMARK                            x       y       z     vdW  Elec       q    Type
REMARK                         _______ _______ _______ _____ _____    ______ ____
ROOT
ATOM      1  N   UNL     1      -1.295  11.912  19.576  0.00  0.00    +0.000 N 
ATOM      2  C   UNL     1      -0.453  10.931  19.032  0.00  0.00    +0.000 A 
ATOM      3  N   UNL     1      -1.064  10.139  18.171  0.00  0.00    +0.000 NA
ATOM      4  C   UNL     1      -2.377  10.504  18.224  0.00  0.00    +0.000 A 
ATOM      5  C   UNL     1      -3.495   9.897  17.630  0.00  0.00    +0.000 A 
ATOM      6  N   UNL     1      -4.740  10.399  17.827  0.00  0.00    +0.000 NA
ATOM      7  C   UNL     1      -4.863  11.556  18.508  0.00  0.00    +0.000 A 
ATOM      8  C   UNL     1      -3.803  12.283  19.036  0.00  0.00    +0.000 A 
ATOM      9  C   UNL     1      -2.548  11.658  18.988  0.00  0.00    +0.000 A 
ENDROOT
BRANCH   1  15
ATOM     10  C   UNL     1      -0.255  15.960  23.629  0.00  0.00    +0.000 C 
ATOM     11  C   UNL     1      -0.519  14.907  22.596  0.00  0.00    +0.000 A 
ATOM     12  C   UNL     1      -0.973  13.644  22.945  0.00  0.00    +0.000 A 
ATOM     13  C   UNL     1      -1.153  12.617  21.988  0.00  0.00    +0.000 A 
ATOM     14  C   UNL     1      -1.409  11.263  22.610  0.00  0.00    +0.000 C 
ATOM     15  C   UNL     1      -0.999  12.909  20.596  0.00  0.00    +0.000 A 
ATOM     16  C   UNL     1      -0.549  14.222  20.242  0.00  0.00    +0.000 A 
ATOM     17  C   UNL     1      -0.346  14.808  18.863  0.00  0.00    +0.000 C 
ATOM     18  C   UNL     1      -0.268  15.165  21.258  0.00  0.00    +0.000 A 
ENDBRANCH   1  15
BRANCH   2  19
ATOM     19  S   UNL     1       1.174  10.569  19.583  0.00  0.00    +0.000 S 
BRANCH  19  20
ATOM     20  C   UNL     1       1.950   9.712  18.184  0.00  0.00    +0.000 C 
BRANCH  20  21
ATOM     21  C   UNL     1       2.216   8.283  18.588  0.00  0.00    +0.000 C 
ATOM     22  O   UNL     1       2.019   7.896  19.736  0.00  0.00    +0.000 OA
ATOM     23  N   UNL     1       2.743   7.468  17.583  0.00  0.00    +0.000 N 
ATOM     24  H   UNL     1       3.155   7.909  16.767  0.00  0.00    +0.000 HD
BRANCH  23  25
ATOM     25  C   UNL     1       3.096   6.110  17.824  0.00  0.00    +0.000 A 
ATOM     26  C   UNL     1       2.109   5.142  18.028  0.00  0.00    +0.000 A 
ATOM     27  C   UNL     1       2.424   3.863  18.465  0.00  0.00    +0.000 A 
ATOM     28  C   UNL     1       3.762   3.514  18.630  0.00  0.00    +0.000 A 
ATOM     29  C   UNL     1       4.782   4.429  18.319  0.00  0.00    +0.000 A 
ATOM     30  C   UNL     1       4.445   5.726  17.905  0.00  0.00    +0.000 A 
ATOM     31 CL   UNL     1       5.719   6.844  17.568  0.00  0.00    +0.000 Cl
BRANCH  28  32
ATOM     32  N   UNL     1       4.087   2.188  19.159  0.00  0.00    +0.000 N 
ATOM     33  O   UNL     1       3.604   1.199  18.588  0.00  0.00    +0.000 OA
ATOM     34  O   UNL     1       4.825   2.132  20.150  0.00  0.00    +0.000 OA
ENDBRANCH  28  32
ENDBRANCH  23  25
ENDBRANCH  20  21
ENDBRANCH  19  20
ENDBRANCH   2  19
TORSDOF 6
ENDMDL
MODEL 4
REMARK VINA RESULT:      -7.5      1.390      2.402
REMARK  Name = 
REMARK  9 active torsions:
REMARK  status: ('A' for Active; 'I' for Inactive)
REMARK    1  A    between atoms: C_1  and  C_2
REMARK    2  A    between atoms: C_4  and  C_5
REMARK    3  A    between atoms: C_6  and  N_7
REMARK    4  A    between atoms: C_8  and  S_9
REMARK    5  A    between atoms: S_9  and  C_10
REMARK    6  A    between atoms: C_10  and  C_11
REMARK    7  A    between atoms: N_13  and  C_14
REMARK    8  A    between atoms: C_17  and  N_18
REMARK    9  A    between atoms: C_31  and  C_32
REMARK                            x       y       z     vdW  Elec       q    Type
REMARK                         _______ _______ _______ _____ _____    ______ ____
ROOT
ATOM      1  N   UNL     1      -1.113  12.947  21.088  0.00  0.00    +0.000 N 
ATOM      2  C   UNL     1      -0.150  12.090  21.640  0.00  0.00    +0.000 A 
ATOM      3  N   UNL     1       1.089  12.449  21.359  0.00  0.00    +0.000 NA
ATOM      4  C   UNL     1       0.966  13.495  20.493  0.00  0.00    +0.000 A 
ATOM      5  C   UNL     1       1.958  14.164  19.758  0.00  0.00    +0.000 A 
ATOM      6  N   UNL     1       1.630  15.175  18.915  0.00  0.00    +0.000 NA
ATOM      7  C   UNL     1       0.350  15.596  18.889  0.00  0.00    +0.000 A 
ATOM      8  C   UNL     1      -0.676  15.067  19.663  0.00  0.00    +0.000 A 
ATOM      9  C   UNL     1      -0.362  13.905  20.384  0.00  0.00    +0.000 A 
ENDROOT
BRANCH   1  15
ATOM     10  C   UNL     1      -6.927  12.660  21.208  0.00  0.00    +0.000 C 
ATOM     11  C   UNL     1      -5.430  12.722  21.167  0.00  0.00    +0.000 A 
ATOM     12  C   UNL     1      -4.721  12.399  20.020  0.00  0.00    +0.000 A 
ATOM     13  C   UNL     1      -3.306  12.380  19.990  0.00  0.00    +0.000 A 
ATOM     14  C   UNL     1      -2.747  11.763  18.728  0.00  0.00    +0.000 C 
ATOM     15  C   UNL     1      -2.566  12.836  21.126  0.00  0.00    +0.000 A 
ATOM     16  C   UNL     1      -3.306  13.187  22.301  0.00  0.00    +0.000 A 
ATOM     17  C   UNL     1      -2.789  13.734  23.611  0.00  0.00    +0.000 C 
ATOM     18  C   UNL     1      -4.715  13.065  22.304  0.00  0.00    +0.000 A 
ENDBRANCH   1  15
BRANCH   2  19
ATOM     19  S   UNL     1      -0.483  10.547  22.409  0.00  0.00    +0.000 S 
BRANCH  19  20
ATOM     20  C   UNL     1       1.075   9.626  22.277  0.00  0.00    +0.000 C 
BRANCH  20  21
ATOM     21  C   UNL     1       0.903   8.542  21.242  0.00  0.00    +0.000 C 
ATOM     22  O   UNL     1      -0.099   8.486  20.536  0.00  0.00    +0.000 OA
ATOM     23  N   UNL     1       1.932   7.597  21.191  0.00  0.00    +0.000 N 
ATOM     24  H   UNL     1       2.565   7.527  21.981  0.00  0.00    +0.000 HD
BRANCH  23  25
ATOM     25  C   UNL     1       1.889   6.485  20.303  0.00  0.00    +0.000 A 
ATOM     26  C   UNL     1       1.490   5.226  20.757  0.00  0.00    +0.000 A 
ATOM     27  C   UNL     1       1.635   4.090  19.973  0.00  0.00    +0.000 A 
ATOM     28  C   UNL     1       2.118   4.222  18.673  0.00  0.00    +0.000 A 
ATOM     29  C   UNL     1       2.416   5.490  18.148  0.00  0.00    +0.000 A 
ATOM     30  C   UNL     1       2.290   6.624  18.964  0.00  0.00    +0.000 A 
ATOM     31 CL   UNL     1       2.702   8.168  18.305  0.00  0.00    +0.000 Cl
BRANCH  28  32
ATOM     32  N   UNL     1       2.336   3.015  17.874  0.00  0.00    +0.000 N 
ATOM     33  O   UNL     1       2.617   1.965  18.470  0.00  0.00    +0.000 OA
ATOM     34  O   UNL     1       2.230   3.115  16.645  0.00  0.00    +0.000 OA
ENDBRANCH  28  32
ENDBRANCH  23  25
ENDBRANCH  20  21
ENDBRANCH  19  20
ENDBRANCH   2  19
TORSDOF 6
ENDMDL
MODEL 5
REMARK VINA RESULT:      -7.5      2.833      5.185
REMARK  Name = 
REMARK  9 active torsions:
REMARK  status: ('A' for Active; 'I' for Inactive)
REMARK    1  A    between atoms: C_1  and  C_2
REMARK    2  A    between atoms: C_4  and  C_5
REMARK    3  A    between atoms: C_6  and  N_7
REMARK    4  A    between atoms: C_8  and  S_9
REMARK    5  A    between atoms: S_9  and  C_10
REMARK    6  A    between atoms: C_10  and  C_11
REMARK    7  A    between atoms: N_13  and  C_14
REMARK    8  A    between atoms: C_17  and  N_18
REMARK    9  A    between atoms: C_31  and  C_32
REMARK                            x       y       z     vdW  Elec       q    Type
REMARK                         _______ _______ _______ _____ _____    ______ ____
ROOT
ATOM      1  N   UNL     1      -1.121  11.806  19.375  0.00  0.00    +0.000 N 
ATOM      2  C   UNL     1      -0.300  10.826  18.798  0.00  0.00    +0.000 A 
ATOM      3  N   UNL     1      -0.945  10.031  17.964  0.00  0.00    +0.000 NA
ATOM      4  C   UNL     1      -2.255  10.394  18.071  0.00  0.00    +0.000 A 
ATOM      5  C   UNL     1      -3.395   9.784  17.525  0.00  0.00    +0.000 A 
ATOM      6  N   UNL     1      -4.632  10.284  17.773  0.00  0.00    +0.000 NA
ATOM      7  C   UNL     1      -4.729  11.441  18.457  0.00  0.00    +0.000 A 
ATOM      8  C   UNL     1      -3.649  12.172  18.939  0.00  0.00    +0.000 A 
ATOM      9  C   UNL     1      -2.396  11.549  18.841  0.00  0.00    +0.000 A 
ENDROOT
BRANCH   1  15
ATOM     10  C   UNL     1       0.078  15.861  23.378  0.00  0.00    +0.000 C 
ATOM     11  C   UNL     1      -0.226  14.806  22.357  0.00  0.00    +0.000 A 
ATOM     12  C   UNL     1      -0.654  13.539  22.727  0.00  0.00    +0.000 A 
ATOM     13  C   UNL     1      -0.871  12.511  21.778  0.00  0.00    +0.000 A 
ATOM     14  C   UNL     1      -1.087  11.155  22.411  0.00  0.00    +0.000 C 
ATOM     15  C   UNL     1      -0.784  12.805  20.381  0.00  0.00    +0.000 A 
ATOM     16  C   UNL     1      -0.361  14.121  20.007  0.00  0.00    +0.000 A 
ATOM     17  C   UNL     1      -0.227  14.709  18.620  0.00  0.00    +0.000 C 
ATOM     18  C   UNL     1      -0.039  15.066  21.009  0.00  0.00    +0.000 A 
ENDBRANCH   1  15
BRANCH   2  19
ATOM     19  S   UNL     1       1.349  10.468  19.282  0.00  0.00    +0.000 S 
BRANCH  19  20
ATOM     20  C   UNL     1       1.396   8.661  19.442  0.00  0.00    +0.000 C 
BRANCH  20  21
ATOM     21  C   UNL     1       2.362   8.115  18.421  0.00  0.00    +0.000 C 
ATOM     22  O   UNL     1       2.435   8.592  17.292  0.00  0.00    +0.000 OA
ATOM     23  N   UNL     1       3.115   7.015  18.840  0.00  0.00    +0.000 N 
ATOM     24  H   UNL     1       2.802   6.495  19.653  0.00  0.00    +0.000 HD
BRANCH  23  25
ATOM     25  C   UNL     1       4.032   6.356  17.973  0.00  0.00    +0.000 A 
ATOM     26  C   UNL     1       5.263   6.939  17.662  0.00  0.00    +0.000 A 
ATOM     27  C   UNL     1       6.081   6.423  16.667  0.00  0.00    +0.000 A 
ATOM     28  C   UNL     1       5.701   5.251  16.018  0.00  0.00    +0.000 A 
ATOM     29  C   UNL     1       4.526   4.577  16.391  0.00  0.00    +0.000 A 
ATOM     30  C   UNL     1       3.697   5.128  17.379  0.00  0.00    +0.000 A 
ATOM     31 CL   UNL     1       2.237   4.299  17.790  0.00  0.00    +0.000 Cl
BRANCH  28  32
ATOM     32  N   UNL     1       6.531   4.749  14.921  0.00  0.00    +0.000 N 
ATOM     33  O   UNL     1       6.151   3.734  14.321  0.00  0.00    +0.000 OA
ATOM     34  O   UNL     1       7.570   5.370  14.658  0.00  0.00    +0.000 OA
ENDBRANCH  28  32
ENDBRANCH  23  25
ENDBRANCH  20  21
ENDBRANCH  19  20
ENDBRANCH   2  19
TORSDOF 6
ENDMDL
MODEL 6
REMARK VINA RESULT:      -7.5      1.560      4.234
REMARK  Name = 
REMARK  9 active torsions:
REMARK  status: ('A' for Active; 'I' for Inactive)
REMARK    1  A    between atoms: C_1  and  C_2
REMARK    2  A    between atoms: C_4  and  C_5
REMARK    3  A    between atoms: C_6  and  N_7
REMARK    4  A    between atoms: C_8  and  S_9
REMARK    5  A    between atoms: S_9  and  C_10
REMARK    6  A    between atoms: C_10  and  C_11
REMARK    7  A    between atoms: N_13  and  C_14
REMARK    8  A    between atoms: C_17  and  N_18
REMARK    9  A    between atoms: C_31  and  C_32
REMARK                            x       y       z     vdW  Elec       q    Type
REMARK                         _______ _______ _______ _____ _____    ______ ____
ROOT
ATOM      1  N   UNL     1      -1.038  12.088  20.137  0.00  0.00    +0.000 N 
ATOM      2  C   UNL     1      -0.012  11.194  19.802  0.00  0.00    +0.000 A 
ATOM      3  N   UNL     1      -0.340  10.364  18.829  0.00  0.00    +0.000 NA
ATOM      4  C   UNL     1      -1.659  10.612  18.583  0.00  0.00    +0.000 A 
ATOM      5  C   UNL     1      -2.556   9.919  17.755  0.00  0.00    +0.000 A 
ATOM      6  N   UNL     1      -3.853  10.306  17.664  0.00  0.00    +0.000 NA
ATOM      7  C   UNL     1      -4.228  11.437  18.295  0.00  0.00    +0.000 A 
ATOM      8  C   UNL     1      -3.383  12.246  19.044  0.00  0.00    +0.000 A 
ATOM      9  C   UNL     1      -2.099  11.735  19.284  0.00  0.00    +0.000 A 
ENDROOT
BRANCH   1  15
ATOM     10  C   UNL     1      -1.018  16.049  24.405  0.00  0.00    +0.000 C 
ATOM     11  C   UNL     1      -1.026  15.040  23.296  0.00  0.00    +0.000 A 
ATOM     12  C   UNL     1      -0.612  15.368  22.013  0.00  0.00    +0.000 A 
ATOM     13  C   UNL     1      -0.687  14.447  20.941  0.00  0.00    +0.000 A 
ATOM     14  C   UNL     1      -0.425  15.083  19.594  0.00  0.00    +0.000 C 
ATOM     15  C   UNL     1      -1.069  13.092  21.193  0.00  0.00    +0.000 A 
ATOM     16  C   UNL     1      -1.476  12.756  22.524  0.00  0.00    +0.000 A 
ATOM     17  C   UNL     1      -1.881  11.408  23.074  0.00  0.00    +0.000 C 
ATOM     18  C   UNL     1      -1.496  13.757  23.525  0.00  0.00    +0.000 A 
ENDBRANCH   1  15
BRANCH   2  19
ATOM     19  S   UNL     1       1.475  10.968  20.708  0.00  0.00    +0.000 S 
BRANCH  19  20
ATOM     20  C   UNL     1       1.068   9.703  21.945  0.00  0.00    +0.000 C 
BRANCH  20  21
ATOM     21  C   UNL     1       0.899   8.381  21.239  0.00  0.00    +0.000 C 
ATOM     22  O   UNL     1      -0.195   7.828  21.172  0.00  0.00    +0.000 OA
ATOM     23  N   UNL     1       2.073   7.825  20.723  0.00  0.00    +0.000 N 
ATOM     24  H   UNL     1       2.963   8.172  21.065  0.00  0.00    +0.000 HD
BRANCH  23  25
ATOM     25  C   UNL     1       2.084   6.558  20.076  0.00  0.00    +0.000 A 
ATOM     26  C   UNL     1       1.799   5.390  20.789  0.00  0.00    +0.000 A 
ATOM     27  C   UNL     1       2.003   4.133  20.238  0.00  0.00    +0.000 A 
ATOM     28  C   UNL     1       2.429   4.035  18.916  0.00  0.00    +0.000 A 
ATOM     29  C   UNL     1       2.610   5.189  18.136  0.00  0.00    +0.000 A 
ATOM     30  C   UNL     1       2.426   6.452  18.718  0.00  0.00    +0.000 A 
ATOM     31 CL   UNL     1       2.695   7.857  17.747  0.00  0.00    +0.000 Cl
BRANCH  28  32
ATOM     32  N   UNL     1       2.711   2.709  18.360  0.00  0.00    +0.000 N 
ATOM     33  O   UNL     1       2.232   2.429  17.252  0.00  0.00    +0.000 OA
ATOM     34  O   UNL     1       3.410   1.943  19.035  0.00  0.00    +0.000 OA
ENDBRANCH  28  32
ENDBRANCH  23  25
ENDBRANCH  20  21
ENDBRANCH  19  20
ENDBRANCH   2  19
TORSDOF 6
ENDMDL
MODEL 7
REMARK VINA RESULT:      -7.5      0.814      1.814
REMARK  Name = 
REMARK  9 active torsions:
REMARK  status: ('A' for Active; 'I' for Inactive)
REMARK    1  A    between atoms: C_1  and  C_2
REMARK    2  A    between atoms: C_4  and  C_5
REMARK    3  A    between atoms: C_6  and  N_7
REMARK    4  A    between atoms: C_8  and  S_9
REMARK    5  A    between atoms: S_9  and  C_10
REMARK    6  A    between atoms: C_10  and  C_11
REMARK    7  A    between atoms: N_13  and  C_14
REMARK    8  A    between atoms: C_17  and  N_18
REMARK    9  A    between atoms: C_31  and  C_32
REMARK                            x       y       z     vdW  Elec       q    Type
REMARK                         _______ _______ _______ _____ _____    ______ ____
ROOT
ATOM      1  N   UNL     1      -1.350  13.053  21.188  0.00  0.00    +0.000 N 
ATOM      2  C   UNL     1      -0.965  12.425  22.381  0.00  0.00    +0.000 A 
ATOM      3  N   UNL     1      -0.476  13.263  23.277  0.00  0.00    +0.000 NA
ATOM      4  C   UNL     1      -0.407  14.465  22.636  0.00  0.00    +0.000 A 
ATOM      5  C   UNL     1       0.174  15.669  23.063  0.00  0.00    +0.000 A 
ATOM      6  N   UNL     1       0.168  16.762  22.260  0.00  0.00    +0.000 NA
ATOM      7  C   UNL     1      -0.509  16.697  21.096  0.00  0.00    +0.000 A 
ATOM      8  C   UNL     1      -1.207  15.583  20.645  0.00  0.00    +0.000 A 
ATOM      9  C   UNL     1      -1.033  14.408  21.391  0.00  0.00    +0.000 A 
ENDROOT
BRANCH   1  15
ATOM     10  C   UNL     1      -3.366  10.514  16.351  0.00  0.00    +0.000 C 
ATOM     11  C   UNL     1      -2.860  11.176  17.598  0.00  0.00    +0.000 A 
ATOM     12  C   UNL     1      -3.720  11.565  18.614  0.00  0.00    +0.000 A 
ATOM     13  C   UNL     1      -3.264  12.259  19.761  0.00  0.00    +0.000 A 
ATOM     14  C   UNL     1      -4.390  12.803  20.611  0.00  0.00    +0.000 C 
ATOM     15  C   UNL     1      -1.862  12.454  19.962  0.00  0.00    +0.000 A 
ATOM     16  C   UNL     1      -0.978  12.031  18.917  0.00  0.00    +0.000 A 
ATOM     17  C   UNL     1       0.532  12.075  18.886  0.00  0.00    +0.000 C 
ATOM     18  C   UNL     1      -1.510  11.456  17.740  0.00  0.00    +0.000 A 
ENDBRANCH   1  15
BRANCH   2  19
ATOM     19  S   UNL     1      -0.869  10.690  22.631  0.00  0.00    +0.000 S 
BRANCH  19  20
ATOM     20  C   UNL     1       0.808  10.245  22.097  0.00  0.00    +0.000 C 
BRANCH  20  21
ATOM     21  C   UNL     1       0.707   9.125  21.091  0.00  0.00    +0.000 C 
ATOM     22  O   UNL     1      -0.326   8.925  20.459  0.00  0.00    +0.000 OA
ATOM     23  N   UNL     1       1.844   8.321  20.977  0.00  0.00    +0.000 N 
ATOM     24  H   UNL     1       2.534   8.350  21.721  0.00  0.00    +0.000 HD
BRANCH  23  25
ATOM     25  C   UNL     1       1.885   7.194  20.109  0.00  0.00    +0.000 A 
ATOM     26  C   UNL     1       1.603   5.913  20.590  0.00  0.00    +0.000 A 
ATOM     27  C   UNL     1       1.834   4.780  19.823  0.00  0.00    +0.000 A 
ATOM     28  C   UNL     1       2.286   4.930  18.514  0.00  0.00    +0.000 A 
ATOM     29  C   UNL     1       2.466   6.209  17.963  0.00  0.00    +0.000 A 
ATOM     30  C   UNL     1       2.254   7.342  18.762  0.00  0.00    +0.000 A 
ATOM     31 CL   UNL     1       2.522   8.904  18.071  0.00  0.00    +0.000 Cl
BRANCH  28  32
ATOM     32  N   UNL     1       2.596   3.731  17.731  0.00  0.00    +0.000 N 
ATOM     33  O   UNL     1       3.627   3.736  17.044  0.00  0.00    +0.000 OA
ATOM     34  O   UNL     1       1.805   2.782  17.800  0.00  0.00    +0.000 OA
ENDBRANCH  28  32
ENDBRANCH  23  25
ENDBRANCH  20  21
ENDBRANCH  19  20
ENDBRANCH   2  19
TORSDOF 6
ENDMDL
MODEL 8
REMARK VINA RESULT:      -7.4      3.695      9.443
REMARK  Name = 
REMARK  9 active torsions:
REMARK  status: ('A' for Active; 'I' for Inactive)
REMARK    1  A    between atoms: C_1  and  C_2
REMARK    2  A    between atoms: C_4  and  C_5
REMARK    3  A    between atoms: C_6  and  N_7
REMARK    4  A    between atoms: C_8  and  S_9
REMARK    5  A    between atoms: S_9  and  C_10
REMARK    6  A    between atoms: C_10  and  C_11
REMARK    7  A    between atoms: N_13  and  C_14
REMARK    8  A    between atoms: C_17  and  N_18
REMARK    9  A    between atoms: C_31  and  C_32
REMARK                            x       y       z     vdW  Elec       q    Type
REMARK                         _______ _______ _______ _____ _____    ______ ____
ROOT
ATOM      1  N   UNL     1       3.665   5.421  18.534  0.00  0.00    +0.000 N 
ATOM      2  C   UNL     1       2.824   6.496  18.853  0.00  0.00    +0.000 A 
ATOM      3  N   UNL     1       2.197   6.343  20.004  0.00  0.00    +0.000 NA
ATOM      4  C   UNL     1       2.518   5.083  20.417  0.00  0.00    +0.000 A 
ATOM      5  C   UNL     1       2.012   4.345  21.499  0.00  0.00    +0.000 A 
ATOM      6  N   UNL     1       2.442   3.080  21.732  0.00  0.00    +0.000 NA
ATOM      7  C   UNL     1       3.445   2.594  20.974  0.00  0.00    +0.000 A 
ATOM      8  C   UNL     1       4.081   3.295  19.956  0.00  0.00    +0.000 A 
ATOM      9  C   UNL     1       3.502   4.523  19.604  0.00  0.00    +0.000 A 
ENDROOT
BRANCH   1  15
ATOM     10  C   UNL     1       6.938   4.483  13.810  0.00  0.00    +0.000 C 
ATOM     11  C   UNL     1       6.084   4.717  15.019  0.00  0.00    +0.000 A 
ATOM     12  C   UNL     1       5.047   3.859  15.354  0.00  0.00    +0.000 A 
ATOM     13  C   UNL     1       4.185   4.111  16.448  0.00  0.00    +0.000 A 
ATOM     14  C   UNL     1       2.983   3.194  16.481  0.00  0.00    +0.000 C 
ATOM     15  C   UNL     1       4.457   5.205  17.330  0.00  0.00    +0.000 A 
ATOM     16  C   UNL     1       5.542   6.075  16.988  0.00  0.00    +0.000 A 
ATOM     17  C   UNL     1       6.071   7.265  17.755  0.00  0.00    +0.000 C 
ATOM     18  C   UNL     1       6.288   5.837  15.810  0.00  0.00    +0.000 A 
ENDBRANCH   1  15
BRANCH   2  19
ATOM     19  S   UNL     1       2.397   7.810  17.768  0.00  0.00    +0.000 S 
BRANCH  19  20
ATOM     20  C   UNL     1       2.234   9.259  18.849  0.00  0.00    +0.000 C 
BRANCH  20  21
ATOM     21  C   UNL     1       0.767   9.528  19.069  0.00  0.00    +0.000 C 
ATOM     22  O   UNL     1       0.195   9.154  20.089  0.00  0.00    +0.000 OA
ATOM     23  N   UNL     1       0.115  10.177  18.018  0.00  0.00    +0.000 N 
ATOM     24  H   UNL     1       0.559  10.189  17.106  0.00  0.00    +0.000 HD
BRANCH  23  25
ATOM     25  C   UNL     1      -1.281  10.455  18.054  0.00  0.00    +0.000 A 
ATOM     26  C   UNL     1      -2.187   9.646  17.364  0.00  0.00    +0.000 A 
ATOM     27  C   UNL     1      -3.518  10.008  17.213  0.00  0.00    +0.000 A 
ATOM     28  C   UNL     1      -3.977  11.168  17.832  0.00  0.00    +0.000 A 
ATOM     29  C   UNL     1      -3.118  11.940  18.631  0.00  0.00    +0.000 A 
ATOM     30  C   UNL     1      -1.769  11.574  18.749  0.00  0.00    +0.000 A 
ATOM     31 CL   UNL     1      -0.724  12.564  19.706  0.00  0.00    +0.000 Cl
BRANCH  28  32
ATOM     32  N   UNL     1      -5.364  11.584  17.612  0.00  0.00    +0.000 N 
ATOM     33  O   UNL     1      -5.569  12.570  16.889  0.00  0.00    +0.000 OA
ATOM     34  O   UNL     1      -6.254  10.927  18.166  0.00  0.00    +0.000 OA
ENDBRANCH  28  32
ENDBRANCH  23  25
ENDBRANCH  20  21
ENDBRANCH  19  20
ENDBRANCH   2  19
TORSDOF 6
ENDMDL
MODEL 9
REMARK VINA RESULT:      -7.4      3.649      9.459
REMARK  Name = 
REMARK  9 active torsions:
REMARK  status: ('A' for Active; 'I' for Inactive)
REMARK    1  A    between atoms: C_1  and  C_2
REMARK    2  A    between atoms: C_4  and  C_5
REMARK    3  A    between atoms: C_6  and  N_7
REMARK    4  A    between atoms: C_8  and  S_9
REMARK    5  A    between atoms: S_9  and  C_10
REMARK    6  A    between atoms: C_10  and  C_11
REMARK    7  A    between atoms: N_13  and  C_14
REMARK    8  A    between atoms: C_17  and  N_18
REMARK    9  A    between atoms: C_31  and  C_32
REMARK                            x       y       z     vdW  Elec       q    Type
REMARK                         _______ _______ _______ _____ _____    ______ ____
ROOT
ATOM      1  N   UNL     1       3.688   5.325  18.545  0.00  0.00    +0.000 N 
ATOM      2  C   UNL     1       2.834   6.404  18.820  0.00  0.00    +0.000 A 
ATOM      3  N   UNL     1       2.173   6.268  19.955  0.00  0.00    +0.000 NA
ATOM      4  C   UNL     1       2.484   5.017  20.398  0.00  0.00    +0.000 A 
ATOM      5  C   UNL     1       1.946   4.295  21.476  0.00  0.00    +0.000 A 
ATOM      6  N   UNL     1       2.371   3.035  21.744  0.00  0.00    +0.000 NA
ATOM      7  C   UNL     1       3.398   2.540  21.025  0.00  0.00    +0.000 A 
ATOM      8  C   UNL     1       4.063   3.225  20.015  0.00  0.00    +0.000 A 
ATOM      9  C   UNL     1       3.494   4.445  19.625  0.00  0.00    +0.000 A 
ENDROOT
BRANCH   1  15
ATOM     10  C   UNL     1       6.894   4.470  13.761  0.00  0.00    +0.000 C 
ATOM     11  C   UNL     1       6.081   4.696  15.000  0.00  0.00    +0.000 A 
ATOM     12  C   UNL     1       6.361   5.736  15.873  0.00  0.00    +0.000 A 
ATOM     13  C   UNL     1       5.651   5.914  17.084  0.00  0.00    +0.000 A 
ATOM     14  C   UNL     1       6.278   6.945  17.995  0.00  0.00    +0.000 C 
ATOM     15  C   UNL     1       4.516   5.091  17.370  0.00  0.00    +0.000 A 
ATOM     16  C   UNL     1       4.221   4.031  16.453  0.00  0.00    +0.000 A 
ATOM     17  C   UNL     1       3.070   3.051  16.485  0.00  0.00    +0.000 C 
ATOM     18  C   UNL     1       5.048   3.830  15.323  0.00  0.00    +0.000 A 
ENDBRANCH   1  15
BRANCH   2  19
ATOM     19  S   UNL     1       2.439   7.698  17.701  0.00  0.00    +0.000 S 
BRANCH  19  20
ATOM     20  C   UNL     1       2.362   9.187  18.736  0.00  0.00    +0.000 C 
BRANCH  20  21
ATOM     21  C   UNL     1       0.914   9.491  19.029  0.00  0.00    +0.000 C 
ATOM     22  O   UNL     1       0.382   9.121  20.071  0.00  0.00    +0.000 OA
ATOM     23  N   UNL     1       0.230  10.169  18.016  0.00  0.00    +0.000 N 
ATOM     24  H   UNL     1       0.630  10.178  17.084  0.00  0.00    +0.000 HD
BRANCH  23  25
ATOM     25  C   UNL     1      -1.155  10.481  18.123  0.00  0.00    +0.000 A 
ATOM     26  C   UNL     1      -2.109   9.739  17.421  0.00  0.00    +0.000 A 
ATOM     27  C   UNL     1      -3.434  10.146  17.343  0.00  0.00    +0.000 A 
ATOM     28  C   UNL     1      -3.836  11.279  18.046  0.00  0.00    +0.000 A 
ATOM     29  C   UNL     1      -2.926  11.978  18.855  0.00  0.00    +0.000 A 
ATOM     30  C   UNL     1      -1.585  11.569  18.900  0.00  0.00    +0.000 A 
ATOM     31 CL   UNL     1      -0.476  12.472  19.872  0.00  0.00    +0.000 Cl
BRANCH  28  32
ATOM     32  N   UNL     1      -5.217  11.745  17.905  0.00  0.00    +0.000 N 
ATOM     33  O   UNL     1      -5.496  12.452  16.926  0.00  0.00    +0.000 OA
ATOM     34  O   UNL     1      -6.028  11.406  18.777  0.00  0.00    +0.000 OA
ENDBRANCH  28  32
ENDBRANCH  23  25
ENDBRANCH  20  21
ENDBRANCH  19  20
ENDBRANCH   2  19
TORSDOF 6
ENDMDL
