MODEL 1
REMARK VINA RESULT:      -7.4      0.000      0.000
REMARK  Name = 
REMARK  7 active torsions:
REMARK  status: ('A' for Active; 'I' for Inactive)
REMARK    1  A    between atoms: C_1  and  C_2
REMARK    2  A    between atoms: C_2  and  C_3
REMARK    3  A    between atoms: C_2  and  N_10
REMARK    4  A    between atoms: C_3  and  C_4
REMARK    5  A    between atoms: N_13  and  C_14
REMARK    6  A    between atoms: N_16  and  C_17
REMARK    7  A    between atoms: N_16  and  C_18
REMARK                            x       y       z     vdW  Elec       q    Type
REMARK                         _______ _______ _______ _____ _____    ______ ____
ROOT
ATOM      1  N   UNL     1       4.771   6.668  17.416  0.00  0.00    +0.000 N 
ATOM      2  C   UNL     1       5.039   5.732  16.450  0.00  0.00    +0.000 A 
ATOM      3  C   UNL     1       6.434   5.866  16.039  0.00  0.00    +0.000 A 
ATOM      4  N   UNL     1       7.186   5.271  15.192  0.00  0.00    +0.000 NA
ATOM      5  O   UNL     1       6.929   6.890  16.813  0.00  0.00    +0.000 OA
ATOM      6  N   UNL     1       5.878   7.353  17.654  0.00  0.00    +0.000 NA
ENDROOT
BRANCH   4   7
ATOM      7  C   UNL     1       6.647   4.270  14.432  0.00  0.00    +0.000 C 
ATOM      8  O   UNL     1       5.945   3.385  14.908  0.00  0.00    +0.000 OA
ATOM      9  N   UNL     1       6.937   4.318  13.084  0.00  0.00    +0.000 N 
ATOM     10  C   UNL     1       7.749   5.353  12.462  0.00  0.00    +0.000 C 
ATOM     11  C   UNL     1       6.384   3.310  12.194  0.00  0.00    +0.000 C 
ENDBRANCH   4   7
BRANCH   1  13
ATOM     12  C   UNL     1       2.886   8.169  17.898  0.00  0.00    +0.000 C 
ATOM     13  C   UNL     1       3.482   6.775  18.127  0.00  0.00    +0.000 C 
BRANCH  13  14
ATOM     14  C   UNL     1       2.541   5.638  17.671  0.00  0.00    +0.000 C 
BRANCH  14  15
ATOM     15  C   UNL     1       2.085   4.786  18.827  0.00  0.00    +0.000 A 
ATOM     16  C   UNL     1       2.460   5.120  20.136  0.00  0.00    +0.000 A 
ATOM     17  C   UNL     1       2.142   4.276  21.198  0.00  0.00    +0.000 A 
ATOM     18  C   UNL     1       1.427   3.104  20.967  0.00  0.00    +0.000 A 
ATOM     19  C   UNL     1       1.019   2.779  19.675  0.00  0.00    +0.000 A 
ATOM     20  C   UNL     1       1.347   3.614  18.606  0.00  0.00    +0.000 A 
ENDBRANCH  14  15
ENDBRANCH  13  14
ENDBRANCH   1  13
TORSDOF 4
ENDMDL
MODEL 2
REMARK VINA RESULT:      -7.3      2.847      4.884
REMARK  Name = 
REMARK  7 active torsions:
REMARK  status: ('A' for Active; 'I' for Inactive)
REMARK    1  A    between atoms: C_1  and  C_2
REMARK    2  A    between atoms: C_2  and  C_3
REMARK    3  A    between atoms: C_2  and  N_10
REMARK    4  A    between atoms: C_3  and  C_4
REMARK    5  A    between atoms: N_13  and  C_14
REMARK    6  A    between atoms: N_16  and  C_17
REMARK    7  A    between atoms: N_16  and  C_18
REMARK                            x       y       z     vdW  Elec       q    Type
REMARK                         _______ _______ _______ _____ _____    ______ ____
ROOT
ATOM      1  N   UNL     1       3.115   4.485  19.324  0.00  0.00    +0.000 N 
ATOM      2  C   UNL     1       4.346   5.088  19.389  0.00  0.00    +0.000 A 
ATOM      3  C   UNL     1       5.341   4.188  18.811  0.00  0.00    +0.000 A 
ATOM      4  N   UNL     1       6.607   4.241  18.628  0.00  0.00    +0.000 NA
ATOM      5  O   UNL     1       4.625   3.083  18.414  0.00  0.00    +0.000 OA
ATOM      6  N   UNL     1       3.256   3.307  18.739  0.00  0.00    +0.000 NA
ENDROOT
BRANCH   4   7
ATOM      7  C   UNL     1       7.281   5.352  19.053  0.00  0.00    +0.000 C 
ATOM      8  O   UNL     1       7.675   5.484  20.206  0.00  0.00    +0.000 OA
ATOM      9  N   UNL     1       7.497   6.324  18.098  0.00  0.00    +0.000 N 
ATOM     10  C   UNL     1       7.067   6.214  16.712  0.00  0.00    +0.000 C 
ATOM     11  C   UNL     1       8.229   7.528  18.453  0.00  0.00    +0.000 C 
ENDBRANCH   4   7
BRANCH   1  13
ATOM     12  C   UNL     1       0.973   4.114  20.468  0.00  0.00    +0.000 C 
ATOM     13  C   UNL     1       1.856   5.134  19.739  0.00  0.00    +0.000 C 
BRANCH  13  14
ATOM     14  C   UNL     1       2.171   6.378  20.599  0.00  0.00    +0.000 C 
BRANCH  14  15
ATOM     15  C   UNL     1       1.881   7.660  19.862  0.00  0.00    +0.000 A 
ATOM     16  C   UNL     1       1.138   8.674  20.484  0.00  0.00    +0.000 A 
ATOM     17  C   UNL     1       0.766   9.812  19.772  0.00  0.00    +0.000 A 
ATOM     18  C   UNL     1       1.152   9.961  18.442  0.00  0.00    +0.000 A 
ATOM     19  C   UNL     1       1.920   8.976  17.826  0.00  0.00    +0.000 A 
ATOM     20  C   UNL     1       2.284   7.827  18.529  0.00  0.00    +0.000 A 
ENDBRANCH  14  15
ENDBRANCH  13  14
ENDBRANCH   1  13
TORSDOF 4
ENDMDL
MODEL 3
REMARK VINA RESULT:      -7.3      2.569      6.692
REMARK  Name = 
REMARK  7 active torsions:
REMARK  status: ('A' for Active; 'I' for Inactive)
REMARK    1  A    between atoms: C_1  and  C_2
REMARK    2  A    between atoms: C_2  and  C_3
REMARK    3  A    between atoms: C_2  and  N_10
REMARK    4  A    between atoms: C_3  and  C_4
REMARK    5  A    between atoms: N_13  and  C_14
REMARK    6  A    between atoms: N_16  and  C_17
REMARK    7  A    between atoms: N_16  and  C_18
REMARK                            x       y       z     vdW  Elec       q    Type
REMARK                         _______ _______ _______ _____ _____    ______ ____
ROOT
ATOM      1  N   UNL     1       5.999   5.092  17.889  0.00  0.00    +0.000 N 
ATOM      2  C   UNL     1       4.918   4.250  17.960  0.00  0.00    +0.000 A 
ATOM      3  C   UNL     1       4.839   3.700  19.311  0.00  0.00    +0.000 A 
ATOM      4  N   UNL     1       4.056   2.883  19.908  0.00  0.00    +0.000 NA
ATOM      5  O   UNL     1       5.894   4.272  19.983  0.00  0.00    +0.000 OA
ATOM      6  N   UNL     1       6.581   5.129  19.077  0.00  0.00    +0.000 NA
ENDROOT
BRANCH   4   7
ATOM      7  C   UNL     1       3.029   2.327  19.195  0.00  0.00    +0.000 C 
ATOM      8  O   UNL     1       3.205   1.438  18.369  0.00  0.00    +0.000 OA
ATOM      9  N   UNL     1       1.771   2.825  19.467  0.00  0.00    +0.000 N 
ATOM     10  C   UNL     1       1.502   3.865  20.448  0.00  0.00    +0.000 C 
ATOM     11  C   UNL     1       0.617   2.274  18.777  0.00  0.00    +0.000 C 
ENDBRANCH   4   7
BRANCH   1  13
ATOM     12  C   UNL     1       6.739   7.310  17.133  0.00  0.00    +0.000 C 
ATOM     13  C   UNL     1       6.344   5.893  16.698  0.00  0.00    +0.000 C 
BRANCH  13  14
ATOM     14  C   UNL     1       7.454   5.181  15.895  0.00  0.00    +0.000 C 
BRANCH  14  15
ATOM     15  C   UNL     1       6.975   4.749  14.533  0.00  0.00    +0.000 A 
ATOM     16  C   UNL     1       5.809   3.982  14.410  0.00  0.00    +0.000 A 
ATOM     17  C   UNL     1       5.422   3.481  13.169  0.00  0.00    +0.000 A 
ATOM     18  C   UNL     1       6.183   3.759  12.036  0.00  0.00    +0.000 A 
ATOM     19  C   UNL     1       7.325   4.550  12.141  0.00  0.00    +0.000 A 
ATOM     20  C   UNL     1       7.724   5.043  13.384  0.00  0.00    +0.000 A 
ENDBRANCH  14  15
ENDBRANCH  13  14
ENDBRANCH   1  13
TORSDOF 4
ENDMDL
MODEL 4
REMARK VINA RESULT:      -7.2      1.994      2.851
REMARK  Name = 
REMARK  7 active torsions:
REMARK  status: ('A' for Active; 'I' for Inactive)
REMARK    1  A    between atoms: C_1  and  C_2
REMARK    2  A    between atoms: C_2  and  C_3
REMARK    3  A    between atoms: C_2  and  N_10
REMARK    4  A    between atoms: C_3  and  C_4
REMARK    5  A    between atoms: N_13  and  C_14
REMARK    6  A    between atoms: N_16  and  C_17
REMARK    7  A    between atoms: N_16  and  C_18
REMARK                            x       y       z     vdW  Elec       q    Type
REMARK                         _______ _______ _______ _____ _____    ______ ____
ROOT
ATOM      1  N   UNL     1       6.431   5.037  15.983  0.00  0.00    +0.000 N 
ATOM      2  C   UNL     1       5.998   4.283  14.922  0.00  0.00    +0.000 A 
ATOM      3  C   UNL     1       6.835   4.580  13.762  0.00  0.00    +0.000 A 
ATOM      4  N   UNL     1       6.867   4.180  12.547  0.00  0.00    +0.000 NA
ATOM      5  O   UNL     1       7.746   5.505  14.216  0.00  0.00    +0.000 OA
ATOM      6  N   UNL     1       7.472   5.754  15.591  0.00  0.00    +0.000 NA
ENDROOT
BRANCH   4   7
ATOM      7  C   UNL     1       5.930   3.272  12.135  0.00  0.00    +0.000 C 
ATOM      8  O   UNL     1       4.728   3.439  12.311  0.00  0.00    +0.000 OA
ATOM      9  N   UNL     1       6.421   2.150  11.499  0.00  0.00    +0.000 N 
ATOM     10  C   UNL     1       7.834   1.909  11.248  0.00  0.00    +0.000 C 
ATOM     11  C   UNL     1       5.497   1.145  11.003  0.00  0.00    +0.000 C 
ENDBRANCH   4   7
BRANCH   1  13
ATOM     12  C   UNL     1       6.795   5.675  18.327  0.00  0.00    +0.000 C 
ATOM     13  C   UNL     1       5.875   4.938  17.347  0.00  0.00    +0.000 C 
BRANCH  13  14
ATOM     14  C   UNL     1       4.428   5.479  17.359  0.00  0.00    +0.000 C 
BRANCH  14  15
ATOM     15  C   UNL     1       3.424   4.395  17.653  0.00  0.00    +0.000 A 
ATOM     16  C   UNL     1       2.123   4.733  18.051  0.00  0.00    +0.000 A 
ATOM     17  C   UNL     1       1.224   3.741  18.436  0.00  0.00    +0.000 A 
ATOM     18  C   UNL     1       1.606   2.403  18.405  0.00  0.00    +0.000 A 
ATOM     19  C   UNL     1       2.885   2.053  17.977  0.00  0.00    +0.000 A 
ATOM     20  C   UNL     1       3.794   3.043  17.603  0.00  0.00    +0.000 A 
ENDBRANCH  14  15
ENDBRANCH  13  14
ENDBRANCH   1  13
TORSDOF 4
ENDMDL
MODEL 5
REMARK VINA RESULT:      -7.1      2.123      6.720
REMARK  Name = 
REMARK  7 active torsions:
REMARK  status: ('A' for Active; 'I' for Inactive)
REMARK    1  A    between atoms: C_1  and  C_2
REMARK    2  A    between atoms: C_2  and  C_3
REMARK    3  A    between atoms: C_2  and  N_10
REMARK    4  A    between atoms: C_3  and  C_4
REMARK    5  A    between atoms: N_13  and  C_14
REMARK    6  A    between atoms: N_16  and  C_17
REMARK    7  A    between atoms: N_16  and  C_18
REMARK                            x       y       z     vdW  Elec       q    Type
REMARK                         _______ _______ _______ _____ _____    ______ ____
ROOT
ATOM      1  N   UNL     1       5.143   6.343  17.183  0.00  0.00    +0.000 N 
ATOM      2  C   UNL     1       4.285   5.301  17.431  0.00  0.00    +0.000 A 
ATOM      3  C   UNL     1       2.989   5.843  17.831  0.00  0.00    +0.000 A 
ATOM      4  N   UNL     1       1.866   5.335  18.173  0.00  0.00    +0.000 NA
ATOM      5  O   UNL     1       3.152   7.208  17.783  0.00  0.00    +0.000 OA
ATOM      6  N   UNL     1       4.488   7.477  17.372  0.00  0.00    +0.000 NA
ENDROOT
BRANCH   4   7
ATOM      7  C   UNL     1       1.755   3.972  18.223  0.00  0.00    +0.000 C 
ATOM      8  O   UNL     1       1.802   3.269  17.219  0.00  0.00    +0.000 OA
ATOM      9  N   UNL     1       1.591   3.429  19.481  0.00  0.00    +0.000 N 
ATOM     10  C   UNL     1       1.547   4.213  20.706  0.00  0.00    +0.000 C 
ATOM     11  C   UNL     1       1.493   1.988  19.633  0.00  0.00    +0.000 C 
ENDBRANCH   4   7
BRANCH   1  13
ATOM     12  C   UNL     1       7.517   6.611  17.755  0.00  0.00    +0.000 C 
ATOM     13  C   UNL     1       6.518   6.177  16.675  0.00  0.00    +0.000 C 
BRANCH  13  14
ATOM     14  C   UNL     1       6.730   4.718  16.214  0.00  0.00    +0.000 C 
BRANCH  14  15
ATOM     15  C   UNL     1       6.749   4.598  14.712  0.00  0.00    +0.000 A 
ATOM     16  C   UNL     1       5.870   3.717  14.068  0.00  0.00    +0.000 A 
ATOM     17  C   UNL     1       5.958   3.514  12.692  0.00  0.00    +0.000 A 
ATOM     18  C   UNL     1       6.908   4.205  11.944  0.00  0.00    +0.000 A 
ATOM     19  C   UNL     1       7.764   5.110  12.570  0.00  0.00    +0.000 A 
ATOM     20  C   UNL     1       7.689   5.307  13.949  0.00  0.00    +0.000 A 
ENDBRANCH  14  15
ENDBRANCH  13  14
ENDBRANCH   1  13
TORSDOF 4
ENDMDL
MODEL 6
REMARK VINA RESULT:      -7.1      2.577      6.689
REMARK  Name = 
REMARK  7 active torsions:
REMARK  status: ('A' for Active; 'I' for Inactive)
REMARK    1  A    between atoms: C_1  and  C_2
REMARK    2  A    between atoms: C_2  and  C_3
REMARK    3  A    between atoms: C_2  and  N_10
REMARK    4  A    between atoms: C_3  and  C_4
REMARK    5  A    between atoms: N_13  and  C_14
REMARK    6  A    between atoms: N_16  and  C_17
REMARK    7  A    between atoms: N_16  and  C_18
REMARK                            x       y       z     vdW  Elec       q    Type
REMARK                         _______ _______ _______ _____ _____    ______ ____
ROOT
ATOM      1  N   UNL     1       5.942   5.056  17.873  0.00  0.00    +0.000 N 
ATOM      2  C   UNL     1       4.865   4.212  17.962  0.00  0.00    +0.000 A 
ATOM      3  C   UNL     1       4.806   3.663  19.314  0.00  0.00    +0.000 A 
ATOM      4  N   UNL     1       4.034   2.845  19.924  0.00  0.00    +0.000 NA
ATOM      5  O   UNL     1       5.870   4.238  19.970  0.00  0.00    +0.000 OA
ATOM      6  N   UNL     1       6.541   5.096  19.052  0.00  0.00    +0.000 NA
ENDROOT
BRANCH   4   7
ATOM      7  C   UNL     1       2.998   2.285  19.227  0.00  0.00    +0.000 C 
ATOM      8  O   UNL     1       3.163   1.388  18.408  0.00  0.00    +0.000 OA
ATOM      9  N   UNL     1       1.745   2.790  19.507  0.00  0.00    +0.000 N 
ATOM     10  C   UNL     1       1.489   3.840  20.480  0.00  0.00    +0.000 C 
ATOM     11  C   UNL     1       0.582   2.236  18.834  0.00  0.00    +0.000 C 
ENDBRANCH   4   7
BRANCH   1  13
ATOM     12  C   UNL     1       6.520   7.311  17.090  0.00  0.00    +0.000 C 
ATOM     13  C   UNL     1       6.267   5.857  16.677  0.00  0.00    +0.000 C 
BRANCH  13  14
ATOM     14  C   UNL     1       7.467   5.224  15.938  0.00  0.00    +0.000 C 
BRANCH  14  15
ATOM     15  C   UNL     1       7.081   4.703  14.578  0.00  0.00    +0.000 A 
ATOM     16  C   UNL     1       7.794   5.112  13.442  0.00  0.00    +0.000 A 
ATOM     17  C   UNL     1       7.373   4.728  12.170  0.00  0.00    +0.000 A 
ATOM     18  C   UNL     1       6.253   3.915  12.022  0.00  0.00    +0.000 A 
ATOM     19  C   UNL     1       5.558   3.474  13.146  0.00  0.00    +0.000 A 
ATOM     20  C   UNL     1       5.966   3.867  14.421  0.00  0.00    +0.000 A 
ENDBRANCH  14  15
ENDBRANCH  13  14
ENDBRANCH   1  13
TORSDOF 4
ENDMDL
MODEL 7
REMARK VINA RESULT:      -7.1      1.467      1.805
REMARK  Name = 
REMARK  7 active torsions:
REMARK  status: ('A' for Active; 'I' for Inactive)
REMARK    1  A    between atoms: C_1  and  C_2
REMARK    2  A    between atoms: C_2  and  C_3
REMARK    3  A    between atoms: C_2  and  N_10
REMARK    4  A    between atoms: C_3  and  C_4
REMARK    5  A    between atoms: N_13  and  C_14
REMARK    6  A    between atoms: N_16  and  C_17
REMARK    7  A    between atoms: N_16  and  C_18
REMARK                            x       y       z     vdW  Elec       q    Type
REMARK                         _______ _______ _______ _____ _____    ______ ____
ROOT
ATOM      1  N   UNL     1       4.364   6.012  18.469  0.00  0.00    +0.000 N 
ATOM      2  C   UNL     1       5.010   5.775  17.283  0.00  0.00    +0.000 A 
ATOM      3  C   UNL     1       6.262   5.076  17.560  0.00  0.00    +0.000 A 
ATOM      4  N   UNL     1       7.226   4.632  16.844  0.00  0.00    +0.000 NA
ATOM      5  O   UNL     1       6.282   4.923  18.927  0.00  0.00    +0.000 OA
ATOM      6  N   UNL     1       5.092   5.504  19.451  0.00  0.00    +0.000 NA
ENDROOT
BRANCH   4   7
ATOM      7  C   UNL     1       7.172   4.822  15.490  0.00  0.00    +0.000 C 
ATOM      8  O   UNL     1       7.800   5.708  14.923  0.00  0.00    +0.000 OA
ATOM      9  N   UNL     1       6.365   3.945  14.794  0.00  0.00    +0.000 N 
ATOM     10  C   UNL     1       5.612   2.865  15.412  0.00  0.00    +0.000 C 
ATOM     11  C   UNL     1       6.269   4.054  13.348  0.00  0.00    +0.000 C 
ENDBRANCH   4   7
BRANCH   1  13
ATOM     12  C   UNL     1       3.026   7.974  17.842  0.00  0.00    +0.000 C 
ATOM     13  C   UNL     1       3.026   6.626  18.572  0.00  0.00    +0.000 C 
BRANCH  13  14
ATOM     14  C   UNL     1       1.962   5.648  18.027  0.00  0.00    +0.000 C 
BRANCH  14  15
ATOM     15  C   UNL     1       1.754   4.472  18.946  0.00  0.00    +0.000 A 
ATOM     16  C   UNL     1       1.577   4.679  20.321  0.00  0.00    +0.000 A 
ATOM     17  C   UNL     1       1.500   3.594  21.193  0.00  0.00    +0.000 A 
ATOM     18  C   UNL     1       1.575   2.295  20.698  0.00  0.00    +0.000 A 
ATOM     19  C   UNL     1       1.715   2.078  19.329  0.00  0.00    +0.000 A 
ATOM     20  C   UNL     1       1.806   3.160  18.453  0.00  0.00    +0.000 A 
ENDBRANCH  14  15
ENDBRANCH  13  14
ENDBRANCH   1  13
TORSDOF 4
ENDMDL
MODEL 8
REMARK VINA RESULT:      -7.0      2.202      6.895
REMARK  Name = 
REMARK  7 active torsions:
REMARK  status: ('A' for Active; 'I' for Inactive)
REMARK    1  A    between atoms: C_1  and  C_2
REMARK    2  A    between atoms: C_2  and  C_3
REMARK    3  A    between atoms: C_2  and  N_10
REMARK    4  A    between atoms: C_3  and  C_4
REMARK    5  A    between atoms: N_13  and  C_14
REMARK    6  A    between atoms: N_16  and  C_17
REMARK    7  A    between atoms: N_16  and  C_18
REMARK                            x       y       z     vdW  Elec       q    Type
REMARK                         _______ _______ _______ _____ _____    ______ ____
ROOT
ATOM      1  N   UNL     1       5.213   5.854  17.186  0.00  0.00    +0.000 N 
ATOM      2  C   UNL     1       4.217   5.010  17.606  0.00  0.00    +0.000 A 
ATOM      3  C   UNL     1       3.051   5.807  17.980  0.00  0.00    +0.000 A 
ATOM      4  N   UNL     1       1.884   5.541  18.432  0.00  0.00    +0.000 NA
ATOM      5  O   UNL     1       3.427   7.108  17.741  0.00  0.00    +0.000 OA
ATOM      6  N   UNL     1       4.762   7.096  17.245  0.00  0.00    +0.000 NA
ENDROOT
BRANCH   4   7
ATOM      7  C   UNL     1       1.560   4.233  18.671  0.00  0.00    +0.000 C 
ATOM      8  O   UNL     1       1.187   3.474  17.784  0.00  0.00    +0.000 OA
ATOM      9  N   UNL     1       1.683   3.815  19.980  0.00  0.00    +0.000 N 
ATOM     10  C   UNL     1       2.136   4.667  21.068  0.00  0.00    +0.000 C 
ATOM     11  C   UNL     1       1.386   2.434  20.322  0.00  0.00    +0.000 C 
ENDBRANCH   4   7
BRANCH   1  13
ATOM     12  C   UNL     1       7.523   5.285  17.797  0.00  0.00    +0.000 C 
ATOM     13  C   UNL     1       6.510   5.397  16.651  0.00  0.00    +0.000 C 
BRANCH  13  14
ATOM     14  C   UNL     1       6.320   4.069  15.886  0.00  0.00    +0.000 C 
BRANCH  14  15
ATOM     15  C   UNL     1       6.686   4.199  14.430  0.00  0.00    +0.000 A 
ATOM     16  C   UNL     1       7.608   5.173  14.023  0.00  0.00    +0.000 A 
ATOM     17  C   UNL     1       7.865   5.378  12.669  0.00  0.00    +0.000 A 
ATOM     18  C   UNL     1       7.223   4.599  11.711  0.00  0.00    +0.000 A 
ATOM     19  C   UNL     1       6.330   3.604  12.106  0.00  0.00    +0.000 A 
ATOM     20  C   UNL     1       6.059   3.404  13.460  0.00  0.00    +0.000 A 
ENDBRANCH  14  15
ENDBRANCH  13  14
ENDBRANCH   1  13
TORSDOF 4
ENDMDL
MODEL 9
REMARK VINA RESULT:      -7.0      2.654      4.883
REMARK  Name = 
REMARK  7 active torsions:
REMARK  status: ('A' for Active; 'I' for Inactive)
REMARK    1  A    between atoms: C_1  and  C_2
REMARK    2  A    between atoms: C_2  and  C_3
REMARK    3  A    between atoms: C_2  and  N_10
REMARK    4  A    between atoms: C_3  and  C_4
REMARK    5  A    between atoms: N_13  and  C_14
REMARK    6  A    between atoms: N_16  and  C_17
REMARK    7  A    between atoms: N_16  and  C_18
REMARK                            x       y       z     vdW  Elec       q    Type
REMARK                         _______ _______ _______ _____ _____    ______ ____
ROOT
ATOM      1  N   UNL     1       3.180   4.590  19.445  0.00  0.00    +0.000 N 
ATOM      2  C   UNL     1       4.372   5.252  19.296  0.00  0.00    +0.000 A 
ATOM      3  C   UNL     1       5.394   4.295  18.880  0.00  0.00    +0.000 A 
ATOM      4  N   UNL     1       6.643   4.369  18.613  0.00  0.00    +0.000 NA
ATOM      5  O   UNL     1       4.731   3.093  18.791  0.00  0.00    +0.000 OA
ATOM      6  N   UNL     1       3.368   3.316  19.138  0.00  0.00    +0.000 NA
ENDROOT
BRANCH   4   7
ATOM      7  C   UNL     1       7.265   5.582  18.731  0.00  0.00    +0.000 C 
ATOM      8  O   UNL     1       7.846   5.928  19.753  0.00  0.00    +0.000 OA
ATOM      9  N   UNL     1       7.202   6.398  17.620  0.00  0.00    +0.000 N 
ATOM     10  C   UNL     1       6.542   6.031  16.376  0.00  0.00    +0.000 C 
ATOM     11  C   UNL     1       7.858   7.694  17.645  0.00  0.00    +0.000 C 
ENDBRANCH   4   7
BRANCH   1  13
ATOM     12  C   UNL     1       0.987   4.258  20.500  0.00  0.00    +0.000 C 
ATOM     13  C   UNL     1       1.904   5.252  19.776  0.00  0.00    +0.000 C 
BRANCH  13  14
ATOM     14  C   UNL     1       2.178   6.528  20.602  0.00  0.00    +0.000 C 
BRANCH  14  15
ATOM     15  C   UNL     1       1.772   7.776  19.863  0.00  0.00    +0.000 A 
ATOM     16  C   UNL     1       2.162   7.960  18.529  0.00  0.00    +0.000 A 
ATOM     17  C   UNL     1       1.892   9.160  17.875  0.00  0.00    +0.000 A 
ATOM     18  C   UNL     1       1.209  10.177  18.537  0.00  0.00    +0.000 A 
ATOM     19  C   UNL     1       0.786   9.992  19.851  0.00  0.00    +0.000 A 
ATOM     20  C   UNL     1       1.066   8.797  20.516  0.00  0.00    +0.000 A 
ENDBRANCH  14  15
ENDBRANCH  13  14
ENDBRANCH   1  13
TORSDOF 4
ENDMDL
