MODEL 1
REMARK VINA RESULT:      -7.0      0.000      0.000
REMARK  Name = 
REMARK  21 active torsions:
REMARK  status: ('A' for Active; 'I' for Inactive)
REMARK    1  A    between atoms: C_1  and  C_2
REMARK    2  A    between atoms: C_2  and  N_3
REMARK    3  A    between atoms: N_3  and  C_4
REMARK    4  A    between atoms: C_4  and  C_5
REMARK    5  A    between atoms: N_7  and  CA_8
REMARK    6  A    between atoms: CA_8  and  CB_9
REMARK    7  A    between atoms: CA_8  and  C_13
REMARK    8  A    between atoms: CB_9  and  CG_10
REMARK    9  A    between atoms: CG_10  and  OD2_12
REMARK   10  A    between atoms: N_15  and  CA_16
REMARK   11  A    between atoms: CA_16  and  C_17
REMARK   12  A    between atoms: CA_16  and  CB_20
REMARK   13  A    between atoms: C_17  and  OXT_19
REMARK   14  A    between atoms: CB_20  and  CG1_21
REMARK   15  A    between atoms: CB_20  and  CG2_22
REMARK   16  A    between atoms: C_23  and  C_25
REMARK   17  A    between atoms: C_25  and  C_26
REMARK   18  A    between atoms: C_26  and  C_27
REMARK   19  A    between atoms: C_27  and  C_28
REMARK   20  A    between atoms: C_28  and  C_29
REMARK   21  A    between atoms: C_29  and  N_30
REMARK                            x       y       z     vdW  Elec       q    Type
REMARK                         _______ _______ _______ _____ _____    ______ ____
ROOT
ATOM      1  C   UNK A   0       2.072   6.158  20.261  0.00  0.00    +0.000 C 
ATOM      2  O   UNK A   0       0.965   5.630  20.355  0.00  0.00    +0.000 OA
ATOM      3  N   ASP A   1       2.233   7.516  20.345  0.00  0.00    +0.000 N 
ATOM      4  H   ASP A   1       3.070   7.898  19.913  0.00  0.00    +0.000 HD
ENDROOT
BRANCH   3   5
ATOM      5  CA  ASP A   1       1.111   8.441  20.619  0.00  0.00    +0.000 C 
BRANCH   5   6
ATOM      6  C   ASP A   1       1.001   9.521  19.508  0.00  0.00    +0.000 C 
ATOM      7  O   ASP A   1       0.936   9.235  18.316  0.00  0.00    +0.000 OA
ATOM      8  N   VAL A   2       1.079  10.833  19.952  0.00  0.00    +0.000 N 
ATOM      9  H   VAL A   2       1.107  10.995  20.955  0.00  0.00    +0.000 HD
BRANCH   8  10
ATOM     10  CA  VAL A   2       0.903  12.000  19.067  0.00  0.00    +0.000 C 
BRANCH  10  11
ATOM     11  CB  VAL A   2       0.362  13.246  19.830  0.00  0.00    +0.000 C 
ATOM     12  CG1 VAL A   2      -0.583  14.090  18.972  0.00  0.00    +0.000 C 
ATOM     13  CG2 VAL A   2      -0.332  12.911  21.160  0.00  0.00    +0.000 C 
ENDBRANCH  10  11
BRANCH  10  14
ATOM     14  C   VAL A   2       2.234  12.403  18.394  0.00  0.00    +0.000 C 
ATOM     15  O   VAL A   2       3.046  13.180  18.875  0.00  0.00    +0.000 OA
BRANCH  14  16
ATOM     16  OXT VAL A   2       2.506  11.659  17.288  0.00  0.00    +0.000 OA
ATOM     17  HXT VAL A   2       1.664  11.465  16.819  0.00  0.00    +0.000 HD
ENDBRANCH  14  16
ENDBRANCH  10  14
ENDBRANCH   8  10
ENDBRANCH   5   6
BRANCH   5  18
ATOM     18  CB  ASP A   1       1.329   9.026  22.016  0.00  0.00    +0.000 C 
BRANCH  18  19
ATOM     19  CG  ASP A   1       0.099   9.347  22.818  0.00  0.00    +0.000 C 
ATOM     20  OD1 ASP A   1      -0.064  10.265  23.601  0.00  0.00    +0.000 OA
BRANCH  19  21
ATOM     21  OD2 ASP A   1      -0.877   8.448  22.592  0.00  0.00    +0.000 OA
ATOM     22  HD2 ASP A   1      -1.647   8.945  22.244  0.00  0.00    +0.000 HD
ENDBRANCH  19  21
ENDBRANCH  18  19
ENDBRANCH   5  18
ENDBRANCH   3   5
BRANCH   1  23
ATOM     23  C   UNK A   0       3.348   5.305  20.075  0.00  0.00    +0.000 C 
BRANCH  23  24
ATOM     24  N   UNK A   0       3.234   3.860  19.788  0.00  0.00    +0.000 N 
ATOM     25  C   UNK A   0       3.130   3.309  18.510  0.00  0.00    +0.000 C 
ATOM     26  O   UNK A   0       2.949   2.100  18.349  0.00  0.00    +0.000 OA
BRANCH  24  28
ATOM     27  C   UNK A   0       1.441   2.654  21.030  0.00  0.00    +0.000 C 
ATOM     28  C   UNK A   0       2.927   2.953  20.899  0.00  0.00    +0.000 C 
ENDBRANCH  24  28
BRANCH  25  29
ATOM     29  C   UNK A   0       3.216   4.247  17.323  0.00  0.00    +0.000 C 
BRANCH  29  30
ATOM     30  C   UNK A   0       4.655   4.363  16.821  0.00  0.00    +0.000 C 
BRANCH  30  31
ATOM     31  C   UNK A   0       4.894   5.691  16.115  0.00  0.00    +0.000 C 
BRANCH  31  32
ATOM     32  C   UNK A   0       5.432   6.737  17.089  0.00  0.00    +0.000 C 
BRANCH  32  33
ATOM     33  C   UNK A   0       6.957   6.750  17.064  0.00  0.00    +0.000 C 
BRANCH  33  34
ATOM     34  N   UNK A   0       7.452   6.675  18.435  0.00  0.00    +0.000 NA
ATOM     35  C   UNK A   0       7.834   5.526  18.856  0.00  0.00    +0.000 C 
ATOM     36  N   UNK A   0       7.837   4.342  18.212  0.00  0.00    +0.000 N 
ATOM     37  N   UNK A   0       8.356   5.424  20.096  0.00  0.00    +0.000 N 
ATOM     38  H   UNK A   0       7.287   4.288  17.364  0.00  0.00    +0.000 HD
ATOM     39  H   UNK A   0       7.807   3.505  18.768  0.00  0.00    +0.000 HD
ATOM     40  H   UNK A   0       8.224   6.288  20.613  0.00  0.00    +0.000 HD
ATOM     41  H   UNK A   0       8.097   4.610  20.631  0.00  0.00    +0.000 HD
ENDBRANCH  33  34
ENDBRANCH  32  33
ENDBRANCH  31  32
ENDBRANCH  30  31
ENDBRANCH  29  30
ENDBRANCH  25  29
ENDBRANCH  23  24
ENDBRANCH   1  23
TORSDOF 18
ENDMDL
MODEL 2
REMARK VINA RESULT:      -6.7      4.536      9.111
REMARK  Name = 
REMARK  21 active torsions:
REMARK  status: ('A' for Active; 'I' for Inactive)
REMARK    1  A    between atoms: C_1  and  C_2
REMARK    2  A    between atoms: C_2  and  N_3
REMARK    3  A    between atoms: N_3  and  C_4
REMARK    4  A    between atoms: C_4  and  C_5
REMARK    5  A    between atoms: N_7  and  CA_8
REMARK    6  A    between atoms: CA_8  and  CB_9
REMARK    7  A    between atoms: CA_8  and  C_13
REMARK    8  A    between atoms: CB_9  and  CG_10
REMARK    9  A    between atoms: CG_10  and  OD2_12
REMARK   10  A    between atoms: N_15  and  CA_16
REMARK   11  A    between atoms: CA_16  and  C_17
REMARK   12  A    between atoms: CA_16  and  CB_20
REMARK   13  A    between atoms: C_17  and  OXT_19
REMARK   14  A    between atoms: CB_20  and  CG1_21
REMARK   15  A    between atoms: CB_20  and  CG2_22
REMARK   16  A    between atoms: C_23  and  C_25
REMARK   17  A    between atoms: C_25  and  C_26
REMARK   18  A    between atoms: C_26  and  C_27
REMARK   19  A    between atoms: C_27  and  C_28
REMARK   20  A    between atoms: C_28  and  C_29
REMARK   21  A    between atoms: C_29  and  N_30
REMARK                            x       y       z     vdW  Elec       q    Type
REMARK                         _______ _______ _______ _____ _____    ______ ____
ROOT
ATOM      1  C   UNK A   0       1.817   8.355  19.184  0.00  0.00    +0.000 C 
ATOM      2  O   UNK A   0       1.466   8.498  20.354  0.00  0.00    +0.000 OA
ATOM      3  N   ASP A   1       2.584   7.291  18.786  0.00  0.00    +0.000 N 
ATOM      4  H   ASP A   1       3.122   7.418  17.933  0.00  0.00    +0.000 HD
ENDROOT
BRANCH   3   5
ATOM      5  CA  ASP A   1       2.991   6.207  19.706  0.00  0.00    +0.000 C 
BRANCH   5   6
ATOM      6  C   ASP A   1       4.343   5.582  19.262  0.00  0.00    +0.000 C 
ATOM      7  O   ASP A   1       4.957   4.777  19.957  0.00  0.00    +0.000 OA
ATOM      8  N   VAL A   2       4.854   6.072  18.069  0.00  0.00    +0.000 N 
ATOM      9  H   VAL A   2       4.279   6.718  17.535  0.00  0.00    +0.000 HD
BRANCH   8  10
ATOM     10  CA  VAL A   2       6.074   5.542  17.433  0.00  0.00    +0.000 C 
BRANCH  10  11
ATOM     11  CB  VAL A   2       6.028   5.652  15.879  0.00  0.00    +0.000 C 
ATOM     12  CG1 VAL A   2       5.886   4.286  15.202  0.00  0.00    +0.000 C 
ATOM     13  CG2 VAL A   2       4.929   6.589  15.352  0.00  0.00    +0.000 C 
ENDBRANCH  10  11
BRANCH  10  14
ATOM     14  C   VAL A   2       7.335   6.291  17.917  0.00  0.00    +0.000 C 
ATOM     15  O   VAL A   2       7.953   6.020  18.936  0.00  0.00    +0.000 OA
BRANCH  14  16
ATOM     16  OXT VAL A   2       7.805   7.173  16.993  0.00  0.00    +0.000 OA
ATOM     17  HXT VAL A   2       8.426   6.704  16.393  0.00  0.00    +0.000 HD
ENDBRANCH  14  16
ENDBRANCH  10  14
ENDBRANCH   8  10
ENDBRANCH   5   6
BRANCH   5  18
ATOM     18  CB  ASP A   1       1.844   5.196  19.762  0.00  0.00    +0.000 C 
BRANCH  18  19
ATOM     19  CG  ASP A   1       1.841   4.113  18.721  0.00  0.00    +0.000 C 
ATOM     20  OD1 ASP A   1       2.116   2.936  18.867  0.00  0.00    +0.000 OA
BRANCH  19  21
ATOM     21  OD2 ASP A   1       1.502   4.600  17.513  0.00  0.00    +0.000 OA
ATOM     22  HD2 ASP A   1       2.302   4.543  16.948  0.00  0.00    +0.000 HD
ENDBRANCH  19  21
ENDBRANCH  18  19
ENDBRANCH   5  18
ENDBRANCH   3   5
BRANCH   1  23
ATOM     23  C   UNK A   0       1.378   9.358  18.092  0.00  0.00    +0.000 C 
BRANCH  23  24
ATOM     24  N   UNK A   0       0.807  10.665  18.478  0.00  0.00    +0.000 N 
ATOM     25  C   UNK A   0      -0.543  11.005  18.372  0.00  0.00    +0.000 C 
ATOM     26  O   UNK A   0      -0.936  12.144  18.630  0.00  0.00    +0.000 OA
BRANCH  24  28
ATOM     27  C   UNK A   0       1.794  12.182  20.191  0.00  0.00    +0.000 C 
ATOM     28  C   UNK A   0       1.726  11.780  18.725  0.00  0.00    +0.000 C 
ENDBRANCH  24  28
BRANCH  25  29
ATOM     29  C   UNK A   0      -1.509   9.937  17.898  0.00  0.00    +0.000 C 
BRANCH  29  30
ATOM     30  C   UNK A   0      -2.915  10.511  17.725  0.00  0.00    +0.000 C 
BRANCH  30  31
ATOM     31  C   UNK A   0      -3.193  10.878  16.273  0.00  0.00    +0.000 C 
BRANCH  31  32
ATOM     32  C   UNK A   0      -3.020   9.665  15.362  0.00  0.00    +0.000 C 
BRANCH  32  33
ATOM     33  C   UNK A   0      -3.145  10.078  13.899  0.00  0.00    +0.000 C 
BRANCH  33  34
ATOM     34  N   UNK A   0      -4.479   9.728  13.423  0.00  0.00    +0.000 NA
ATOM     35  C   UNK A   0      -4.671   9.750  12.156  0.00  0.00    +0.000 C 
ATOM     36  N   UNK A   0      -3.808  10.067  11.171  0.00  0.00    +0.000 N 
ATOM     37  N   UNK A   0      -5.872   9.372  11.670  0.00  0.00    +0.000 N 
ATOM     38  H   UNK A   0      -2.962  10.546  11.448  0.00  0.00    +0.000 HD
ATOM     39  H   UNK A   0      -4.191  10.393  10.299  0.00  0.00    +0.000 HD
ATOM     40  H   UNK A   0      -6.546   9.267  12.421  0.00  0.00    +0.000 HD
ATOM     41  H   UNK A   0      -6.235   9.907  10.897  0.00  0.00    +0.000 HD
ENDBRANCH  33  34
ENDBRANCH  32  33
ENDBRANCH  31  32
ENDBRANCH  30  31
ENDBRANCH  29  30
ENDBRANCH  25  29
ENDBRANCH  23  24
ENDBRANCH   1  23
TORSDOF 18
ENDMDL
MODEL 3
REMARK VINA RESULT:      -6.7      3.939     10.021
REMARK  Name = 
REMARK  21 active torsions:
REMARK  status: ('A' for Active; 'I' for Inactive)
REMARK    1  A    between atoms: C_1  and  C_2
REMARK    2  A    between atoms: C_2  and  N_3
REMARK    3  A    between atoms: N_3  and  C_4
REMARK    4  A    between atoms: C_4  and  C_5
REMARK    5  A    between atoms: N_7  and  CA_8
REMARK    6  A    between atoms: CA_8  and  CB_9
REMARK    7  A    between atoms: CA_8  and  C_13
REMARK    8  A    between atoms: CB_9  and  CG_10
REMARK    9  A    between atoms: CG_10  and  OD2_12
REMARK   10  A    between atoms: N_15  and  CA_16
REMARK   11  A    between atoms: CA_16  and  C_17
REMARK   12  A    between atoms: CA_16  and  CB_20
REMARK   13  A    between atoms: C_17  and  OXT_19
REMARK   14  A    between atoms: CB_20  and  CG1_21
REMARK   15  A    between atoms: CB_20  and  CG2_22
REMARK   16  A    between atoms: C_23  and  C_25
REMARK   17  A    between atoms: C_25  and  C_26
REMARK   18  A    between atoms: C_26  and  C_27
REMARK   19  A    between atoms: C_27  and  C_28
REMARK   20  A    between atoms: C_28  and  C_29
REMARK   21  A    between atoms: C_29  and  N_30
REMARK                            x       y       z     vdW  Elec       q    Type
REMARK                         _______ _______ _______ _____ _____    ______ ____
ROOT
ATOM      1  C   UNK A   0       1.546   8.658  18.406  0.00  0.00    +0.000 C 
ATOM      2  O   UNK A   0       1.268   8.726  17.210  0.00  0.00    +0.000 OA
ATOM      3  N   ASP A   1       2.404   7.708  18.894  0.00  0.00    +0.000 N 
ATOM      4  H   ASP A   1       2.310   7.479  19.880  0.00  0.00    +0.000 HD
ENDROOT
BRANCH   3   5
ATOM      5  CA  ASP A   1       3.110   6.741  18.024  0.00  0.00    +0.000 C 
BRANCH   5   6
ATOM      6  C   ASP A   1       3.546   5.487  18.830  0.00  0.00    +0.000 C 
ATOM      7  O   ASP A   1       4.494   5.503  19.611  0.00  0.00    +0.000 OA
ATOM      8  N   VAL A   2       2.852   4.324  18.532  0.00  0.00    +0.000 N 
ATOM      9  H   VAL A   2       2.064   4.391  17.894  0.00  0.00    +0.000 HD
BRANCH   8  10
ATOM     10  CA  VAL A   2       3.054   3.053  19.252  0.00  0.00    +0.000 C 
BRANCH  10  11
ATOM     11  CB  VAL A   2       1.906   2.757  20.264  0.00  0.00    +0.000 C 
ATOM     12  CG1 VAL A   2       2.407   2.682  21.708  0.00  0.00    +0.000 C 
ATOM     13  CG2 VAL A   2       0.736   3.751  20.189  0.00  0.00    +0.000 C 
ENDBRANCH  10  11
BRANCH  10  14
ATOM     14  C   VAL A   2       3.138   1.858  18.277  0.00  0.00    +0.000 C 
ATOM     15  O   VAL A   2       3.911   0.919  18.396  0.00  0.00    +0.000 OA
BRANCH  14  16
ATOM     16  OXT VAL A   2       2.127   1.857  17.364  0.00  0.00    +0.000 OA
ATOM     17  HXT VAL A   2       1.482   1.157  17.604  0.00  0.00    +0.000 HD
ENDBRANCH  14  16
ENDBRANCH  10  14
ENDBRANCH   8  10
ENDBRANCH   5   6
BRANCH   5  18
ATOM     18  CB  ASP A   1       4.279   7.480  17.370  0.00  0.00    +0.000 C 
BRANCH  18  19
ATOM     19  CG  ASP A   1       5.200   6.665  16.507  0.00  0.00    +0.000 C 
ATOM     20  OD1 ASP A   1       4.906   5.767  15.740  0.00  0.00    +0.000 OA
BRANCH  19  21
ATOM     21  OD2 ASP A   1       6.484   7.029  16.686  0.00  0.00    +0.000 OA
ATOM     22  HD2 ASP A   1       6.915   6.996  15.805  0.00  0.00    +0.000 HD
ENDBRANCH  19  21
ENDBRANCH  18  19
ENDBRANCH   5  18
ENDBRANCH   3   5
BRANCH   1  23
ATOM     23  C   UNK A   0       0.961   9.669  19.419  0.00  0.00    +0.000 C 
BRANCH  23  24
ATOM     24  N   UNK A   0       0.595  11.030  18.974  0.00  0.00    +0.000 N 
ATOM     25  C   UNK A   0      -0.631  11.378  18.407  0.00  0.00    +0.000 C 
ATOM     26  O   UNK A   0      -0.836  12.515  17.977  0.00  0.00    +0.000 OA
BRANCH  24  28
ATOM     27  C   UNK A   0       1.846  12.864  20.108  0.00  0.00    +0.000 C 
ATOM     28  C   UNK A   0       1.660  12.031  18.849  0.00  0.00    +0.000 C 
ENDBRANCH  24  28
BRANCH  25  29
ATOM     29  C   UNK A   0      -1.698  10.305  18.307  0.00  0.00    +0.000 C 
BRANCH  29  30
ATOM     30  C   UNK A   0      -2.742  10.670  17.251  0.00  0.00    +0.000 C 
BRANCH  30  31
ATOM     31  C   UNK A   0      -4.157  10.513  17.790  0.00  0.00    +0.000 C 
BRANCH  31  32
ATOM     32  C   UNK A   0      -5.001  11.745  17.470  0.00  0.00    +0.000 C 
BRANCH  32  33
ATOM     33  C   UNK A   0      -6.264  11.760  18.326  0.00  0.00    +0.000 C 
BRANCH  33  34
ATOM     34  N   UNK A   0      -6.760  10.394  18.457  0.00  0.00    +0.000 NA
ATOM     35  C   UNK A   0      -7.113  10.010  19.627  0.00  0.00    +0.000 C 
ATOM     36  N   UNK A   0      -7.083  10.690  20.790  0.00  0.00    +0.000 N 
ATOM     37  N   UNK A   0      -7.637   8.775  19.781  0.00  0.00    +0.000 N 
ATOM     38  H   UNK A   0      -6.530  11.537  20.804  0.00  0.00    +0.000 HD
ATOM     39  H   UNK A   0      -7.033  10.159  21.644  0.00  0.00    +0.000 HD
ATOM     40  H   UNK A   0      -7.529   8.232  18.930  0.00  0.00    +0.000 HD
ATOM     41  H   UNK A   0      -7.358   8.265  20.604  0.00  0.00    +0.000 HD
ENDBRANCH  33  34
ENDBRANCH  32  33
ENDBRANCH  31  32
ENDBRANCH  30  31
ENDBRANCH  29  30
ENDBRANCH  25  29
ENDBRANCH  23  24
ENDBRANCH   1  23
TORSDOF 18
ENDMDL
MODEL 4
REMARK VINA RESULT:      -6.5      1.950      3.684
REMARK  Name = 
REMARK  21 active torsions:
REMARK  status: ('A' for Active; 'I' for Inactive)
REMARK    1  A    between atoms: C_1  and  C_2
REMARK    2  A    between atoms: C_2  and  N_3
REMARK    3  A    between atoms: N_3  and  C_4
REMARK    4  A    between atoms: C_4  and  C_5
REMARK    5  A    between atoms: N_7  and  CA_8
REMARK    6  A    between atoms: CA_8  and  CB_9
REMARK    7  A    between atoms: CA_8  and  C_13
REMARK    8  A    between atoms: CB_9  and  CG_10
REMARK    9  A    between atoms: CG_10  and  OD2_12
REMARK   10  A    between atoms: N_15  and  CA_16
REMARK   11  A    between atoms: CA_16  and  C_17
REMARK   12  A    between atoms: CA_16  and  CB_20
REMARK   13  A    between atoms: C_17  and  OXT_19
REMARK   14  A    between atoms: CB_20  and  CG1_21
REMARK   15  A    between atoms: CB_20  and  CG2_22
REMARK   16  A    between atoms: C_23  and  C_25
REMARK   17  A    between atoms: C_25  and  C_26
REMARK   18  A    between atoms: C_26  and  C_27
REMARK   19  A    between atoms: C_27  and  C_28
REMARK   20  A    between atoms: C_28  and  C_29
REMARK   21  A    between atoms: C_29  and  N_30
REMARK                            x       y       z     vdW  Elec       q    Type
REMARK                         _______ _______ _______ _____ _____    ______ ____
ROOT
ATOM      1  C   UNK A   0       1.993   8.190  18.618  0.00  0.00    +0.000 C 
ATOM      2  O   UNK A   0       1.778   8.330  17.414  0.00  0.00    +0.000 OA
ATOM      3  N   ASP A   1       1.442   9.029  19.550  0.00  0.00    +0.000 N 
ATOM      4  H   ASP A   1       1.925   9.089  20.443  0.00  0.00    +0.000 HD
ENDROOT
BRANCH   3   5
ATOM      5  CA  ASP A   1       0.502  10.116  19.197  0.00  0.00    +0.000 C 
BRANCH   5   6
ATOM      6  C   ASP A   1       1.257  11.462  19.015  0.00  0.00    +0.000 C 
ATOM      7  O   ASP A   1       2.224  11.579  18.266  0.00  0.00    +0.000 OA
ATOM      8  N   VAL A   2       0.823  12.496  19.832  0.00  0.00    +0.000 N 
ATOM      9  H   VAL A   2       0.002  12.334  20.409  0.00  0.00    +0.000 HD
BRANCH   8  10
ATOM     10  CA  VAL A   2       1.348  13.871  19.745  0.00  0.00    +0.000 C 
BRANCH  10  11
ATOM     11  CB  VAL A   2       0.237  14.943  19.953  0.00  0.00    +0.000 C 
ATOM     12  CG1 VAL A   2       0.001  15.790  18.699  0.00  0.00    +0.000 C 
ATOM     13  CG2 VAL A   2      -1.107  14.366  20.429  0.00  0.00    +0.000 C 
ENDBRANCH  10  11
BRANCH  10  14
ATOM     14  C   VAL A   2       2.446  14.124  20.801  0.00  0.00    +0.000 C 
ATOM     15  O   VAL A   2       2.263  14.105  22.009  0.00  0.00    +0.000 OA
BRANCH  14  16
ATOM     16  OXT VAL A   2       3.691  14.186  20.255  0.00  0.00    +0.000 OA
ATOM     17  HXT VAL A   2       3.678  14.816  19.501  0.00  0.00    +0.000 HD
ENDBRANCH  14  16
ENDBRANCH  10  14
ENDBRANCH   8  10
ENDBRANCH   5   6
BRANCH   5  18
ATOM     18  CB  ASP A   1      -0.574  10.165  20.284  0.00  0.00    +0.000 C 
BRANCH  18  19
ATOM     19  CG  ASP A   1      -0.151   9.788  21.675  0.00  0.00    +0.000 C 
ATOM     20  OD1 ASP A   1       0.526  10.437  22.452  0.00  0.00    +0.000 OA
BRANCH  19  21
ATOM     21  OD2 ASP A   1      -0.603   8.565  22.007  0.00  0.00    +0.000 OA
ATOM     22  HD2 ASP A   1      -0.627   8.526  22.988  0.00  0.00    +0.000 HD
ENDBRANCH  19  21
ENDBRANCH  18  19
ENDBRANCH   5  18
ENDBRANCH   3   5
BRANCH   1  23
ATOM     23  C   UNK A   0       2.874   7.033  19.140  0.00  0.00    +0.000 C 
BRANCH  23  24
ATOM     24  N   UNK A   0       3.495   6.090  18.186  0.00  0.00    +0.000 N 
ATOM     25  C   UNK A   0       2.876   4.943  17.686  0.00  0.00    +0.000 C 
ATOM     26  O   UNK A   0       3.485   4.153  16.962  0.00  0.00    +0.000 OA
BRANCH  24  28
ATOM     27  C   UNK A   0       5.287   6.905  16.658  0.00  0.00    +0.000 C 
ATOM     28  C   UNK A   0       4.939   6.186  17.953  0.00  0.00    +0.000 C 
ENDBRANCH  24  28
BRANCH  25  29
ATOM     29  C   UNK A   0       1.438   4.679  18.087  0.00  0.00    +0.000 C 
BRANCH  29  30
ATOM     30  C   UNK A   0       1.187   3.182  18.271  0.00  0.00    +0.000 C 
BRANCH  30  31
ATOM     31  C   UNK A   0       0.544   2.887  19.619  0.00  0.00    +0.000 C 
BRANCH  31  32
ATOM     32  C   UNK A   0       1.383   3.459  20.760  0.00  0.00    +0.000 C 
BRANCH  32  33
ATOM     33  C   UNK A   0       2.528   2.512  21.103  0.00  0.00    +0.000 C 
BRANCH  33  34
ATOM     34  N   UNK A   0       3.784   3.115  20.668  0.00  0.00    +0.000 NA
ATOM     35  C   UNK A   0       4.379   2.570  19.672  0.00  0.00    +0.000 C 
ATOM     36  N   UNK A   0       4.018   1.489  18.954  0.00  0.00    +0.000 N 
ATOM     37  N   UNK A   0       5.511   3.134  19.199  0.00  0.00    +0.000 N 
ATOM     38  H   UNK A   0       3.303   0.897  19.356  0.00  0.00    +0.000 HD
ATOM     39  H   UNK A   0       4.743   0.981  18.474  0.00  0.00    +0.000 HD
ATOM     40  H   UNK A   0       5.839   3.860  19.827  0.00  0.00    +0.000 HD
ATOM     41  H   UNK A   0       6.245   2.504  18.917  0.00  0.00    +0.000 HD
ENDBRANCH  33  34
ENDBRANCH  32  33
ENDBRANCH  31  32
ENDBRANCH  30  31
ENDBRANCH  29  30
ENDBRANCH  25  29
ENDBRANCH  23  24
ENDBRANCH   1  23
TORSDOF 18
ENDMDL
MODEL 5
REMARK VINA RESULT:      -6.5      3.569      9.428
REMARK  Name = 
REMARK  21 active torsions:
REMARK  status: ('A' for Active; 'I' for Inactive)
REMARK    1  A    between atoms: C_1  and  C_2
REMARK    2  A    between atoms: C_2  and  N_3
REMARK    3  A    between atoms: N_3  and  C_4
REMARK    4  A    between atoms: C_4  and  C_5
REMARK    5  A    between atoms: N_7  and  CA_8
REMARK    6  A    between atoms: CA_8  and  CB_9
REMARK    7  A    between atoms: CA_8  and  C_13
REMARK    8  A    between atoms: CB_9  and  CG_10
REMARK    9  A    between atoms: CG_10  and  OD2_12
REMARK   10  A    between atoms: N_15  and  CA_16
REMARK   11  A    between atoms: CA_16  and  C_17
REMARK   12  A    between atoms: CA_16  and  CB_20
REMARK   13  A    between atoms: C_17  and  OXT_19
REMARK   14  A    between atoms: CB_20  and  CG1_21
REMARK   15  A    between atoms: CB_20  and  CG2_22
REMARK   16  A    between atoms: C_23  and  C_25
REMARK   17  A    between atoms: C_25  and  C_26
REMARK   18  A    between atoms: C_26  and  C_27
REMARK   19  A    between atoms: C_27  and  C_28
REMARK   20  A    between atoms: C_28  and  C_29
REMARK   21  A    between atoms: C_29  and  N_30
REMARK                            x       y       z     vdW  Elec       q    Type
REMARK                         _______ _______ _______ _____ _____    ______ ____
ROOT
ATOM      1  C   UNK A   0       1.787   6.478  20.609  0.00  0.00    +0.000 C 
ATOM      2  O   UNK A   0       0.793   5.803  20.871  0.00  0.00    +0.000 OA
ATOM      3  N   ASP A   1       2.937   5.912  20.124  0.00  0.00    +0.000 N 
ATOM      4  H   ASP A   1       3.794   6.438  20.271  0.00  0.00    +0.000 HD
ENDROOT
BRANCH   3   5
ATOM      5  CA  ASP A   1       3.053   4.469  19.817  0.00  0.00    +0.000 C 
BRANCH   5   6
ATOM      6  C   ASP A   1       4.492   4.118  19.347  0.00  0.00    +0.000 C 
ATOM      7  O   ASP A   1       5.050   3.070  19.663  0.00  0.00    +0.000 OA
ATOM      8  N   VAL A   2       5.137   5.114  18.629  0.00  0.00    +0.000 N 
ATOM      9  H   VAL A   2       4.604   5.944  18.384  0.00  0.00    +0.000 HD
BRANCH   8  10
ATOM     10  CA  VAL A   2       6.468   4.939  18.018  0.00  0.00    +0.000 C 
BRANCH  10  11
ATOM     11  CB  VAL A   2       6.516   5.449  16.547  0.00  0.00    +0.000 C 
ATOM     12  CG1 VAL A   2       6.762   4.317  15.545  0.00  0.00    +0.000 C 
ATOM     13  CG2 VAL A   2       5.267   6.236  16.117  0.00  0.00    +0.000 C 
ENDBRANCH  10  11
BRANCH  10  14
ATOM     14  C   VAL A   2       7.556   5.695  18.811  0.00  0.00    +0.000 C 
ATOM     15  O   VAL A   2       8.200   5.216  19.734  0.00  0.00    +0.000 OA
BRANCH  14  16
ATOM     16  OXT VAL A   2       7.866   6.899  18.256  0.00  0.00    +0.000 OA
ATOM     17  HXT VAL A   2       8.775   7.151  18.528  0.00  0.00    +0.000 HD
ENDBRANCH  14  16
ENDBRANCH  10  14
ENDBRANCH   8  10
ENDBRANCH   5   6
BRANCH   5  18
ATOM     18  CB  ASP A   1       1.977   4.132  18.782  0.00  0.00    +0.000 C 
BRANCH  18  19
ATOM     19  CG  ASP A   1       0.979   3.074  19.161  0.00  0.00    +0.000 C 
ATOM     20  OD1 ASP A   1       0.397   2.299  18.425  0.00  0.00    +0.000 OA
BRANCH  19  21
ATOM     21  OD2 ASP A   1       0.753   3.072  20.488  0.00  0.00    +0.000 OA
ATOM     22  HD2 ASP A   1       1.619   2.926  20.925  0.00  0.00    +0.000 HD
ENDBRANCH  19  21
ENDBRANCH  18  19
ENDBRANCH   5  18
ENDBRANCH   3   5
BRANCH   1  23
ATOM     23  C   UNK A   0       1.775   8.014  20.784  0.00  0.00    +0.000 C 
BRANCH  23  24
ATOM     24  N   UNK A   0       1.460   8.886  19.633  0.00  0.00    +0.000 N 
ATOM     25  C   UNK A   0       0.959  10.184  19.733  0.00  0.00    +0.000 C 
ATOM     26  O   UNK A   0       0.635  10.823  18.729  0.00  0.00    +0.000 OA
BRANCH  24  28
ATOM     27  C   UNK A   0       2.726   8.303  17.567  0.00  0.00    +0.000 C 
ATOM     28  C   UNK A   0       1.393   8.279  18.299  0.00  0.00    +0.000 C 
ENDBRANCH  24  28
BRANCH  25  29
ATOM     29  C   UNK A   0       0.795  10.778  21.118  0.00  0.00    +0.000 C 
BRANCH  29  30
ATOM     30  C   UNK A   0      -0.678  10.816  21.525  0.00  0.00    +0.000 C 
BRANCH  30  31
ATOM     31  C   UNK A   0      -1.048  12.152  22.155  0.00  0.00    +0.000 C 
BRANCH  31  32
ATOM     32  C   UNK A   0      -2.550  12.405  22.053  0.00  0.00    +0.000 C 
BRANCH  32  33
ATOM     33  C   UNK A   0      -3.180  12.426  23.442  0.00  0.00    +0.000 C 
BRANCH  33  34
ATOM     34  N   UNK A   0      -4.270  13.396  23.451  0.00  0.00    +0.000 NA
ATOM     35  C   UNK A   0      -5.314  13.095  24.130  0.00  0.00    +0.000 C 
ATOM     36  N   UNK A   0      -5.571  11.983  24.847  0.00  0.00    +0.000 N 
ATOM     37  N   UNK A   0      -6.320  13.992  24.216  0.00  0.00    +0.000 N 
ATOM     38  H   UNK A   0      -4.969  11.188  24.680  0.00  0.00    +0.000 HD
ATOM     39  H   UNK A   0      -6.534  11.736  25.002  0.00  0.00    +0.000 HD
ATOM     40  H   UNK A   0      -6.172  14.759  23.569  0.00  0.00    +0.000 HD
ATOM     41  H   UNK A   0      -7.257  13.625  24.174  0.00  0.00    +0.000 HD
ENDBRANCH  33  34
ENDBRANCH  32  33
ENDBRANCH  31  32
ENDBRANCH  30  31
ENDBRANCH  29  30
ENDBRANCH  25  29
ENDBRANCH  23  24
ENDBRANCH   1  23
TORSDOF 18
ENDMDL
MODEL 6
REMARK VINA RESULT:      -6.5      3.771      9.292
REMARK  Name = 
REMARK  21 active torsions:
REMARK  status: ('A' for Active; 'I' for Inactive)
REMARK    1  A    between atoms: C_1  and  C_2
REMARK    2  A    between atoms: C_2  and  N_3
REMARK    3  A    between atoms: N_3  and  C_4
REMARK    4  A    between atoms: C_4  and  C_5
REMARK    5  A    between atoms: N_7  and  CA_8
REMARK    6  A    between atoms: CA_8  and  CB_9
REMARK    7  A    between atoms: CA_8  and  C_13
REMARK    8  A    between atoms: CB_9  and  CG_10
REMARK    9  A    between atoms: CG_10  and  OD2_12
REMARK   10  A    between atoms: N_15  and  CA_16
REMARK   11  A    between atoms: CA_16  and  C_17
REMARK   12  A    between atoms: CA_16  and  CB_20
REMARK   13  A    between atoms: C_17  and  OXT_19
REMARK   14  A    between atoms: CB_20  and  CG1_21
REMARK   15  A    between atoms: CB_20  and  CG2_22
REMARK   16  A    between atoms: C_23  and  C_25
REMARK   17  A    between atoms: C_25  and  C_26
REMARK   18  A    between atoms: C_26  and  C_27
REMARK   19  A    between atoms: C_27  and  C_28
REMARK   20  A    between atoms: C_28  and  C_29
REMARK   21  A    between atoms: C_29  and  N_30
REMARK                            x       y       z     vdW  Elec       q    Type
REMARK                         _______ _______ _______ _____ _____    ______ ____
ROOT
ATOM      1  C   UNK A   0       2.062   6.929  20.031  0.00  0.00    +0.000 C 
ATOM      2  O   UNK A   0       1.386   6.447  20.939  0.00  0.00    +0.000 OA
ATOM      3  N   ASP A   1       2.966   6.177  19.328  0.00  0.00    +0.000 N 
ATOM      4  H   ASP A   1       3.716   6.688  18.870  0.00  0.00    +0.000 HD
ENDROOT
BRANCH   3   5
ATOM      5  CA  ASP A   1       3.153   4.727  19.555  0.00  0.00    +0.000 C 
BRANCH   5   6
ATOM      6  C   ASP A   1       4.468   4.229  18.896  0.00  0.00    +0.000 C 
ATOM      7  O   ASP A   1       5.219   3.428  19.447  0.00  0.00    +0.000 OA
ATOM      8  N   VAL A   2       4.784   4.827  17.685  0.00  0.00    +0.000 N 
ATOM      9  H   VAL A   2       4.104   5.463  17.277  0.00  0.00    +0.000 HD
BRANCH   8  10
ATOM     10  CA  VAL A   2       5.939   4.426  16.860  0.00  0.00    +0.000 C 
BRANCH  10  11
ATOM     11  CB  VAL A   2       5.799   4.891  15.380  0.00  0.00    +0.000 C 
ATOM     12  CG1 VAL A   2       5.232   6.308  15.265  0.00  0.00    +0.000 C 
ATOM     13  CG2 VAL A   2       7.105   4.807  14.573  0.00  0.00    +0.000 C 
ENDBRANCH  10  11
BRANCH  10  14
ATOM     14  C   VAL A   2       7.257   5.012  17.412  0.00  0.00    +0.000 C 
ATOM     15  O   VAL A   2       7.419   6.183  17.721  0.00  0.00    +0.000 OA
BRANCH  14  16
ATOM     16  OXT VAL A   2       8.175   4.049  17.702  0.00  0.00    +0.000 OA
ATOM     17  HXT VAL A   2       9.050   4.473  17.840  0.00  0.00    +0.000 HD
ENDBRANCH  14  16
ENDBRANCH  10  14
ENDBRANCH   8  10
ENDBRANCH   5   6
BRANCH   5  18
ATOM     18  CB  ASP A   1       1.903   4.015  19.032  0.00  0.00    +0.000 C 
BRANCH  18  19
ATOM     19  CG  ASP A   1       1.210   3.077  19.978  0.00  0.00    +0.000 C 
ATOM     20  OD1 ASP A   1       1.673   2.534  20.965  0.00  0.00    +0.000 OA
BRANCH  19  21
ATOM     21  OD2 ASP A   1      -0.062   2.854  19.598  0.00  0.00    +0.000 OA
ATOM     22  HD2 ASP A   1      -0.030   2.523  18.675  0.00  0.00    +0.000 HD
ENDBRANCH  19  21
ENDBRANCH  18  19
ENDBRANCH   5  18
ENDBRANCH   3   5
BRANCH   1  23
ATOM     23  C   UNK A   0       1.898   8.409  19.616  0.00  0.00    +0.000 C 
BRANCH  23  24
ATOM     24  N   UNK A   0       0.912   9.265  20.309  0.00  0.00    +0.000 N 
ATOM     25  C   UNK A   0       0.058  10.167  19.674  0.00  0.00    +0.000 C 
ATOM     26  O   UNK A   0      -0.679  10.914  20.323  0.00  0.00    +0.000 OA
BRANCH  24  28
ATOM     27  C   UNK A   0      -0.259   8.979  22.490  0.00  0.00    +0.000 C 
ATOM     28  C   UNK A   0       1.011   9.400  21.766  0.00  0.00    +0.000 C 
ENDBRANCH  24  28
BRANCH  25  29
ATOM     29  C   UNK A   0       0.084  10.225  18.159  0.00  0.00    +0.000 C 
BRANCH  29  30
ATOM     30  C   UNK A   0      -1.221   9.689  17.570  0.00  0.00    +0.000 C 
BRANCH  30  31
ATOM     31  C   UNK A   0      -2.216  10.810  17.305  0.00  0.00    +0.000 C 
BRANCH  31  32
ATOM     32  C   UNK A   0      -3.629  10.256  17.136  0.00  0.00    +0.000 C 
BRANCH  32  33
ATOM     33  C   UNK A   0      -4.608  11.021  18.021  0.00  0.00    +0.000 C 
BRANCH  33  34
ATOM     34  N   UNK A   0      -5.184  12.117  17.249  0.00  0.00    +0.000 NA
ATOM     35  C   UNK A   0      -6.426  12.373  17.434  0.00  0.00    +0.000 C 
ATOM     36  N   UNK A   0      -7.308  11.759  18.248  0.00  0.00    +0.000 N 
ATOM     37  N   UNK A   0      -6.982  13.418  16.787  0.00  0.00    +0.000 N 
ATOM     38  H   UNK A   0      -7.033  10.857  18.613  0.00  0.00    +0.000 HD
ATOM     39  H   UNK A   0      -8.285  11.821  18.013  0.00  0.00    +0.000 HD
ATOM     40  H   UNK A   0      -6.348  13.783  16.084  0.00  0.00    +0.000 HD
ATOM     41  H   UNK A   0      -7.917  13.286  16.433  0.00  0.00    +0.000 HD
ENDBRANCH  33  34
ENDBRANCH  32  33
ENDBRANCH  31  32
ENDBRANCH  30  31
ENDBRANCH  29  30
ENDBRANCH  25  29
ENDBRANCH  23  24
ENDBRANCH   1  23
TORSDOF 18
ENDMDL
MODEL 7
REMARK VINA RESULT:      -6.4      3.231      5.355
REMARK  Name = 
REMARK  21 active torsions:
REMARK  status: ('A' for Active; 'I' for Inactive)
REMARK    1  A    between atoms: C_1  and  C_2
REMARK    2  A    between atoms: C_2  and  N_3
REMARK    3  A    between atoms: N_3  and  C_4
REMARK    4  A    between atoms: C_4  and  C_5
REMARK    5  A    between atoms: N_7  and  CA_8
REMARK    6  A    between atoms: CA_8  and  CB_9
REMARK    7  A    between atoms: CA_8  and  C_13
REMARK    8  A    between atoms: CB_9  and  CG_10
REMARK    9  A    between atoms: CG_10  and  OD2_12
REMARK   10  A    between atoms: N_15  and  CA_16
REMARK   11  A    between atoms: CA_16  and  C_17
REMARK   12  A    between atoms: CA_16  and  CB_20
REMARK   13  A    between atoms: C_17  and  OXT_19
REMARK   14  A    between atoms: CB_20  and  CG1_21
REMARK   15  A    between atoms: CB_20  and  CG2_22
REMARK   16  A    between atoms: C_23  and  C_25
REMARK   17  A    between atoms: C_25  and  C_26
REMARK   18  A    between atoms: C_26  and  C_27
REMARK   19  A    between atoms: C_27  and  C_28
REMARK   20  A    between atoms: C_28  and  C_29
REMARK   21  A    between atoms: C_29  and  N_30
REMARK                            x       y       z     vdW  Elec       q    Type
REMARK                         _______ _______ _______ _____ _____    ______ ____
ROOT
ATOM      1  C   UNK A   0       4.182   5.110  18.270  0.00  0.00    +0.000 C 
ATOM      2  O   UNK A   0       3.575   5.370  17.232  0.00  0.00    +0.000 OA
ATOM      3  N   ASP A   1       3.602   5.258  19.502  0.00  0.00    +0.000 N 
ATOM      4  H   ASP A   1       4.236   5.377  20.287  0.00  0.00    +0.000 HD
ENDROOT
BRANCH   3   5
ATOM      5  CA  ASP A   1       2.193   5.674  19.680  0.00  0.00    +0.000 C 
BRANCH   5   6
ATOM      6  C   ASP A   1       2.081   7.220  19.778  0.00  0.00    +0.000 C 
ATOM      7  O   ASP A   1       2.482   7.967  18.890  0.00  0.00    +0.000 OA
ATOM      8  N   VAL A   2       1.587   7.700  20.983  0.00  0.00    +0.000 N 
ATOM      9  H   VAL A   2       1.252   7.023  21.662  0.00  0.00    +0.000 HD
BRANCH   8  10
ATOM     10  CA  VAL A   2       1.319   9.127  21.237  0.00  0.00    +0.000 C 
BRANCH  10  11
ATOM     11  CB  VAL A   2      -0.137   9.534  20.858  0.00  0.00    +0.000 C 
ATOM     12  CG1 VAL A   2      -0.229  10.128  19.451  0.00  0.00    +0.000 C 
ATOM     13  CG2 VAL A   2      -1.158   8.391  20.988  0.00  0.00    +0.000 C 
ENDBRANCH  10  11
BRANCH  10  14
ATOM     14  C   VAL A   2       1.533   9.486  22.724  0.00  0.00    +0.000 C 
ATOM     15  O   VAL A   2       0.632   9.700  23.522  0.00  0.00    +0.000 OA
BRANCH  14  16
ATOM     16  OXT VAL A   2       2.831   9.353  23.111  0.00  0.00    +0.000 OA
ATOM     17  HXT VAL A   2       3.376  10.016  22.634  0.00  0.00    +0.000 HD
ENDBRANCH  14  16
ENDBRANCH  10  14
ENDBRANCH   8  10
ENDBRANCH   5   6
BRANCH   5  18
ATOM     18  CB  ASP A   1       1.651   4.946  20.912  0.00  0.00    +0.000 C 
BRANCH  18  19
ATOM     19  CG  ASP A   1       1.948   3.477  21.017  0.00  0.00    +0.000 C 
ATOM     20  OD1 ASP A   1       1.659   2.597  20.226  0.00  0.00    +0.000 OA
BRANCH  19  21
ATOM     21  OD2 ASP A   1       2.593   3.191  22.163  0.00  0.00    +0.000 OA
ATOM     22  HD2 ASP A   1       3.518   2.969  21.922  0.00  0.00    +0.000 HD
ENDBRANCH  19  21
ENDBRANCH  18  19
ENDBRANCH   5  18
ENDBRANCH   3   5
BRANCH   1  23
ATOM     23  C   UNK A   0       5.630   4.567  18.231  0.00  0.00    +0.000 C 
BRANCH  23  24
ATOM     24  N   UNK A   0       6.472   4.798  17.038  0.00  0.00    +0.000 N 
ATOM     25  C   UNK A   0       7.125   5.996  16.746  0.00  0.00    +0.000 C 
ATOM     26  O   UNK A   0       7.739   6.147  15.688  0.00  0.00    +0.000 OA
BRANCH  24  28
ATOM     27  C   UNK A   0       5.338   4.158  14.913  0.00  0.00    +0.000 C 
ATOM     28  C   UNK A   0       6.407   3.826  15.942  0.00  0.00    +0.000 C 
ENDBRANCH  24  28
BRANCH  25  29
ATOM     29  C   UNK A   0       7.030   7.122  17.757  0.00  0.00    +0.000 C 
BRANCH  29  30
ATOM     30  C   UNK A   0       8.287   7.184  18.625  0.00  0.00    +0.000 C 
BRANCH  30  31
ATOM     31  C   UNK A   0       8.671   8.622  18.948  0.00  0.00    +0.000 C 
BRANCH  31  32
ATOM     32  C   UNK A   0       8.219   9.569  17.838  0.00  0.00    +0.000 C 
BRANCH  32  33
ATOM     33  C   UNK A   0       8.681  10.992  18.134  0.00  0.00    +0.000 C 
BRANCH  33  34
ATOM     34  N   UNK A   0      10.140  11.024  18.132  0.00  0.00    +0.000 NA
ATOM     35  C   UNK A   0      10.701  12.041  17.589  0.00  0.00    +0.000 C 
ATOM     36  N   UNK A   0      10.133  13.108  16.993  0.00  0.00    +0.000 N 
ATOM     37  N   UNK A   0      12.047  12.140  17.621  0.00  0.00    +0.000 N 
ATOM     38  H   UNK A   0       9.155  13.022  16.751  0.00  0.00    +0.000 HD
ATOM     39  H   UNK A   0      10.677  13.609  16.311  0.00  0.00    +0.000 HD
ATOM     40  H   UNK A   0      12.462  11.274  17.950  0.00  0.00    +0.000 HD
ATOM     41  H   UNK A   0      12.494  12.493  16.790  0.00  0.00    +0.000 HD
ENDBRANCH  33  34
ENDBRANCH  32  33
ENDBRANCH  31  32
ENDBRANCH  30  31
ENDBRANCH  29  30
ENDBRANCH  25  29
ENDBRANCH  23  24
ENDBRANCH   1  23
TORSDOF 18
ENDMDL
MODEL 8
REMARK VINA RESULT:      -6.3      2.921      5.494
REMARK  Name = 
REMARK  21 active torsions:
REMARK  status: ('A' for Active; 'I' for Inactive)
REMARK    1  A    between atoms: C_1  and  C_2
REMARK    2  A    between atoms: C_2  and  N_3
REMARK    3  A    between atoms: N_3  and  C_4
REMARK    4  A    between atoms: C_4  and  C_5
REMARK    5  A    between atoms: N_7  and  CA_8
REMARK    6  A    between atoms: CA_8  and  CB_9
REMARK    7  A    between atoms: CA_8  and  C_13
REMARK    8  A    between atoms: CB_9  and  CG_10
REMARK    9  A    between atoms: CG_10  and  OD2_12
REMARK   10  A    between atoms: N_15  and  CA_16
REMARK   11  A    between atoms: CA_16  and  C_17
REMARK   12  A    between atoms: CA_16  and  CB_20
REMARK   13  A    between atoms: C_17  and  OXT_19
REMARK   14  A    between atoms: CB_20  and  CG1_21
REMARK   15  A    between atoms: CB_20  and  CG2_22
REMARK   16  A    between atoms: C_23  and  C_25
REMARK   17  A    between atoms: C_25  and  C_26
REMARK   18  A    between atoms: C_26  and  C_27
REMARK   19  A    between atoms: C_27  and  C_28
REMARK   20  A    between atoms: C_28  and  C_29
REMARK   21  A    between atoms: C_29  and  N_30
REMARK                            x       y       z     vdW  Elec       q    Type
REMARK                         _______ _______ _______ _____ _____    ______ ____
ROOT
ATOM      1  C   UNK A   0       0.812   9.436  21.310  0.00  0.00    +0.000 C 
ATOM      2  O   UNK A   0       1.648  10.073  21.948  0.00  0.00    +0.000 OA
ATOM      3  N   ASP A   1      -0.336  10.019  20.840  0.00  0.00    +0.000 N 
ATOM      4  H   ASP A   1      -1.116   9.394  20.656  0.00  0.00    +0.000 HD
ENDROOT
BRANCH   3   5
ATOM      5  CA  ASP A   1      -0.628  11.460  21.003  0.00  0.00    +0.000 C 
BRANCH   5   6
ATOM      6  C   ASP A   1      -1.359  11.728  22.348  0.00  0.00    +0.000 C 
ATOM      7  O   ASP A   1      -1.124  11.082  23.365  0.00  0.00    +0.000 OA
ATOM      8  N   VAL A   2      -2.364  12.682  22.291  0.00  0.00    +0.000 N 
ATOM      9  H   VAL A   2      -2.486  13.194  21.422  0.00  0.00    +0.000 HD
BRANCH   8  10
ATOM     10  CA  VAL A   2      -3.110  13.144  23.477  0.00  0.00    +0.000 C 
BRANCH  10  11
ATOM     11  CB  VAL A   2      -2.817  14.635  23.818  0.00  0.00    +0.000 C 
ATOM     12  CG1 VAL A   2      -1.488  14.814  24.557  0.00  0.00    +0.000 C 
ATOM     13  CG2 VAL A   2      -2.841  15.571  22.598  0.00  0.00    +0.000 C 
ENDBRANCH  10  11
BRANCH  10  14
ATOM     14  C   VAL A   2      -4.635  13.001  23.275  0.00  0.00    +0.000 C 
ATOM     15  O   VAL A   2      -5.480  13.571  23.951  0.00  0.00    +0.000 OA
BRANCH  14  16
ATOM     16  OXT VAL A   2      -4.950  12.319  22.140  0.00  0.00    +0.000 OA
ATOM     17  HXT VAL A   2      -4.672  12.850  21.362  0.00  0.00    +0.000 HD
ENDBRANCH  14  16
ENDBRANCH  10  14
ENDBRANCH   8  10
ENDBRANCH   5   6
BRANCH   5  18
ATOM     18  CB  ASP A   1      -1.426  11.909  19.777  0.00  0.00    +0.000 C 
BRANCH  18  19
ATOM     19  CG  ASP A   1      -0.956  13.152  19.078  0.00  0.00    +0.000 C 
ATOM     20  OD1 ASP A   1      -0.162  13.238  18.159  0.00  0.00    +0.000 OA
BRANCH  19  21
ATOM     21  OD2 ASP A   1      -1.517  14.253  19.613  0.00  0.00    +0.000 OA
ATOM     22  HD2 ASP A   1      -2.133  14.614  18.940  0.00  0.00    +0.000 HD
ENDBRANCH  19  21
ENDBRANCH  18  19
ENDBRANCH   5  18
ENDBRANCH   3   5
BRANCH   1  23
ATOM     23  C   UNK A   0       1.033   7.942  20.976  0.00  0.00    +0.000 C 
BRANCH  23  24
ATOM     24  N   UNK A   0       1.855   7.562  19.808  0.00  0.00    +0.000 N 
ATOM     25  C   UNK A   0       2.474   6.322  19.641  0.00  0.00    +0.000 C 
ATOM     26  O   UNK A   0       3.218   6.104  18.683  0.00  0.00    +0.000 OA
BRANCH  24  28
ATOM     27  C   UNK A   0       1.305   8.881  17.766  0.00  0.00    +0.000 C 
ATOM     28  C   UNK A   0       2.294   8.620  18.892  0.00  0.00    +0.000 C 
ENDBRANCH  24  28
BRANCH  25  29
ATOM     29  C   UNK A   0       2.229   5.259  20.693  0.00  0.00    +0.000 C 
BRANCH  29  30
ATOM     30  C   UNK A   0       1.066   4.351  20.292  0.00  0.00    +0.000 C 
BRANCH  30  31
ATOM     31  C   UNK A   0       1.284   3.744  18.912  0.00  0.00    +0.000 C 
BRANCH  31  32
ATOM     32  C   UNK A   0       1.312   2.219  18.987  0.00  0.00    +0.000 C 
BRANCH  32  33
ATOM     33  C   UNK A   0       2.683   1.693  18.573  0.00  0.00    +0.000 C 
BRANCH  33  34
ATOM     34  N   UNK A   0       3.587   2.824  18.395  0.00  0.00    +0.000 NA
ATOM     35  C   UNK A   0       4.620   2.871  19.152  0.00  0.00    +0.000 C 
ATOM     36  N   UNK A   0       5.002   2.018  20.123  0.00  0.00    +0.000 N 
ATOM     37  N   UNK A   0       5.515   3.867  18.978  0.00  0.00    +0.000 N 
ATOM     38  H   UNK A   0       4.303   1.365  20.452  0.00  0.00    +0.000 HD
ATOM     39  H   UNK A   0       5.600   2.372  20.851  0.00  0.00    +0.000 HD
ATOM     40  H   UNK A   0       5.150   4.569  18.342  0.00  0.00    +0.000 HD
ATOM     41  H   UNK A   0       5.912   4.269  19.812  0.00  0.00    +0.000 HD
ENDBRANCH  33  34
ENDBRANCH  32  33
ENDBRANCH  31  32
ENDBRANCH  30  31
ENDBRANCH  29  30
ENDBRANCH  25  29
ENDBRANCH  23  24
ENDBRANCH   1  23
TORSDOF 18
ENDMDL
MODEL 9
REMARK VINA RESULT:      -6.3      3.161      8.539
REMARK  Name = 
REMARK  21 active torsions:
REMARK  status: ('A' for Active; 'I' for Inactive)
REMARK    1  A    between atoms: C_1  and  C_2
REMARK    2  A    between atoms: C_2  and  N_3
REMARK    3  A    between atoms: N_3  and  C_4
REMARK    4  A    between atoms: C_4  and  C_5
REMARK    5  A    between atoms: N_7  and  CA_8
REMARK    6  A    between atoms: CA_8  and  CB_9
REMARK    7  A    between atoms: CA_8  and  C_13
REMARK    8  A    between atoms: CB_9  and  CG_10
REMARK    9  A    between atoms: CG_10  and  OD2_12
REMARK   10  A    between atoms: N_15  and  CA_16
REMARK   11  A    between atoms: CA_16  and  C_17
REMARK   12  A    between atoms: CA_16  and  CB_20
REMARK   13  A    between atoms: C_17  and  OXT_19
REMARK   14  A    between atoms: CB_20  and  CG1_21
REMARK   15  A    between atoms: CB_20  and  CG2_22
REMARK   16  A    between atoms: C_23  and  C_25
REMARK   17  A    between atoms: C_25  and  C_26
REMARK   18  A    between atoms: C_26  and  C_27
REMARK   19  A    between atoms: C_27  and  C_28
REMARK   20  A    between atoms: C_28  and  C_29
REMARK   21  A    between atoms: C_29  and  N_30
REMARK                            x       y       z     vdW  Elec       q    Type
REMARK                         _______ _______ _______ _____ _____    ______ ____
ROOT
ATOM      1  C   UNK A   0       2.986   6.951  17.906  0.00  0.00    +0.000 C 
ATOM      2  O   UNK A   0       2.204   6.024  17.700  0.00  0.00    +0.000 OA
ATOM      3  N   ASP A   1       4.343   6.783  17.818  0.00  0.00    +0.000 N 
ATOM      4  H   ASP A   1       4.913   7.448  18.333  0.00  0.00    +0.000 HD
ENDROOT
BRANCH   3   5
ATOM      5  CA  ASP A   1       4.969   5.506  17.408  0.00  0.00    +0.000 C 
BRANCH   5   6
ATOM      6  C   ASP A   1       5.014   4.506  18.595  0.00  0.00    +0.000 C 
ATOM      7  O   ASP A   1       6.039   4.293  19.238  0.00  0.00    +0.000 OA
ATOM      8  N   VAL A   2       3.842   3.798  18.814  0.00  0.00    +0.000 N 
ATOM      9  H   VAL A   2       3.027   4.044  18.260  0.00  0.00    +0.000 HD
BRANCH   8  10
ATOM     10  CA  VAL A   2       3.655   2.872  19.947  0.00  0.00    +0.000 C 
BRANCH  10  11
ATOM     11  CB  VAL A   2       2.180   2.386  20.078  0.00  0.00    +0.000 C 
ATOM     12  CG1 VAL A   2       1.565   2.749  21.432  0.00  0.00    +0.000 C 
ATOM     13  CG2 VAL A   2       1.256   2.888  18.956  0.00  0.00    +0.000 C 
ENDBRANCH  10  11
BRANCH  10  14
ATOM     14  C   VAL A   2       4.549   1.620  19.806  0.00  0.00    +0.000 C 
ATOM     15  O   VAL A   2       5.356   1.248  20.645  0.00  0.00    +0.000 OA
BRANCH  14  16
ATOM     16  OXT VAL A   2       4.214   0.858  18.729  0.00  0.00    +0.000 OA
ATOM     17  HXT VAL A   2       3.235   0.833  18.649  0.00  0.00    +0.000 HD
ENDBRANCH  14  16
ENDBRANCH  10  14
ENDBRANCH   8  10
ENDBRANCH   5   6
BRANCH   5  18
ATOM     18  CB  ASP A   1       6.350   5.835  16.836  0.00  0.00    +0.000 C 
BRANCH  18  19
ATOM     19  CG  ASP A   1       7.109   6.952  17.494  0.00  0.00    +0.000 C 
ATOM     20  OD1 ASP A   1       7.119   8.130  17.187  0.00  0.00    +0.000 OA
BRANCH  19  21
ATOM     21  OD2 ASP A   1       7.851   6.497  18.520  0.00  0.00    +0.000 OA
ATOM     22  HD2 ASP A   1       8.247   7.283  18.955  0.00  0.00    +0.000 HD
ENDBRANCH  19  21
ENDBRANCH  18  19
ENDBRANCH   5  18
ENDBRANCH   3   5
BRANCH   1  23
ATOM     23  C   UNK A   0       2.469   8.368  18.244  0.00  0.00    +0.000 C 
BRANCH  23  24
ATOM     24  N   UNK A   0       1.630   8.581  19.442  0.00  0.00    +0.000 N 
ATOM     25  C   UNK A   0       0.709   9.617  19.593  0.00  0.00    +0.000 C 
ATOM     26  O   UNK A   0       0.106   9.786  20.656  0.00  0.00    +0.000 OA
BRANCH  24  28
ATOM     27  C   UNK A   0       1.228   6.520  20.784  0.00  0.00    +0.000 C 
ATOM     28  C   UNK A   0       1.966   7.844  20.666  0.00  0.00    +0.000 C 
ENDBRANCH  24  28
BRANCH  25  29
ATOM     29  C   UNK A   0       0.492  10.552  18.420  0.00  0.00    +0.000 C 
BRANCH  29  30
ATOM     30  C   UNK A   0       0.834  11.993  18.799  0.00  0.00    +0.000 C 
BRANCH  30  31
ATOM     31  C   UNK A   0       2.232  12.376  18.332  0.00  0.00    +0.000 C 
BRANCH  31  32
ATOM     32  C   UNK A   0       2.441  13.886  18.417  0.00  0.00    +0.000 C 
BRANCH  32  33
ATOM     33  C   UNK A   0       3.912  14.231  18.212  0.00  0.00    +0.000 C 
BRANCH  33  34
ATOM     34  N   UNK A   0       4.105  15.652  18.481  0.00  0.00    +0.000 NA
ATOM     35  C   UNK A   0       4.785  15.963  19.521  0.00  0.00    +0.000 C 
ATOM     36  N   UNK A   0       5.355  15.155  20.437  0.00  0.00    +0.000 N 
ATOM     37  N   UNK A   0       5.040  17.264  19.772  0.00  0.00    +0.000 N 
ATOM     38  H   UNK A   0       5.052  14.190  20.439  0.00  0.00    +0.000 HD
ATOM     39  H   UNK A   0       5.520  15.530  21.356  0.00  0.00    +0.000 HD
ATOM     40  H   UNK A   0       4.497  17.861  19.156  0.00  0.00    +0.000 HD
ATOM     41  H   UNK A   0       4.993  17.557  20.735  0.00  0.00    +0.000 HD
ENDBRANCH  33  34
ENDBRANCH  32  33
ENDBRANCH  31  32
ENDBRANCH  30  31
ENDBRANCH  29  30
ENDBRANCH  25  29
ENDBRANCH  23  24
ENDBRANCH   1  23
TORSDOF 18
ENDMDL
