MODEL 1
REMARK VINA RESULT:      -6.6      0.000      0.000
REMARK  Name = 
REMARK  3 active torsions:
REMARK  status: ('A' for Active; 'I' for Inactive)
REMARK    1  A    between atoms: C_1  and  O_2
REMARK    2  A    between atoms: O_2  and  P_3
REMARK    3  A    between atoms: C_7  and  C_8
REMARK                            x       y       z     vdW  Elec       q    Type
REMARK                         _______ _______ _______ _____ _____    ______ ____
ROOT
ATOM      1  P   UNL     1       6.850   5.581  16.826  0.00  0.00    +0.000 P 
ATOM      2  S   UNL     1       6.499   4.416  15.326  0.00  0.00    +0.000 S 
ATOM      3  N   UNL     1       7.555   4.952  18.189  0.00  0.00    +0.000 NA
ATOM      4  C   UNL     1       6.425   4.474  19.003  0.00  0.00    +0.000 C 
ATOM      5  C   UNL     1       5.274   5.491  18.800  0.00  0.00    +0.000 C 
ATOM      6  O   UNL     1       5.517   6.158  17.546  0.00  0.00    +0.000 OA
ATOM      7  H   UNL     1       8.027   5.702  18.685  0.00  0.00    +0.000 HD
ENDROOT
BRANCH   5   8
ATOM      8  C   UNL     1       3.888   4.877  18.804  0.00  0.00    +0.000 A 
ATOM      9  C   UNL     1       3.027   5.014  17.701  0.00  0.00    +0.000 A 
ATOM     10  C   UNL     1       1.741   4.473  17.709  0.00  0.00    +0.000 A 
ATOM     11  C   UNL     1       1.285   3.786  18.830  0.00  0.00    +0.000 A 
ATOM     12  C   UNL     1       2.123   3.640  19.931  0.00  0.00    +0.000 A 
ATOM     13 BR   UNL     1       1.499   2.702  21.450  0.00  0.00    +0.000 Br
ATOM     14  C   UNL     1       3.415   4.177  19.929  0.00  0.00    +0.000 A 
ENDBRANCH   5   8
BRANCH   1  16
ATOM     15  C   UNL     1       7.681   7.943  17.537  0.00  0.00    +0.000 C 
ATOM     16  O   UNL     1       7.658   6.943  16.530  0.00  0.00    +0.000 OA
ENDBRANCH   1  16
TORSDOF 2
ENDMDL
MODEL 2
REMARK VINA RESULT:      -6.4      2.230      2.513
REMARK  Name = 
REMARK  3 active torsions:
REMARK  status: ('A' for Active; 'I' for Inactive)
REMARK    1  A    between atoms: C_1  and  O_2
REMARK    2  A    between atoms: O_2  and  P_3
REMARK    3  A    between atoms: C_7  and  C_8
REMARK                            x       y       z     vdW  Elec       q    Type
REMARK                         _______ _______ _______ _____ _____    ______ ____
ROOT
ATOM      1  P   UNL     1       6.828   5.554  17.125  0.00  0.00    +0.000 P 
ATOM      2  S   UNL     1       7.601   5.613  18.894  0.00  0.00    +0.000 S 
ATOM      3  N   UNL     1       6.241   6.953  16.454  0.00  0.00    +0.000 NA
ATOM      4  C   UNL     1       4.843   7.024  16.910  0.00  0.00    +0.000 C 
ATOM      5  C   UNL     1       4.309   5.569  16.923  0.00  0.00    +0.000 C 
ATOM      6  O   UNL     1       5.453   4.700  17.028  0.00  0.00    +0.000 OA
ATOM      7  H   UNL     1       6.255   6.857  15.443  0.00  0.00    +0.000 HD
ENDROOT
BRANCH   5   8
ATOM      8  C   UNL     1       3.325   5.273  18.038  0.00  0.00    +0.000 A 
ATOM      9  C   UNL     1       3.155   6.162  19.114  0.00  0.00    +0.000 A 
ATOM     10  C   UNL     1       2.270   5.884  20.155  0.00  0.00    +0.000 A 
ATOM     11  C   UNL     1       1.538   4.700  20.146  0.00  0.00    +0.000 A 
ATOM     12  C   UNL     1       1.693   3.808  19.089  0.00  0.00    +0.000 A 
ATOM     13 BR   UNL     1       0.693   2.202  19.080  0.00  0.00    +0.000 Br
ATOM     14  C   UNL     1       2.576   4.083  18.039  0.00  0.00    +0.000 A 
ENDBRANCH   5   8
BRANCH   1  16
ATOM     15  C   UNL     1       7.134   4.766  14.663  0.00  0.00    +0.000 C 
ATOM     16  O   UNL     1       7.703   4.869  15.959  0.00  0.00    +0.000 OA
ENDBRANCH   1  16
TORSDOF 2
ENDMDL
MODEL 3
REMARK VINA RESULT:      -6.4      2.295      2.532
REMARK  Name = 
REMARK  3 active torsions:
REMARK  status: ('A' for Active; 'I' for Inactive)
REMARK    1  A    between atoms: C_1  and  O_2
REMARK    2  A    between atoms: O_2  and  P_3
REMARK    3  A    between atoms: C_7  and  C_8
REMARK                            x       y       z     vdW  Elec       q    Type
REMARK                         _______ _______ _______ _____ _____    ______ ____
ROOT
ATOM      1  P   UNL     1       6.747   5.447  17.217  0.00  0.00    +0.000 P 
ATOM      2  S   UNL     1       7.694   5.801  18.863  0.00  0.00    +0.000 S 
ATOM      3  N   UNL     1       6.157   6.721  16.334  0.00  0.00    +0.000 NA
ATOM      4  C   UNL     1       4.816   6.967  16.889  0.00  0.00    +0.000 C 
ATOM      5  C   UNL     1       4.223   5.578  17.241  0.00  0.00    +0.000 C 
ATOM      6  O   UNL     1       5.333   4.677  17.415  0.00  0.00    +0.000 OA
ATOM      7  H   UNL     1       6.067   6.430  15.366  0.00  0.00    +0.000 HD
ENDROOT
BRANCH   5   8
ATOM      8  C   UNL     1       3.343   5.567  18.475  0.00  0.00    +0.000 A 
ATOM      9  C   UNL     1       2.734   6.743  18.945  0.00  0.00    +0.000 A 
ATOM     10  C   UNL     1       1.943   6.745  20.094  0.00  0.00    +0.000 A 
ATOM     11  C   UNL     1       1.751   5.564  20.805  0.00  0.00    +0.000 A 
ATOM     12  C   UNL     1       2.347   4.389  20.354  0.00  0.00    +0.000 A 
ATOM     13 BR   UNL     1       2.079   2.786  21.322  0.00  0.00    +0.000 Br
ATOM     14  C   UNL     1       3.137   4.380  19.200  0.00  0.00    +0.000 A 
ENDBRANCH   5   8
BRANCH   1  16
ATOM     15  C   UNL     1       6.857   4.325  14.871  0.00  0.00    +0.000 C 
ATOM     16  O   UNL     1       7.472   4.494  16.139  0.00  0.00    +0.000 OA
ENDBRANCH   1  16
TORSDOF 2
ENDMDL
MODEL 4
REMARK VINA RESULT:      -6.3      2.628      2.896
REMARK  Name = 
REMARK  3 active torsions:
REMARK  status: ('A' for Active; 'I' for Inactive)
REMARK    1  A    between atoms: C_1  and  O_2
REMARK    2  A    between atoms: O_2  and  P_3
REMARK    3  A    between atoms: C_7  and  C_8
REMARK                            x       y       z     vdW  Elec       q    Type
REMARK                         _______ _______ _______ _____ _____    ______ ____
ROOT
ATOM      1  P   UNL     1       6.748   5.504  17.192  0.00  0.00    +0.000 P 
ATOM      2  S   UNL     1       7.664   5.794  18.867  0.00  0.00    +0.000 S 
ATOM      3  N   UNL     1       6.119   6.807  16.380  0.00  0.00    +0.000 NA
ATOM      4  C   UNL     1       4.763   6.967  16.933  0.00  0.00    +0.000 C 
ATOM      5  C   UNL     1       4.221   5.539  17.192  0.00  0.00    +0.000 C 
ATOM      6  O   UNL     1       5.363   4.671  17.325  0.00  0.00    +0.000 OA
ATOM      7  H   UNL     1       6.049   6.571  15.395  0.00  0.00    +0.000 HD
ENDROOT
BRANCH   5   8
ATOM      8  C   UNL     1       3.330   5.420  18.413  0.00  0.00    +0.000 A 
ATOM      9  C   UNL     1       2.952   4.163  18.918  0.00  0.00    +0.000 A 
ATOM     10  C   UNL     1       2.111   4.047  20.025  0.00  0.00    +0.000 A 
ATOM     11  C   UNL     1       1.624   5.191  20.649  0.00  0.00    +0.000 A 
ATOM     12  C   UNL     1       1.987   6.443  20.163  0.00  0.00    +0.000 A 
ATOM     13 BR   UNL     1       1.324   7.995  21.017  0.00  0.00    +0.000 Br
ATOM     14  C   UNL     1       2.833   6.568  19.055  0.00  0.00    +0.000 A 
ENDBRANCH   5   8
BRANCH   1  16
ATOM     15  C   UNL     1       6.982   4.623  14.754  0.00  0.00    +0.000 C 
ATOM     16  O   UNL     1       7.519   4.647  16.067  0.00  0.00    +0.000 OA
ENDBRANCH   1  16
TORSDOF 2
ENDMDL
MODEL 5
REMARK VINA RESULT:      -6.2      2.262      2.511
REMARK  Name = 
REMARK  3 active torsions:
REMARK  status: ('A' for Active; 'I' for Inactive)
REMARK    1  A    between atoms: C_1  and  O_2
REMARK    2  A    between atoms: O_2  and  P_3
REMARK    3  A    between atoms: C_7  and  C_8
REMARK                            x       y       z     vdW  Elec       q    Type
REMARK                         _______ _______ _______ _____ _____    ______ ____
ROOT
ATOM      1  P   UNL     1       6.951   4.969  15.214  0.00  0.00    +0.000 P 
ATOM      2  S   UNL     1       5.644   3.847  14.341  0.00  0.00    +0.000 S 
ATOM      3  N   UNL     1       7.775   4.378  16.527  0.00  0.00    +0.000 NA
ATOM      4  C   UNL     1       6.923   4.712  17.680  0.00  0.00    +0.000 C 
ATOM      5  C   UNL     1       6.298   6.098  17.379  0.00  0.00    +0.000 C 
ATOM      6  O   UNL     1       6.325   6.272  15.950  0.00  0.00    +0.000 OA
ATOM      7  H   UNL     1       8.655   4.878  16.609  0.00  0.00    +0.000 HD
ENDROOT
BRANCH   5   8
ATOM      8  C   UNL     1       4.885   6.274  17.900  0.00  0.00    +0.000 A 
ATOM      9  C   UNL     1       4.054   7.300  17.417  0.00  0.00    +0.000 A 
ATOM     10  C   UNL     1       2.762   7.483  17.910  0.00  0.00    +0.000 A 
ATOM     11  C   UNL     1       2.275   6.644  18.907  0.00  0.00    +0.000 A 
ATOM     12  C   UNL     1       3.083   5.622  19.397  0.00  0.00    +0.000 A 
ATOM     13 BR   UNL     1       2.414   4.482  20.750  0.00  0.00    +0.000 Br
ATOM     14  C   UNL     1       4.379   5.431  18.905  0.00  0.00    +0.000 A 
ENDBRANCH   5   8
BRANCH   1  16
ATOM     15  C   UNL     1       8.044   5.395  12.890  0.00  0.00    +0.000 C 
ATOM     16  O   UNL     1       8.080   5.648  14.287  0.00  0.00    +0.000 OA
ENDBRANCH   1  16
TORSDOF 2
ENDMDL
MODEL 6
REMARK VINA RESULT:      -6.0      4.206      5.740
REMARK  Name = 
REMARK  3 active torsions:
REMARK  status: ('A' for Active; 'I' for Inactive)
REMARK    1  A    between atoms: C_1  and  O_2
REMARK    2  A    between atoms: O_2  and  P_3
REMARK    3  A    between atoms: C_7  and  C_8
REMARK                            x       y       z     vdW  Elec       q    Type
REMARK                         _______ _______ _______ _____ _____    ______ ____
ROOT
ATOM      1  P   UNL     1       2.909   3.205  19.736  0.00  0.00    +0.000 P 
ATOM      2  S   UNL     1       4.348   2.029  20.262  0.00  0.00    +0.000 S 
ATOM      3  N   UNL     1       1.939   2.774  18.461  0.00  0.00    +0.000 NA
ATOM      4  C   UNL     1       2.625   3.312  17.275  0.00  0.00    +0.000 C 
ATOM      5  C   UNL     1       3.246   4.666  17.701  0.00  0.00    +0.000 C 
ATOM      6  O   UNL     1       3.399   4.629  19.133  0.00  0.00    +0.000 OA
ATOM      7  H   UNL     1       1.043   3.239  18.565  0.00  0.00    +0.000 HD
ENDROOT
BRANCH   5   8
ATOM      8  C   UNL     1       4.574   4.982  17.043  0.00  0.00    +0.000 A 
ATOM      9  C   UNL     1       5.056   4.212  15.969  0.00  0.00    +0.000 A 
ATOM     10  C   UNL     1       6.289   4.481  15.375  0.00  0.00    +0.000 A 
ATOM     11  C   UNL     1       7.073   5.527  15.851  0.00  0.00    +0.000 A 
ATOM     12  C   UNL     1       6.613   6.301  16.913  0.00  0.00    +0.000 A 
ATOM     13 BR   UNL     1       7.683   7.724  17.552  0.00  0.00    +0.000 Br
ATOM     14  C   UNL     1       5.376   6.038  17.510  0.00  0.00    +0.000 A 
ENDBRANCH   5   8
BRANCH   1  16
ATOM     15  C   UNL     1       1.312   2.704  21.730  0.00  0.00    +0.000 C 
ATOM     16  O   UNL     1       1.891   3.689  20.887  0.00  0.00    +0.000 OA
ENDBRANCH   1  16
TORSDOF 2
ENDMDL
MODEL 7
REMARK VINA RESULT:      -6.0      4.221      5.660
REMARK  Name = 
REMARK  3 active torsions:
REMARK  status: ('A' for Active; 'I' for Inactive)
REMARK    1  A    between atoms: C_1  and  O_2
REMARK    2  A    between atoms: O_2  and  P_3
REMARK    3  A    between atoms: C_7  and  C_8
REMARK                            x       y       z     vdW  Elec       q    Type
REMARK                         _______ _______ _______ _____ _____    ______ ____
ROOT
ATOM      1  P   UNL     1       2.345   4.352  19.301  0.00  0.00    +0.000 P 
ATOM      2  S   UNL     1       2.479   6.220  19.777  0.00  0.00    +0.000 S 
ATOM      3  N   UNL     1       3.268   3.243  20.120  0.00  0.00    +0.000 NA
ATOM      4  C   UNL     1       4.538   3.197  19.376  0.00  0.00    +0.000 C 
ATOM      5  C   UNL     1       4.177   3.350  17.877  0.00  0.00    +0.000 C 
ATOM      6  O   UNL     1       2.894   4.002  17.816  0.00  0.00    +0.000 OA
ATOM      7  H   UNL     1       2.815   2.337  20.058  0.00  0.00    +0.000 HD
ENDROOT
BRANCH   5   8
ATOM      8  C   UNL     1       5.195   4.124  17.063  0.00  0.00    +0.000 A 
ATOM      9  C   UNL     1       5.584   3.692  15.783  0.00  0.00    +0.000 A 
ATOM     10  C   UNL     1       6.539   4.386  15.039  0.00  0.00    +0.000 A 
ATOM     11  C   UNL     1       7.133   5.528  15.567  0.00  0.00    +0.000 A 
ATOM     12  C   UNL     1       6.760   5.971  16.833  0.00  0.00    +0.000 A 
ATOM     13 BR   UNL     1       7.568   7.526  17.544  0.00  0.00    +0.000 Br
ATOM     14  C   UNL     1       5.800   5.282  17.583  0.00  0.00    +0.000 A 
ENDBRANCH   5   8
BRANCH   1  16
ATOM     15  C   UNL     1       0.745   2.345  18.870  0.00  0.00    +0.000 C 
ATOM     16  O   UNL     1       0.870   3.707  19.248  0.00  0.00    +0.000 OA
ENDBRANCH   1  16
TORSDOF 2
ENDMDL
MODEL 8
REMARK VINA RESULT:      -6.0      2.088      2.288
REMARK  Name = 
REMARK  3 active torsions:
REMARK  status: ('A' for Active; 'I' for Inactive)
REMARK    1  A    between atoms: C_1  and  O_2
REMARK    2  A    between atoms: O_2  and  P_3
REMARK    3  A    between atoms: C_7  and  C_8
REMARK                            x       y       z     vdW  Elec       q    Type
REMARK                         _______ _______ _______ _____ _____    ______ ____
ROOT
ATOM      1  P   UNL     1       6.695   5.507  16.771  0.00  0.00    +0.000 P 
ATOM      2  S   UNL     1       7.742   4.750  18.207  0.00  0.00    +0.000 S 
ATOM      3  N   UNL     1       5.853   6.911  17.041  0.00  0.00    +0.000 NA
ATOM      4  C   UNL     1       4.552   6.467  17.567  0.00  0.00    +0.000 C 
ATOM      5  C   UNL     1       4.192   5.163  16.811  0.00  0.00    +0.000 C 
ATOM      6  O   UNL     1       5.426   4.603  16.324  0.00  0.00    +0.000 OA
ATOM      7  H   UNL     1       5.708   7.377  16.150  0.00  0.00    +0.000 HD
ENDROOT
BRANCH   5   8
ATOM      8  C   UNL     1       3.448   4.139  17.645  0.00  0.00    +0.000 A 
ATOM      9  C   UNL     1       2.937   2.963  17.070  0.00  0.00    +0.000 A 
ATOM     10  C   UNL     1       2.229   2.030  17.827  0.00  0.00    +0.000 A 
ATOM     11  C   UNL     1       2.011   2.258  19.182  0.00  0.00    +0.000 A 
ATOM     12  C   UNL     1       2.510   3.417  19.770  0.00  0.00    +0.000 A 
ATOM     13 BR   UNL     1       2.214   3.720  21.613  0.00  0.00    +0.000 Br
ATOM     14  C   UNL     1       3.224   4.356  19.017  0.00  0.00    +0.000 A 
ENDBRANCH   5   8
BRANCH   1  16
ATOM     15  C   UNL     1       7.037   4.926  14.257  0.00  0.00    +0.000 C 
ATOM     16  O   UNL     1       7.433   5.731  15.357  0.00  0.00    +0.000 OA
ENDBRANCH   1  16
TORSDOF 2
ENDMDL
MODEL 9
REMARK VINA RESULT:      -5.9      3.488      3.892
REMARK  Name = 
REMARK  3 active torsions:
REMARK  status: ('A' for Active; 'I' for Inactive)
REMARK    1  A    between atoms: C_1  and  O_2
REMARK    2  A    between atoms: O_2  and  P_3
REMARK    3  A    between atoms: C_7  and  C_8
REMARK                            x       y       z     vdW  Elec       q    Type
REMARK                         _______ _______ _______ _____ _____    ______ ____
ROOT
ATOM      1  P   UNL     1       5.037   5.093  17.710  0.00  0.00    +0.000 P 
ATOM      2  S   UNL     1       5.330   6.206  16.159  0.00  0.00    +0.000 S 
ATOM      3  N   UNL     1       3.812   3.974  17.681  0.00  0.00    +0.000 NA
ATOM      4  C   UNL     1       2.629   4.709  18.159  0.00  0.00    +0.000 C 
ATOM      5  C   UNL     1       3.127   5.682  19.258  0.00  0.00    +0.000 C 
ATOM      6  O   UNL     1       4.532   5.899  19.023  0.00  0.00    +0.000 OA
ATOM      7  H   UNL     1       4.033   3.236  18.342  0.00  0.00    +0.000 HD
ENDROOT
BRANCH   5   8
ATOM      8  C   UNL     1       2.394   7.007  19.300  0.00  0.00    +0.000 A 
ATOM      9  C   UNL     1       2.305   7.828  18.162  0.00  0.00    +0.000 A 
ATOM     10  C   UNL     1       1.654   9.060  18.202  0.00  0.00    +0.000 A 
ATOM     11  C   UNL     1       1.079   9.503  19.389  0.00  0.00    +0.000 A 
ATOM     12  C   UNL     1       1.156   8.704  20.527  0.00  0.00    +0.000 A 
ATOM     13 BR   UNL     1       0.370   9.309  22.137  0.00  0.00    +0.000 Br
ATOM     14  C   UNL     1       1.805   7.465  20.493  0.00  0.00    +0.000 A 
ENDBRANCH   5   8
BRANCH   1  16
ATOM     15  C   UNL     1       7.594   4.612  17.788  0.00  0.00    +0.000 C 
ATOM     16  O   UNL     1       6.309   4.300  18.302  0.00  0.00    +0.000 OA
ENDBRANCH   1  16
TORSDOF 2
ENDMDL
