MODEL 1
REMARK VINA RESULT:      -6.9      0.000      0.000
REMARK  Name = 
REMARK  6 active torsions:
REMARK  status: ('A' for Active; 'I' for Inactive)
REMARK    1  A    between atoms: C_1  and  N_2
REMARK    2  A    between atoms: N_2  and  C_3
REMARK    3  A    between atoms: C_3  and  C_4
REMARK    4  A    between atoms: C_4  and  O_6
REMARK    5  A    between atoms: C_7  and  C_9
REMARK    6  A    between atoms: C_12  and  N_13
REMARK                            x       y       z     vdW  Elec       q    Type
REMARK                         _______ _______ _______ _____ _____    ______ ____
ROOT
ATOM      1  C   UNL     1       0.650   2.606  19.225  0.00  0.00    +0.000 C 
ATOM      2  N   UNL     1       1.926   3.312  19.118  0.00  0.00    +0.000 N 
ATOM      3  C   UNL     1       2.080   4.082  17.953  0.00  0.00    +0.000 C 
ATOM      4  O   UNL     1       1.117   4.372  17.245  0.00  0.00    +0.000 OA
ENDROOT
BRANCH   3   5
ATOM      5  C   UNL     1       3.408   4.617  17.536  0.00  0.00    +0.000 A 
ATOM      6  C   UNL     1       3.961   5.792  18.062  0.00  0.00    +0.000 A 
ATOM      7  C   UNL     1       5.181   6.280  17.580  0.00  0.00    +0.000 A 
ATOM      8  C   UNL     1       5.891   5.545  16.623  0.00  0.00    +0.000 A 
ATOM      9  C   UNL     1       5.396   4.320  16.160  0.00  0.00    +0.000 A 
ATOM     10  C   UNL     1       4.157   3.861  16.618  0.00  0.00    +0.000 A 
BRANCH   8  11
ATOM     11  N   UNL     1       7.169   6.060  16.111  0.00  0.00    +0.000 N 
ATOM     12  O   UNL     1       7.654   5.505  15.116  0.00  0.00    +0.000 OA
ATOM     13  O   UNL     1       7.687   7.012  16.712  0.00  0.00    +0.000 OA
ENDBRANCH   8  11
ENDBRANCH   3   5
BRANCH   2  14
ATOM     14  C   UNL     1       3.014   2.910  20.031  0.00  0.00    +0.000 C 
BRANCH  14  15
ATOM     15  C   UNL     1       3.990   1.846  19.536  0.00  0.00    +0.000 C 
ATOM     16  O   UNL     1       3.736   1.066  18.634  0.00  0.00    +0.000 OA
BRANCH  15  17
ATOM     17  O   UNL     1       5.218   1.927  20.101  0.00  0.00    +0.000 OA
ATOM     18  H   UNL     1       5.675   1.062  20.074  0.00  0.00    +0.000 HD
ENDBRANCH  15  17
ENDBRANCH  14  15
ENDBRANCH   2  14
TORSDOF 5
ENDMDL
MODEL 2
REMARK VINA RESULT:      -6.9      0.254      1.198
REMARK  Name = 
REMARK  6 active torsions:
REMARK  status: ('A' for Active; 'I' for Inactive)
REMARK    1  A    between atoms: C_1  and  N_2
REMARK    2  A    between atoms: N_2  and  C_3
REMARK    3  A    between atoms: C_3  and  C_4
REMARK    4  A    between atoms: C_4  and  O_6
REMARK    5  A    between atoms: C_7  and  C_9
REMARK    6  A    between atoms: C_12  and  N_13
REMARK                            x       y       z     vdW  Elec       q    Type
REMARK                         _______ _______ _______ _____ _____    ______ ____
ROOT
ATOM      1  C   UNL     1       0.813   2.563  19.342  0.00  0.00    +0.000 C 
ATOM      2  N   UNL     1       2.057   3.307  19.148  0.00  0.00    +0.000 N 
ATOM      3  C   UNL     1       2.112   4.073  17.971  0.00  0.00    +0.000 C 
ATOM      4  O   UNL     1       1.097   4.328  17.326  0.00  0.00    +0.000 OA
ENDROOT
BRANCH   3   5
ATOM      5  C   UNL     1       3.393   4.645  17.466  0.00  0.00    +0.000 A 
ATOM      6  C   UNL     1       4.224   3.980  16.554  0.00  0.00    +0.000 A 
ATOM      7  C   UNL     1       5.448   4.538  16.172  0.00  0.00    +0.000 A 
ATOM      8  C   UNL     1       5.807   5.808  16.641  0.00  0.00    +0.000 A 
ATOM      9  C   UNL     1       4.942   6.525  17.476  0.00  0.00    +0.000 A 
ATOM     10  C   UNL     1       3.739   5.940  17.885  0.00  0.00    +0.000 A 
BRANCH   8  11
ATOM     11  N   UNL     1       7.095   6.393  16.245  0.00  0.00    +0.000 N 
ATOM     12  O   UNL     1       7.722   5.835  15.334  0.00  0.00    +0.000 OA
ATOM     13  O   UNL     1       7.480   7.402  16.852  0.00  0.00    +0.000 OA
ENDBRANCH   8  11
ENDBRANCH   3   5
BRANCH   2  14
ATOM     14  C   UNL     1       3.214   2.945  19.991  0.00  0.00    +0.000 C 
BRANCH  14  15
ATOM     15  C   UNL     1       4.098   1.795  19.515  0.00  0.00    +0.000 C 
ATOM     16  O   UNL     1       3.826   1.087  18.560  0.00  0.00    +0.000 OA
BRANCH  15  17
ATOM     17  O   UNL     1       5.281   1.709  20.169  0.00  0.00    +0.000 OA
ATOM     18  H   UNL     1       5.953   1.255  19.621  0.00  0.00    +0.000 HD
ENDBRANCH  15  17
ENDBRANCH  14  15
ENDBRANCH   2  14
TORSDOF 5
ENDMDL
MODEL 3
REMARK VINA RESULT:      -6.7      0.879      1.720
REMARK  Name = 
REMARK  6 active torsions:
REMARK  status: ('A' for Active; 'I' for Inactive)
REMARK    1  A    between atoms: C_1  and  N_2
REMARK    2  A    between atoms: N_2  and  C_3
REMARK    3  A    between atoms: C_3  and  C_4
REMARK    4  A    between atoms: C_4  and  O_6
REMARK    5  A    between atoms: C_7  and  C_9
REMARK    6  A    between atoms: C_12  and  N_13
REMARK                            x       y       z     vdW  Elec       q    Type
REMARK                         _______ _______ _______ _____ _____    ______ ____
ROOT
ATOM      1  C   UNL     1       0.610   3.225  19.801  0.00  0.00    +0.000 C 
ATOM      2  N   UNL     1       1.850   3.916  19.449  0.00  0.00    +0.000 N 
ATOM      3  C   UNL     1       2.016   4.171  18.076  0.00  0.00    +0.000 C 
ATOM      4  O   UNL     1       1.073   4.091  17.292  0.00  0.00    +0.000 OA
ENDROOT
BRANCH   3   5
ATOM      5  C   UNL     1       3.331   4.586  17.509  0.00  0.00    +0.000 A 
ATOM      6  C   UNL     1       4.216   3.692  16.891  0.00  0.00    +0.000 A 
ATOM      7  C   UNL     1       5.466   4.129  16.440  0.00  0.00    +0.000 A 
ATOM      8  C   UNL     1       5.801   5.486  16.536  0.00  0.00    +0.000 A 
ATOM      9  C   UNL     1       4.887   6.406  17.064  0.00  0.00    +0.000 A 
ATOM     10  C   UNL     1       3.656   5.952  17.549  0.00  0.00    +0.000 A 
BRANCH   8  11
ATOM     11  N   UNL     1       7.117   5.945  16.069  0.00  0.00    +0.000 N 
ATOM     12  O   UNL     1       7.643   6.889  16.674  0.00  0.00    +0.000 OA
ATOM     13  O   UNL     1       7.615   5.365  15.094  0.00  0.00    +0.000 OA
ENDBRANCH   8  11
ENDBRANCH   3   5
BRANCH   2  14
ATOM     14  C   UNL     1       2.914   3.983  20.469  0.00  0.00    +0.000 C 
BRANCH  14  15
ATOM     15  C   UNL     1       3.617   2.680  20.839  0.00  0.00    +0.000 C 
ATOM     16  O   UNL     1       4.595   2.251  20.249  0.00  0.00    +0.000 OA
BRANCH  15  17
ATOM     17  O   UNL     1       3.138   2.101  21.966  0.00  0.00    +0.000 OA
ATOM     18  H   UNL     1       2.266   1.686  21.804  0.00  0.00    +0.000 HD
ENDBRANCH  15  17
ENDBRANCH  14  15
ENDBRANCH   2  14
TORSDOF 5
ENDMDL
MODEL 4
REMARK VINA RESULT:      -6.7      1.039      1.233
REMARK  Name = 
REMARK  6 active torsions:
REMARK  status: ('A' for Active; 'I' for Inactive)
REMARK    1  A    between atoms: C_1  and  N_2
REMARK    2  A    between atoms: N_2  and  C_3
REMARK    3  A    between atoms: C_3  and  C_4
REMARK    4  A    between atoms: C_4  and  O_6
REMARK    5  A    between atoms: C_7  and  C_9
REMARK    6  A    between atoms: C_12  and  N_13
REMARK                            x       y       z     vdW  Elec       q    Type
REMARK                         _______ _______ _______ _____ _____    ______ ____
ROOT
ATOM      1  C   UNL     1       0.392   3.122  19.538  0.00  0.00    +0.000 C 
ATOM      2  N   UNL     1       1.588   3.941  19.352  0.00  0.00    +0.000 N 
ATOM      3  C   UNL     1       1.916   4.214  18.012  0.00  0.00    +0.000 C 
ATOM      4  O   UNL     1       1.105   4.035  17.105  0.00  0.00    +0.000 OA
ENDROOT
BRANCH   3   5
ATOM      5  C   UNL     1       3.246   4.768  17.627  0.00  0.00    +0.000 A 
ATOM      6  C   UNL     1       3.586   6.119  17.777  0.00  0.00    +0.000 A 
ATOM      7  C   UNL     1       4.826   6.592  17.332  0.00  0.00    +0.000 A 
ATOM      8  C   UNL     1       5.763   5.692  16.809  0.00  0.00    +0.000 A 
ATOM      9  C   UNL     1       5.472   4.324  16.743  0.00  0.00    +0.000 A 
ATOM     10  C   UNL     1       4.214   3.868  17.152  0.00  0.00    +0.000 A 
BRANCH   8  11
ATOM     11  N   UNL     1       7.062   6.189  16.336  0.00  0.00    +0.000 N 
ATOM     12  O   UNL     1       7.622   5.559  15.428  0.00  0.00    +0.000 OA
ATOM     13  O   UNL     1       7.523   7.202  16.880  0.00  0.00    +0.000 OA
ENDBRANCH   8  11
ENDBRANCH   3   5
BRANCH   2  14
ATOM     14  C   UNL     1       2.487   4.120  20.508  0.00  0.00    +0.000 C 
BRANCH  14  15
ATOM     15  C   UNL     1       3.097   2.865  21.126  0.00  0.00    +0.000 C 
ATOM     16  O   UNL     1       2.687   2.353  22.154  0.00  0.00    +0.000 OA
BRANCH  15  17
ATOM     17  O   UNL     1       4.056   2.290  20.361  0.00  0.00    +0.000 OA
ATOM     18  H   UNL     1       4.811   1.993  20.909  0.00  0.00    +0.000 HD
ENDBRANCH  15  17
ENDBRANCH  14  15
ENDBRANCH   2  14
TORSDOF 5
ENDMDL
MODEL 5
REMARK VINA RESULT:      -6.6      0.787      1.506
REMARK  Name = 
REMARK  6 active torsions:
REMARK  status: ('A' for Active; 'I' for Inactive)
REMARK    1  A    between atoms: C_1  and  N_2
REMARK    2  A    between atoms: N_2  and  C_3
REMARK    3  A    between atoms: C_3  and  C_4
REMARK    4  A    between atoms: C_4  and  O_6
REMARK    5  A    between atoms: C_7  and  C_9
REMARK    6  A    between atoms: C_12  and  N_13
REMARK                            x       y       z     vdW  Elec       q    Type
REMARK                         _______ _______ _______ _____ _____    ______ ____
ROOT
ATOM      1  C   UNL     1       0.778   3.192  19.873  0.00  0.00    +0.000 C 
ATOM      2  N   UNL     1       2.003   3.880  19.467  0.00  0.00    +0.000 N 
ATOM      3  C   UNL     1       2.108   4.137  18.088  0.00  0.00    +0.000 C 
ATOM      4  O   UNL     1       1.130   4.061  17.347  0.00  0.00    +0.000 OA
ENDROOT
BRANCH   3   5
ATOM      5  C   UNL     1       3.398   4.549  17.463  0.00  0.00    +0.000 A 
ATOM      6  C   UNL     1       4.217   3.668  16.745  0.00  0.00    +0.000 A 
ATOM      7  C   UNL     1       5.450   4.098  16.241  0.00  0.00    +0.000 A 
ATOM      8  C   UNL     1       5.828   5.438  16.387  0.00  0.00    +0.000 A 
ATOM      9  C   UNL     1       4.975   6.351  17.019  0.00  0.00    +0.000 A 
ATOM     10  C   UNL     1       3.763   5.902  17.554  0.00  0.00    +0.000 A 
BRANCH   8  11
ATOM     11  N   UNL     1       7.126   5.889  15.864  0.00  0.00    +0.000 N 
ATOM     12  O   UNL     1       7.571   5.314  14.862  0.00  0.00    +0.000 OA
ATOM     13  O   UNL     1       7.699   6.810  16.463  0.00  0.00    +0.000 OA
ENDBRANCH   8  11
ENDBRANCH   3   5
BRANCH   2  14
ATOM     14  C   UNL     1       3.112   3.942  20.438  0.00  0.00    +0.000 C 
BRANCH  14  15
ATOM     15  C   UNL     1       3.869   2.647  20.725  0.00  0.00    +0.000 C 
ATOM     16  O   UNL     1       3.604   1.905  21.657  0.00  0.00    +0.000 OA
BRANCH  15  17
ATOM     17  O   UNL     1       4.781   2.325  19.778  0.00  0.00    +0.000 OA
ATOM     18  H   UNL     1       5.387   1.625  20.096  0.00  0.00    +0.000 HD
ENDBRANCH  15  17
ENDBRANCH  14  15
ENDBRANCH   2  14
TORSDOF 5
ENDMDL
MODEL 6
REMARK VINA RESULT:      -6.6      1.484      2.772
REMARK  Name = 
REMARK  6 active torsions:
REMARK  status: ('A' for Active; 'I' for Inactive)
REMARK    1  A    between atoms: C_1  and  N_2
REMARK    2  A    between atoms: N_2  and  C_3
REMARK    3  A    between atoms: C_3  and  C_4
REMARK    4  A    between atoms: C_4  and  O_6
REMARK    5  A    between atoms: C_7  and  C_9
REMARK    6  A    between atoms: C_12  and  N_13
REMARK                            x       y       z     vdW  Elec       q    Type
REMARK                         _______ _______ _______ _____ _____    ______ ____
ROOT
ATOM      1  C   UNL     1       2.247   2.439  21.635  0.00  0.00    +0.000 C 
ATOM      2  N   UNL     1       2.635   3.030  20.355  0.00  0.00    +0.000 N 
ATOM      3  C   UNL     1       3.988   2.861  20.011  0.00  0.00    +0.000 C 
ATOM      4  O   UNL     1       4.696   2.037  20.587  0.00  0.00    +0.000 OA
ENDROOT
BRANCH   3   5
ATOM      5  C   UNL     1       4.620   3.642  18.909  0.00  0.00    +0.000 A 
ATOM      6  C   UNL     1       5.451   4.748  19.132  0.00  0.00    +0.000 A 
ATOM      7  C   UNL     1       5.959   5.483  18.055  0.00  0.00    +0.000 A 
ATOM      8  C   UNL     1       5.701   5.059  16.745  0.00  0.00    +0.000 A 
ATOM      9  C   UNL     1       4.953   3.899  16.510  0.00  0.00    +0.000 A 
ATOM     10  C   UNL     1       4.416   3.195  17.593  0.00  0.00    +0.000 A 
BRANCH   8  11
ATOM     11  N   UNL     1       6.229   5.833  15.614  0.00  0.00    +0.000 N 
ATOM     12  O   UNL     1       7.388   5.596  15.246  0.00  0.00    +0.000 OA
ATOM     13  O   UNL     1       5.485   6.682  15.101  0.00  0.00    +0.000 OA
ENDBRANCH   8  11
ENDBRANCH   3   5
BRANCH   2  14
ATOM     14  C   UNL     1       1.704   3.988  19.728  0.00  0.00    +0.000 C 
BRANCH  14  15
ATOM     15  C   UNL     1       1.006   3.552  18.442  0.00  0.00    +0.000 C 
ATOM     16  O   UNL     1       1.079   4.171  17.393  0.00  0.00    +0.000 OA
BRANCH  15  17
ATOM     17  O   UNL     1       0.401   2.344  18.531  0.00  0.00    +0.000 OA
ATOM     18  H   UNL     1       0.982   1.691  18.971  0.00  0.00    +0.000 HD
ENDBRANCH  15  17
ENDBRANCH  14  15
ENDBRANCH   2  14
TORSDOF 5
ENDMDL
MODEL 7
REMARK VINA RESULT:      -6.6      1.450      2.978
REMARK  Name = 
REMARK  6 active torsions:
REMARK  status: ('A' for Active; 'I' for Inactive)
REMARK    1  A    between atoms: C_1  and  N_2
REMARK    2  A    between atoms: N_2  and  C_3
REMARK    3  A    between atoms: C_3  and  C_4
REMARK    4  A    between atoms: C_4  and  O_6
REMARK    5  A    between atoms: C_7  and  C_9
REMARK    6  A    between atoms: C_12  and  N_13
REMARK                            x       y       z     vdW  Elec       q    Type
REMARK                         _______ _______ _______ _____ _____    ______ ____
ROOT
ATOM      1  C   UNL     1       2.388   2.256  21.698  0.00  0.00    +0.000 C 
ATOM      2  N   UNL     1       2.669   2.844  20.388  0.00  0.00    +0.000 N 
ATOM      3  C   UNL     1       4.013   2.767  19.982  0.00  0.00    +0.000 C 
ATOM      4  O   UNL     1       4.808   2.012  20.537  0.00  0.00    +0.000 OA
ENDROOT
BRANCH   3   5
ATOM      5  C   UNL     1       4.532   3.568  18.835  0.00  0.00    +0.000 A 
ATOM      6  C   UNL     1       4.385   3.176  17.498  0.00  0.00    +0.000 A 
ATOM      7  C   UNL     1       4.955   3.934  16.470  0.00  0.00    +0.000 A 
ATOM      8  C   UNL     1       5.606   5.136  16.775  0.00  0.00    +0.000 A 
ATOM      9  C   UNL     1       5.675   5.588  18.098  0.00  0.00    +0.000 A 
ATOM     10  C   UNL     1       5.138   4.802  19.123  0.00  0.00    +0.000 A 
BRANCH   8  11
ATOM     11  N   UNL     1       6.211   5.930  15.697  0.00  0.00    +0.000 N 
ATOM     12  O   UNL     1       5.477   6.717  15.082  0.00  0.00    +0.000 OA
ATOM     13  O   UNL     1       7.415   5.759  15.462  0.00  0.00    +0.000 OA
ENDBRANCH   8  11
ENDBRANCH   3   5
BRANCH   2  14
ATOM     14  C   UNL     1       1.640   3.716  19.790  0.00  0.00    +0.000 C 
BRANCH  14  15
ATOM     15  C   UNL     1       0.942   3.217  18.527  0.00  0.00    +0.000 C 
ATOM     16  O   UNL     1       0.236   2.222  18.496  0.00  0.00    +0.000 OA
BRANCH  15  17
ATOM     17  O   UNL     1       1.071   4.048  17.467  0.00  0.00    +0.000 OA
ATOM     18  H   UNL     1       1.764   3.730  16.852  0.00  0.00    +0.000 HD
ENDBRANCH  15  17
ENDBRANCH  14  15
ENDBRANCH   2  14
TORSDOF 5
ENDMDL
MODEL 8
REMARK VINA RESULT:      -6.5      1.723      2.244
REMARK  Name = 
REMARK  6 active torsions:
REMARK  status: ('A' for Active; 'I' for Inactive)
REMARK    1  A    between atoms: C_1  and  N_2
REMARK    2  A    between atoms: N_2  and  C_3
REMARK    3  A    between atoms: C_3  and  C_4
REMARK    4  A    between atoms: C_4  and  O_6
REMARK    5  A    between atoms: C_7  and  C_9
REMARK    6  A    between atoms: C_12  and  N_13
REMARK                            x       y       z     vdW  Elec       q    Type
REMARK                         _______ _______ _______ _____ _____    ______ ____
ROOT
ATOM      1  C   UNL     1       0.776   2.214  18.775  0.00  0.00    +0.000 C 
ATOM      2  N   UNL     1       1.942   3.083  18.932  0.00  0.00    +0.000 N 
ATOM      3  C   UNL     1       2.328   3.772  17.769  0.00  0.00    +0.000 C 
ATOM      4  O   UNL     1       1.577   3.864  16.800  0.00  0.00    +0.000 OA
ENDROOT
BRANCH   3   5
ATOM      5  C   UNL     1       3.650   4.455  17.664  0.00  0.00    +0.000 A 
ATOM      6  C   UNL     1       4.812   3.811  17.218  0.00  0.00    +0.000 A 
ATOM      7  C   UNL     1       6.037   4.487  17.208  0.00  0.00    +0.000 A 
ATOM      8  C   UNL     1       6.085   5.839  17.570  0.00  0.00    +0.000 A 
ATOM      9  C   UNL     1       4.915   6.520  17.924  0.00  0.00    +0.000 A 
ATOM     10  C   UNL     1       3.702   5.824  17.970  0.00  0.00    +0.000 A 
BRANCH   8  11
ATOM     11  N   UNL     1       7.373   6.548  17.566  0.00  0.00    +0.000 N 
ATOM     12  O   UNL     1       7.782   6.988  16.483  0.00  0.00    +0.000 OA
ATOM     13  O   UNL     1       7.974   6.654  18.644  0.00  0.00    +0.000 OA
ENDBRANCH   8  11
ENDBRANCH   3   5
BRANCH   2  14
ATOM     14  C   UNL     1       2.768   2.915  20.143  0.00  0.00    +0.000 C 
BRANCH  14  15
ATOM     15  C   UNL     1       2.271   3.569  21.430  0.00  0.00    +0.000 C 
ATOM     16  O   UNL     1       1.877   2.938  22.398  0.00  0.00    +0.000 OA
BRANCH  15  17
ATOM     17  O   UNL     1       2.427   4.913  21.455  0.00  0.00    +0.000 OA
ATOM     18  H   UNL     1       3.357   5.163  21.279  0.00  0.00    +0.000 HD
ENDBRANCH  15  17
ENDBRANCH  14  15
ENDBRANCH   2  14
TORSDOF 5
ENDMDL
MODEL 9
REMARK VINA RESULT:      -6.5      1.551      1.963
REMARK  Name = 
REMARK  6 active torsions:
REMARK  status: ('A' for Active; 'I' for Inactive)
REMARK    1  A    between atoms: C_1  and  N_2
REMARK    2  A    between atoms: N_2  and  C_3
REMARK    3  A    between atoms: C_3  and  C_4
REMARK    4  A    between atoms: C_4  and  O_6
REMARK    5  A    between atoms: C_7  and  C_9
REMARK    6  A    between atoms: C_12  and  N_13
REMARK                            x       y       z     vdW  Elec       q    Type
REMARK                         _______ _______ _______ _____ _____    ______ ____
ROOT
ATOM      1  C   UNL     1       1.099   3.445  20.769  0.00  0.00    +0.000 C 
ATOM      2  N   UNL     1       2.439   3.618  20.211  0.00  0.00    +0.000 N 
ATOM      3  C   UNL     1       2.767   4.938  19.856  0.00  0.00    +0.000 C 
ATOM      4  O   UNL     1       2.104   5.892  20.258  0.00  0.00    +0.000 OA
ENDROOT
BRANCH   3   5
ATOM      5  C   UNL     1       3.953   5.250  19.007  0.00  0.00    +0.000 A 
ATOM      6  C   UNL     1       5.273   5.118  19.456  0.00  0.00    +0.000 A 
ATOM      7  C   UNL     1       6.343   5.493  18.636  0.00  0.00    +0.000 A 
ATOM      8  C   UNL     1       6.093   5.927  17.328  0.00  0.00    +0.000 A 
ATOM      9  C   UNL     1       4.784   5.971  16.834  0.00  0.00    +0.000 A 
ATOM     10  C   UNL     1       3.719   5.633  17.676  0.00  0.00    +0.000 A 
BRANCH   8  11
ATOM     11  N   UNL     1       7.215   6.327  16.468  0.00  0.00    +0.000 N 
ATOM     12  O   UNL     1       7.821   7.366  16.762  0.00  0.00    +0.000 OA
ATOM     13  O   UNL     1       7.480   5.606  15.496  0.00  0.00    +0.000 OA
ENDBRANCH   8  11
ENDBRANCH   3   5
BRANCH   2  14
ATOM     14  C   UNL     1       3.167   2.408  19.782  0.00  0.00    +0.000 C 
BRANCH  14  15
ATOM     15  C   UNL     1       3.024   1.981  18.324  0.00  0.00    +0.000 C 
ATOM     16  O   UNL     1       2.099   2.328  17.608  0.00  0.00    +0.000 OA
BRANCH  15  17
ATOM     17  O   UNL     1       4.086   1.286  17.851  0.00  0.00    +0.000 OA
ATOM     18  H   UNL     1       4.910   1.808  17.926  0.00  0.00    +0.000 HD
ENDBRANCH  15  17
ENDBRANCH  14  15
ENDBRANCH   2  14
TORSDOF 5
ENDMDL
