MODEL 1
REMARK VINA RESULT:      -7.4      0.000      0.000
REMARK  Name = 
REMARK  8 active torsions:
REMARK  status: ('A' for Active; 'I' for Inactive)
REMARK    1  A    between atoms: C_1  and  C_2
REMARK    2  A    between atoms: C_2  and  C_3
REMARK    3  A    between atoms: C_2  and  O_4
REMARK    4  A    between atoms: O_4  and  C_5
REMARK    5  A    between atoms: N_13  and  C_14
REMARK    6  A    between atoms: C_14  and  O_15
REMARK    7  A    between atoms: O_15  and  C_16
REMARK    8  A    between atoms: C_16  and  C_18
REMARK                            x       y       z     vdW  Elec       q    Type
REMARK                         _______ _______ _______ _____ _____    ______ ____
ROOT
ATOM      1  C   UNL     1       2.577   6.191  19.849  0.00  0.00    +0.000 A 
ATOM      2  C   UNL     1       3.452   5.665  18.885  0.00  0.00    +0.000 A 
ATOM      3  C   UNL     1       3.781   6.389  17.721  0.00  0.00    +0.000 A 
ATOM      4  C   UNL     1       3.202   7.632  17.466  0.00  0.00    +0.000 A 
ATOM      5  C   UNL     1       2.377   8.145  18.452  0.00  0.00    +0.000 A 
ATOM      6  C   UNL     1       2.144   7.485  19.658  0.00  0.00    +0.000 A 
ATOM      7  C   UNL     1       1.371   8.324  20.578  0.00  0.00    +0.000 C 
ATOM      8  O   UNL     1       1.355   8.225  21.788  0.00  0.00    +0.000 OA
ATOM      9  N   UNL     1       0.659   9.266  19.826  0.00  0.00    +0.000 N 
ATOM     10  S   UNL     1       1.385   9.582  18.350  0.00  0.00    +0.000 S 
ATOM     11  O   UNL     1       0.415   9.390  17.302  0.00  0.00    +0.000 OA
ATOM     12  O   UNL     1       2.230  10.741  18.466  0.00  0.00    +0.000 OA
ENDROOT
BRANCH   1  13
ATOM     13  O   UNL     1       2.237   5.358  20.877  0.00  0.00    +0.000 OA
BRANCH  13  15
ATOM     14  C   UNL     1       2.276   3.112  21.839  0.00  0.00    +0.000 C 
ATOM     15  C   UNL     1       2.090   3.953  20.583  0.00  0.00    +0.000 C 
ATOM     16  C   UNL     1       0.705   3.750  19.980  0.00  0.00    +0.000 C 
ENDBRANCH  13  15
ENDBRANCH   1  13
BRANCH   9  17
ATOM     17  C   UNL     1      -0.393  10.123  20.314  0.00  0.00    +0.000 C 
BRANCH  17  18
ATOM     18  O   UNL     1      -1.333  10.290  19.240  0.00  0.00    +0.000 OA
BRANCH  18  19
ATOM     19  C   UNL     1      -1.660  11.562  18.918  0.00  0.00    +0.000 C 
ATOM     20  O   UNL     1      -0.892  12.514  18.950  0.00  0.00    +0.000 OA
BRANCH  19  21
ATOM     21  C   UNL     1      -3.090  11.674  18.527  0.00  0.00    +0.000 A 
ATOM     22  C   UNL     1      -3.542  11.334  17.238  0.00  0.00    +0.000 A 
ATOM     23 CL   UNL     1      -2.518  10.707  15.991  0.00  0.00    +0.000 Cl
ATOM     24  C   UNL     1      -4.882  11.543  16.872  0.00  0.00    +0.000 A 
ATOM     25  C   UNL     1      -5.785  12.103  17.770  0.00  0.00    +0.000 A 
ATOM     26  C   UNL     1      -5.355  12.438  19.048  0.00  0.00    +0.000 A 
ATOM     27  C   UNL     1      -4.019  12.221  19.433  0.00  0.00    +0.000 A 
ATOM     28 CL   UNL     1      -3.634  12.643  21.066  0.00  0.00    +0.000 Cl
ENDBRANCH  19  21
ENDBRANCH  18  19
ENDBRANCH  17  18
ENDBRANCH   9  17
TORSDOF 6
ENDMDL
MODEL 2
REMARK VINA RESULT:      -7.3      0.137      1.745
REMARK  Name = 
REMARK  8 active torsions:
REMARK  status: ('A' for Active; 'I' for Inactive)
REMARK    1  A    between atoms: C_1  and  C_2
REMARK    2  A    between atoms: C_2  and  C_3
REMARK    3  A    between atoms: C_2  and  O_4
REMARK    4  A    between atoms: O_4  and  C_5
REMARK    5  A    between atoms: N_13  and  C_14
REMARK    6  A    between atoms: C_14  and  O_15
REMARK    7  A    between atoms: O_15  and  C_16
REMARK    8  A    between atoms: C_16  and  C_18
REMARK                            x       y       z     vdW  Elec       q    Type
REMARK                         _______ _______ _______ _____ _____    ______ ____
ROOT
ATOM      1  C   UNL     1       2.484   6.275  19.867  0.00  0.00    +0.000 A 
ATOM      2  C   UNL     1       3.361   5.744  18.907  0.00  0.00    +0.000 A 
ATOM      3  C   UNL     1       3.705   6.470  17.749  0.00  0.00    +0.000 A 
ATOM      4  C   UNL     1       3.141   7.720  17.496  0.00  0.00    +0.000 A 
ATOM      5  C   UNL     1       2.314   8.237  18.479  0.00  0.00    +0.000 A 
ATOM      6  C   UNL     1       2.067   7.574  19.680  0.00  0.00    +0.000 A 
ATOM      7  C   UNL     1       1.296   8.416  20.599  0.00  0.00    +0.000 C 
ATOM      8  O   UNL     1       1.271   8.312  21.808  0.00  0.00    +0.000 OA
ATOM      9  N   UNL     1       0.599   9.369  19.846  0.00  0.00    +0.000 N 
ATOM     10  S   UNL     1       1.338   9.684  18.377  0.00  0.00    +0.000 S 
ATOM     11  O   UNL     1       0.372   9.508  17.321  0.00  0.00    +0.000 OA
ATOM     12  O   UNL     1       2.193  10.834  18.504  0.00  0.00    +0.000 OA
ENDROOT
BRANCH   1  13
ATOM     13  O   UNL     1       2.130   5.440  20.889  0.00  0.00    +0.000 OA
BRANCH  13  15
ATOM     14  C   UNL     1       2.297   3.208  21.871  0.00  0.00    +0.000 C 
ATOM     15  C   UNL     1       2.058   4.027  20.609  0.00  0.00    +0.000 C 
ATOM     16  C   UNL     1       0.683   3.742  20.015  0.00  0.00    +0.000 C 
ENDBRANCH  13  15
ENDBRANCH   1  13
BRANCH   9  17
ATOM     17  C   UNL     1      -0.448  10.235  20.331  0.00  0.00    +0.000 C 
BRANCH  17  18
ATOM     18  O   UNL     1      -1.399  10.386  19.264  0.00  0.00    +0.000 OA
BRANCH  18  19
ATOM     19  C   UNL     1      -1.693  11.652  18.895  0.00  0.00    +0.000 C 
ATOM     20  O   UNL     1      -0.890  12.574  18.847  0.00  0.00    +0.000 OA
BRANCH  19  21
ATOM     21  C   UNL     1      -3.134  11.801  18.560  0.00  0.00    +0.000 A 
ATOM     22  C   UNL     1      -4.079  12.247  19.503  0.00  0.00    +0.000 A 
ATOM     23 CL   UNL     1      -3.680  12.719  21.121  0.00  0.00    +0.000 Cl
ATOM     24  C   UNL     1      -5.446  12.284  19.183  0.00  0.00    +0.000 A 
ATOM     25  C   UNL     1      -5.895  11.866  17.934  0.00  0.00    +0.000 A 
ATOM     26  C   UNL     1      -4.973  11.428  16.991  0.00  0.00    +0.000 A 
ATOM     27  C   UNL     1      -3.599  11.400  17.293  0.00  0.00    +0.000 A 
ATOM     28 CL   UNL     1      -2.563  10.875  16.011  0.00  0.00    +0.000 Cl
ENDBRANCH  19  21
ENDBRANCH  18  19
ENDBRANCH  17  18
ENDBRANCH   9  17
TORSDOF 6
ENDMDL
MODEL 3
REMARK VINA RESULT:      -7.2      6.394      8.801
REMARK  Name = 
REMARK  8 active torsions:
REMARK  status: ('A' for Active; 'I' for Inactive)
REMARK    1  A    between atoms: C_1  and  C_2
REMARK    2  A    between atoms: C_2  and  C_3
REMARK    3  A    between atoms: C_2  and  O_4
REMARK    4  A    between atoms: O_4  and  C_5
REMARK    5  A    between atoms: N_13  and  C_14
REMARK    6  A    between atoms: C_14  and  O_15
REMARK    7  A    between atoms: O_15  and  C_16
REMARK    8  A    between atoms: C_16  and  C_18
REMARK                            x       y       z     vdW  Elec       q    Type
REMARK                         _______ _______ _______ _____ _____    ______ ____
ROOT
ATOM      1  C   UNL     1       5.908   4.070  13.329  0.00  0.00    +0.000 A 
ATOM      2  C   UNL     1       6.931   4.436  12.440  0.00  0.00    +0.000 A 
ATOM      3  C   UNL     1       8.035   5.201  12.869  0.00  0.00    +0.000 A 
ATOM      4  C   UNL     1       8.117   5.662  14.183  0.00  0.00    +0.000 A 
ATOM      5  C   UNL     1       7.117   5.250  15.048  0.00  0.00    +0.000 A 
ATOM      6  C   UNL     1       6.088   4.395  14.656  0.00  0.00    +0.000 A 
ATOM      7  C   UNL     1       5.269   3.994  15.803  0.00  0.00    +0.000 C 
ATOM      8  O   UNL     1       4.591   2.989  15.876  0.00  0.00    +0.000 OA
ATOM      9  N   UNL     1       5.409   4.961  16.806  0.00  0.00    +0.000 N 
ATOM     10  S   UNL     1       6.856   5.795  16.689  0.00  0.00    +0.000 S 
ATOM     11  O   UNL     1       6.579   7.209  16.659  0.00  0.00    +0.000 OA
ATOM     12  O   UNL     1       7.837   5.183  17.545  0.00  0.00    +0.000 OA
ENDROOT
BRANCH   1  13
ATOM     13  O   UNL     1       4.831   3.430  12.782  0.00  0.00    +0.000 OA
BRANCH  13  15
ATOM     14  C   UNL     1       5.527   1.610  11.307  0.00  0.00    +0.000 C 
ATOM     15  C   UNL     1       4.929   3.008  11.406  0.00  0.00    +0.000 C 
ATOM     16  C   UNL     1       3.529   3.055  10.807  0.00  0.00    +0.000 C 
ENDBRANCH  13  15
ENDBRANCH   1  13
BRANCH   9  17
ATOM     17  C   UNL     1       4.603   5.072  17.997  0.00  0.00    +0.000 C 
BRANCH  17  18
ATOM     18  O   UNL     1       3.311   5.552  17.589  0.00  0.00    +0.000 OA
BRANCH  18  19
ATOM     19  C   UNL     1       2.260   4.740  17.842  0.00  0.00    +0.000 C 
ATOM     20  O   UNL     1       1.337   4.524  17.069  0.00  0.00    +0.000 OA
BRANCH  19  21
ATOM     21  C   UNL     1       2.352   4.139  19.199  0.00  0.00    +0.000 A 
ATOM     22  C   UNL     1       2.566   2.762  19.395  0.00  0.00    +0.000 A 
ATOM     23 CL   UNL     1       2.799   1.629  18.106  0.00  0.00    +0.000 Cl
ATOM     24  C   UNL     1       2.551   2.212  20.687  0.00  0.00    +0.000 A 
ATOM     25  C   UNL     1       2.309   3.015  21.798  0.00  0.00    +0.000 A 
ATOM     26  C   UNL     1       2.100   4.378  21.621  0.00  0.00    +0.000 A 
ATOM     27  C   UNL     1       2.127   4.943  20.333  0.00  0.00    +0.000 A 
ATOM     28 CL   UNL     1       1.898   6.657  20.266  0.00  0.00    +0.000 Cl
ENDBRANCH  19  21
ENDBRANCH  18  19
ENDBRANCH  17  18
ENDBRANCH   9  17
TORSDOF 6
ENDMDL
MODEL 4
REMARK VINA RESULT:      -7.1      4.430      8.355
REMARK  Name = 
REMARK  8 active torsions:
REMARK  status: ('A' for Active; 'I' for Inactive)
REMARK    1  A    between atoms: C_1  and  C_2
REMARK    2  A    between atoms: C_2  and  C_3
REMARK    3  A    between atoms: C_2  and  O_4
REMARK    4  A    between atoms: O_4  and  C_5
REMARK    5  A    between atoms: N_13  and  C_14
REMARK    6  A    between atoms: C_14  and  O_15
REMARK    7  A    between atoms: O_15  and  C_16
REMARK    8  A    between atoms: C_16  and  C_18
REMARK                            x       y       z     vdW  Elec       q    Type
REMARK                         _______ _______ _______ _____ _____    ______ ____
ROOT
ATOM      1  C   UNL     1       1.207   9.937  20.409  0.00  0.00    +0.000 A 
ATOM      2  C   UNL     1       0.983  11.021  19.544  0.00  0.00    +0.000 A 
ATOM      3  C   UNL     1       1.218  10.911  18.158  0.00  0.00    +0.000 A 
ATOM      4  C   UNL     1       1.732   9.736  17.611  0.00  0.00    +0.000 A 
ATOM      5  C   UNL     1       1.901   8.671  18.480  0.00  0.00    +0.000 A 
ATOM      6  C   UNL     1       1.557   8.738  19.829  0.00  0.00    +0.000 A 
ATOM      7  C   UNL     1       1.686   7.427  20.472  0.00  0.00    +0.000 C 
ATOM      8  O   UNL     1       1.101   7.066  21.474  0.00  0.00    +0.000 OA
ATOM      9  N   UNL     1       2.590   6.657  19.731  0.00  0.00    +0.000 N 
ATOM     10  S   UNL     1       2.676   7.143  18.130  0.00  0.00    +0.000 S 
ATOM     11  O   UNL     1       4.054   7.398  17.794  0.00  0.00    +0.000 OA
ATOM     12  O   UNL     1       1.786   6.340  17.334  0.00  0.00    +0.000 OA
ENDROOT
BRANCH   1  13
ATOM     13  O   UNL     1       1.059  10.189  21.744  0.00  0.00    +0.000 OA
BRANCH  13  15
ATOM     14  C   UNL     1      -0.369   9.370  23.551  0.00  0.00    +0.000 C 
ATOM     15  C   UNL     1      -0.281  10.205  22.280  0.00  0.00    +0.000 C 
ATOM     16  C   UNL     1      -0.656  11.659  22.544  0.00  0.00    +0.000 C 
ENDBRANCH  13  15
ENDBRANCH   1  13
BRANCH   9  17
ATOM     17  C   UNL     1       3.173   5.404  20.140  0.00  0.00    +0.000 C 
BRANCH  17  18
ATOM     18  O   UNL     1       4.535   5.402  19.680  0.00  0.00    +0.000 OA
BRANCH  18  19
ATOM     19  C   UNL     1       5.001   4.234  19.183  0.00  0.00    +0.000 C 
ATOM     20  O   UNL     1       5.015   3.170  19.787  0.00  0.00    +0.000 OA
BRANCH  19  21
ATOM     21  C   UNL     1       5.516   4.398  17.798  0.00  0.00    +0.000 A 
ATOM     22  C   UNL     1       6.772   4.974  17.531  0.00  0.00    +0.000 A 
ATOM     23 CL   UNL     1       7.873   5.503  18.758  0.00  0.00    +0.000 Cl
ATOM     24  C   UNL     1       7.187   5.203  16.208  0.00  0.00    +0.000 A 
ATOM     25  C   UNL     1       6.359   4.879  15.138  0.00  0.00    +0.000 A 
ATOM     26  C   UNL     1       5.118   4.305  15.387  0.00  0.00    +0.000 A 
ATOM     27  C   UNL     1       4.696   4.057  16.706  0.00  0.00    +0.000 A 
ATOM     28 CL   UNL     1       3.150   3.298  16.865  0.00  0.00    +0.000 Cl
ENDBRANCH  19  21
ENDBRANCH  18  19
ENDBRANCH  17  18
ENDBRANCH   9  17
TORSDOF 6
ENDMDL
MODEL 5
REMARK VINA RESULT:      -7.1      1.519      3.142
REMARK  Name = 
REMARK  8 active torsions:
REMARK  status: ('A' for Active; 'I' for Inactive)
REMARK    1  A    between atoms: C_1  and  C_2
REMARK    2  A    between atoms: C_2  and  C_3
REMARK    3  A    between atoms: C_2  and  O_4
REMARK    4  A    between atoms: O_4  and  C_5
REMARK    5  A    between atoms: N_13  and  C_14
REMARK    6  A    between atoms: C_14  and  O_15
REMARK    7  A    between atoms: O_15  and  C_16
REMARK    8  A    between atoms: C_16  and  C_18
REMARK                            x       y       z     vdW  Elec       q    Type
REMARK                         _______ _______ _______ _____ _____    ______ ____
ROOT
ATOM      1  C   UNL     1       3.285   6.791  18.357  0.00  0.00    +0.000 A 
ATOM      2  C   UNL     1       3.551   5.518  18.887  0.00  0.00    +0.000 A 
ATOM      3  C   UNL     1       2.944   5.082  20.082  0.00  0.00    +0.000 A 
ATOM      4  C   UNL     1       2.099   5.924  20.803  0.00  0.00    +0.000 A 
ATOM      5  C   UNL     1       1.821   7.157  20.236  0.00  0.00    +0.000 A 
ATOM      6  C   UNL     1       2.325   7.545  18.995  0.00  0.00    +0.000 A 
ATOM      7  C   UNL     1       1.743   8.819  18.564  0.00  0.00    +0.000 C 
ATOM      8  O   UNL     1       1.652   9.208  17.418  0.00  0.00    +0.000 OA
ATOM      9  N   UNL     1       1.299   9.509  19.699  0.00  0.00    +0.000 N 
ATOM     10  S   UNL     1       0.946   8.480  20.972  0.00  0.00    +0.000 S 
ATOM     11  O   UNL     1       1.674   8.913  22.138  0.00  0.00    +0.000 OA
ATOM     12  O   UNL     1      -0.459   8.170  20.967  0.00  0.00    +0.000 OA
ENDROOT
BRANCH   1  13
ATOM     13  O   UNL     1       4.016   7.154  17.261  0.00  0.00    +0.000 OA
BRANCH  13  15
ATOM     14  C   UNL     1       5.194   6.026  15.441  0.00  0.00    +0.000 C 
ATOM     15  C   UNL     1       5.170   6.356  16.928  0.00  0.00    +0.000 C 
ATOM     16  C   UNL     1       6.410   7.140  17.342  0.00  0.00    +0.000 C 
ENDBRANCH  13  15
ENDBRANCH   1  13
BRANCH   9  17
ATOM     17  C   UNL     1       0.880  10.888  19.745  0.00  0.00    +0.000 C 
BRANCH  17  18
ATOM     18  O   UNL     1      -0.547  10.902  19.575  0.00  0.00    +0.000 OA
BRANCH  18  19
ATOM     19  C   UNL     1      -1.058  11.933  18.866  0.00  0.00    +0.000 C 
ATOM     20  O   UNL     1      -0.403  12.846  18.382  0.00  0.00    +0.000 OA
BRANCH  19  21
ATOM     21  C   UNL     1      -2.537  11.834  18.751  0.00  0.00    +0.000 A 
ATOM     22  C   UNL     1      -3.163  11.235  17.640  0.00  0.00    +0.000 A 
ATOM     23 CL   UNL     1      -2.304  10.508  16.324  0.00  0.00    +0.000 Cl
ATOM     24  C   UNL     1      -4.562  11.244  17.517  0.00  0.00    +0.000 A 
ATOM     25  C   UNL     1      -5.356  11.857  18.481  0.00  0.00    +0.000 A 
ATOM     26  C   UNL     1      -4.753  12.448  19.586  0.00  0.00    +0.000 A 
ATOM     27  C   UNL     1      -3.353  12.433  19.728  0.00  0.00    +0.000 A 
ATOM     28 CL   UNL     1      -2.743  13.165  21.173  0.00  0.00    +0.000 Cl
ENDBRANCH  19  21
ENDBRANCH  18  19
ENDBRANCH  17  18
ENDBRANCH   9  17
TORSDOF 6
ENDMDL
MODEL 6
REMARK VINA RESULT:      -7.1      1.550      3.597
REMARK  Name = 
REMARK  8 active torsions:
REMARK  status: ('A' for Active; 'I' for Inactive)
REMARK    1  A    between atoms: C_1  and  C_2
REMARK    2  A    between atoms: C_2  and  C_3
REMARK    3  A    between atoms: C_2  and  O_4
REMARK    4  A    between atoms: O_4  and  C_5
REMARK    5  A    between atoms: N_13  and  C_14
REMARK    6  A    between atoms: C_14  and  O_15
REMARK    7  A    between atoms: O_15  and  C_16
REMARK    8  A    between atoms: C_16  and  C_18
REMARK                            x       y       z     vdW  Elec       q    Type
REMARK                         _______ _______ _______ _____ _____    ______ ____
ROOT
ATOM      1  C   UNL     1       3.232   6.809  18.375  0.00  0.00    +0.000 A 
ATOM      2  C   UNL     1       3.454   5.517  18.878  0.00  0.00    +0.000 A 
ATOM      3  C   UNL     1       2.828   5.075  20.062  0.00  0.00    +0.000 A 
ATOM      4  C   UNL     1       2.008   5.928  20.798  0.00  0.00    +0.000 A 
ATOM      5  C   UNL     1       1.772   7.181  20.257  0.00  0.00    +0.000 A 
ATOM      6  C   UNL     1       2.294   7.579  19.027  0.00  0.00    +0.000 A 
ATOM      7  C   UNL     1       1.755   8.881  18.621  0.00  0.00    +0.000 C 
ATOM      8  O   UNL     1       1.682   9.298  17.483  0.00  0.00    +0.000 OA
ATOM      9  N   UNL     1       1.329   9.560  19.769  0.00  0.00    +0.000 N 
ATOM     10  S   UNL     1       0.937   8.515  21.018  0.00  0.00    +0.000 S 
ATOM     11  O   UNL     1       1.674   8.899  22.196  0.00  0.00    +0.000 OA
ATOM     12  O   UNL     1      -0.477   8.252  21.001  0.00  0.00    +0.000 OA
ENDROOT
BRANCH   1  13
ATOM     13  O   UNL     1       3.978   7.172  17.290  0.00  0.00    +0.000 OA
BRANCH  13  15
ATOM     14  C   UNL     1       5.198   5.965  15.550  0.00  0.00    +0.000 C 
ATOM     15  C   UNL     1       5.169   6.408  17.007  0.00  0.00    +0.000 C 
ATOM     16  C   UNL     1       6.371   7.281  17.345  0.00  0.00    +0.000 C 
ENDBRANCH  13  15
ENDBRANCH   1  13
BRANCH   9  17
ATOM     17  C   UNL     1       0.954  10.951  19.844  0.00  0.00    +0.000 C 
BRANCH  17  18
ATOM     18  O   UNL     1      -0.473  11.013  19.685  0.00  0.00    +0.000 OA
BRANCH  18  19
ATOM     19  C   UNL     1      -0.947  11.993  18.884  0.00  0.00    +0.000 C 
ATOM     20  O   UNL     1      -0.255  12.786  18.259  0.00  0.00    +0.000 OA
BRANCH  19  21
ATOM     21  C   UNL     1      -2.433  12.004  18.860  0.00  0.00    +0.000 A 
ATOM     22  C   UNL     1      -3.195  12.566  19.903  0.00  0.00    +0.000 A 
ATOM     23 CL   UNL     1      -2.507  13.344  21.288  0.00  0.00    +0.000 Cl
ATOM     24  C   UNL     1      -4.596  12.474  19.895  0.00  0.00    +0.000 A 
ATOM     25  C   UNL     1      -5.259  11.814  18.865  0.00  0.00    +0.000 A 
ATOM     26  C   UNL     1      -4.521  11.259  17.825  0.00  0.00    +0.000 A 
ATOM     27  C   UNL     1      -3.118  11.356  17.814  0.00  0.00    +0.000 A 
ATOM     28 CL   UNL     1      -2.333  10.661  16.438  0.00  0.00    +0.000 Cl
ENDBRANCH  19  21
ENDBRANCH  18  19
ENDBRANCH  17  18
ENDBRANCH   9  17
TORSDOF 6
ENDMDL
MODEL 7
REMARK VINA RESULT:      -7.0      6.358      8.882
REMARK  Name = 
REMARK  8 active torsions:
REMARK  status: ('A' for Active; 'I' for Inactive)
REMARK    1  A    between atoms: C_1  and  C_2
REMARK    2  A    between atoms: C_2  and  C_3
REMARK    3  A    between atoms: C_2  and  O_4
REMARK    4  A    between atoms: O_4  and  C_5
REMARK    5  A    between atoms: N_13  and  C_14
REMARK    6  A    between atoms: C_14  and  O_15
REMARK    7  A    between atoms: O_15  and  C_16
REMARK    8  A    between atoms: C_16  and  C_18
REMARK                            x       y       z     vdW  Elec       q    Type
REMARK                         _______ _______ _______ _____ _____    ______ ____
ROOT
ATOM      1  C   UNL     1       5.926   4.044  13.409  0.00  0.00    +0.000 A 
ATOM      2  C   UNL     1       6.950   4.435  12.532  0.00  0.00    +0.000 A 
ATOM      3  C   UNL     1       8.027   5.231  12.973  0.00  0.00    +0.000 A 
ATOM      4  C   UNL     1       8.079   5.698  14.286  0.00  0.00    +0.000 A 
ATOM      5  C   UNL     1       7.079   5.262  15.139  0.00  0.00    +0.000 A 
ATOM      6  C   UNL     1       6.079   4.378  14.736  0.00  0.00    +0.000 A 
ATOM      7  C   UNL     1       5.256   3.957  15.874  0.00  0.00    +0.000 C 
ATOM      8  O   UNL     1       4.605   2.935  15.942  0.00  0.00    +0.000 OA
ATOM      9  N   UNL     1       5.357   4.931  16.876  0.00  0.00    +0.000 N 
ATOM     10  S   UNL     1       6.782   5.804  16.775  0.00  0.00    +0.000 S 
ATOM     11  O   UNL     1       6.467   7.210  16.737  0.00  0.00    +0.000 OA
ATOM     12  O   UNL     1       7.768   5.221  17.646  0.00  0.00    +0.000 OA
ENDROOT
BRANCH   1  13
ATOM     13  O   UNL     1       4.874   3.373  12.850  0.00  0.00    +0.000 OA
BRANCH  13  15
ATOM     14  C   UNL     1       5.559   1.615  11.296  0.00  0.00    +0.000 C 
ATOM     15  C   UNL     1       4.972   3.012  11.456  0.00  0.00    +0.000 C 
ATOM     16  C   UNL     1       3.574   3.098  10.856  0.00  0.00    +0.000 C 
ENDBRANCH  13  15
ENDBRANCH   1  13
BRANCH   9  17
ATOM     17  C   UNL     1       4.533   5.024  18.056  0.00  0.00    +0.000 C 
BRANCH  17  18
ATOM     18  O   UNL     1       3.266   5.562  17.644  0.00  0.00    +0.000 OA
BRANCH  18  19
ATOM     19  C   UNL     1       2.185   4.774  17.838  0.00  0.00    +0.000 C 
ATOM     20  O   UNL     1       1.298   4.584  17.016  0.00  0.00    +0.000 OA
BRANCH  19  21
ATOM     21  C   UNL     1       2.193   4.163  19.193  0.00  0.00    +0.000 A 
ATOM     22  C   UNL     1       2.063   4.936  20.363  0.00  0.00    +0.000 A 
ATOM     23 CL   UNL     1       1.829   6.651  20.365  0.00  0.00    +0.000 Cl
ATOM     24  C   UNL     1       2.171   4.339  21.630  0.00  0.00    +0.000 A 
ATOM     25  C   UNL     1       2.424   2.976  21.754  0.00  0.00    +0.000 A 
ATOM     26  C   UNL     1       2.549   2.200  20.608  0.00  0.00    +0.000 A 
ATOM     27  C   UNL     1       2.429   2.782  19.333  0.00  0.00    +0.000 A 
ATOM     28 CL   UNL     1       2.562   1.690  17.998  0.00  0.00    +0.000 Cl
ENDBRANCH  19  21
ENDBRANCH  18  19
ENDBRANCH  17  18
ENDBRANCH   9  17
TORSDOF 6
ENDMDL
MODEL 8
REMARK VINA RESULT:      -6.9      3.731      5.428
REMARK  Name = 
REMARK  8 active torsions:
REMARK  status: ('A' for Active; 'I' for Inactive)
REMARK    1  A    between atoms: C_1  and  C_2
REMARK    2  A    between atoms: C_2  and  C_3
REMARK    3  A    between atoms: C_2  and  O_4
REMARK    4  A    between atoms: O_4  and  C_5
REMARK    5  A    between atoms: N_13  and  C_14
REMARK    6  A    between atoms: C_14  and  O_15
REMARK    7  A    between atoms: O_15  and  C_16
REMARK    8  A    between atoms: C_16  and  C_18
REMARK                            x       y       z     vdW  Elec       q    Type
REMARK                         _______ _______ _______ _____ _____    ______ ____
ROOT
ATOM      1  C   UNL     1       5.752   6.267  16.668  0.00  0.00    +0.000 A 
ATOM      2  C   UNL     1       6.330   5.161  16.023  0.00  0.00    +0.000 A 
ATOM      3  C   UNL     1       5.702   3.898  16.032  0.00  0.00    +0.000 A 
ATOM      4  C   UNL     1       4.511   3.698  16.728  0.00  0.00    +0.000 A 
ATOM      5  C   UNL     1       3.942   4.814  17.318  0.00  0.00    +0.000 A 
ATOM      6  C   UNL     1       4.498   6.088  17.210  0.00  0.00    +0.000 A 
ATOM      7  C   UNL     1       3.609   7.102  17.784  0.00  0.00    +0.000 C 
ATOM      8  O   UNL     1       3.598   8.282  17.498  0.00  0.00    +0.000 OA
ATOM      9  N   UNL     1       2.767   6.478  18.712  0.00  0.00    +0.000 N 
ATOM     10  S   UNL     1       2.560   4.848  18.388  0.00  0.00    +0.000 S 
ATOM     11  O   UNL     1       2.883   4.092  19.572  0.00  0.00    +0.000 OA
ATOM     12  O   UNL     1       1.363   4.659  17.612  0.00  0.00    +0.000 OA
ENDROOT
BRANCH   1  13
ATOM     13  O   UNL     1       6.500   7.410  16.696  0.00  0.00    +0.000 OA
BRANCH  13  15
ATOM     14  C   UNL     1       8.131   8.770  17.905  0.00  0.00    +0.000 C 
ATOM     15  C   UNL     1       7.748   7.378  17.419  0.00  0.00    +0.000 C 
ATOM     16  C   UNL     1       7.583   6.409  18.584  0.00  0.00    +0.000 C 
ENDBRANCH  13  15
ENDBRANCH   1  13
BRANCH   9  17
ATOM     17  C   UNL     1       1.910   7.142  19.663  0.00  0.00    +0.000 C 
BRANCH  17  18
ATOM     18  O   UNL     1       2.131   8.555  19.515  0.00  0.00    +0.000 OA
BRANCH  18  19
ATOM     19  C   UNL     1       1.072   9.290  19.109  0.00  0.00    +0.000 C 
ATOM     20  O   UNL     1       0.491   9.155  18.040  0.00  0.00    +0.000 OA
BRANCH  19  21
ATOM     21  C   UNL     1       0.695  10.309  20.124  0.00  0.00    +0.000 A 
ATOM     22  C   UNL     1      -0.061   9.983  21.266  0.00  0.00    +0.000 A 
ATOM     23 CL   UNL     1      -0.589   8.379  21.649  0.00  0.00    +0.000 Cl
ATOM     24  C   UNL     1      -0.481  10.986  22.155  0.00  0.00    +0.000 A 
ATOM     25  C   UNL     1      -0.172  12.322  21.917  0.00  0.00    +0.000 A 
ATOM     26  C   UNL     1       0.578  12.658  20.796  0.00  0.00    +0.000 A 
ATOM     27  C   UNL     1       1.017  11.662  19.905  0.00  0.00    +0.000 A 
ATOM     28 CL   UNL     1       1.979  12.218  18.579  0.00  0.00    +0.000 Cl
ENDBRANCH  19  21
ENDBRANCH  18  19
ENDBRANCH  17  18
ENDBRANCH   9  17
TORSDOF 6
ENDMDL
MODEL 9
REMARK VINA RESULT:      -6.9      0.897      2.005
REMARK  Name = 
REMARK  8 active torsions:
REMARK  status: ('A' for Active; 'I' for Inactive)
REMARK    1  A    between atoms: C_1  and  C_2
REMARK    2  A    between atoms: C_2  and  C_3
REMARK    3  A    between atoms: C_2  and  O_4
REMARK    4  A    between atoms: O_4  and  C_5
REMARK    5  A    between atoms: N_13  and  C_14
REMARK    6  A    between atoms: C_14  and  O_15
REMARK    7  A    between atoms: O_15  and  C_16
REMARK    8  A    between atoms: C_16  and  C_18
REMARK                            x       y       z     vdW  Elec       q    Type
REMARK                         _______ _______ _______ _____ _____    ______ ____
ROOT
ATOM      1  C   UNL     1       2.493   6.265  19.844  0.00  0.00    +0.000 A 
ATOM      2  C   UNL     1       3.360   5.765  18.859  0.00  0.00    +0.000 A 
ATOM      3  C   UNL     1       3.682   6.522  17.715  0.00  0.00    +0.000 A 
ATOM      4  C   UNL     1       3.105   7.774  17.501  0.00  0.00    +0.000 A 
ATOM      5  C   UNL     1       2.289   8.260  18.508  0.00  0.00    +0.000 A 
ATOM      6  C   UNL     1       2.063   7.565  19.695  0.00  0.00    +0.000 A 
ATOM      7  C   UNL     1       1.299   8.379  20.646  0.00  0.00    +0.000 C 
ATOM      8  O   UNL     1       1.293   8.244  21.852  0.00  0.00    +0.000 OA
ATOM      9  N   UNL     1       0.585   9.345  19.927  0.00  0.00    +0.000 N 
ATOM     10  S   UNL     1       1.300   9.702  18.455  0.00  0.00    +0.000 S 
ATOM     11  O   UNL     1       0.321   9.543  17.409  0.00  0.00    +0.000 OA
ATOM     12  O   UNL     1       2.149  10.855  18.599  0.00  0.00    +0.000 OA
ENDROOT
BRANCH   1  13
ATOM     13  O   UNL     1       2.159   5.403  20.851  0.00  0.00    +0.000 OA
BRANCH  13  15
ATOM     14  C   UNL     1       2.376   3.135  21.734  0.00  0.00    +0.000 C 
ATOM     15  C   UNL     1       2.048   4.002  20.525  0.00  0.00    +0.000 C 
ATOM     16  C   UNL     1       0.626   3.753  20.033  0.00  0.00    +0.000 C 
ENDBRANCH  13  15
ENDBRANCH   1  13
BRANCH   9  17
ATOM     17  C   UNL     1      -0.462  10.189  20.447  0.00  0.00    +0.000 C 
BRANCH  17  18
ATOM     18  O   UNL     1      -1.245  10.631  19.326  0.00  0.00    +0.000 OA
BRANCH  18  19
ATOM     19  C   UNL     1      -1.519  11.954  19.268  0.00  0.00    +0.000 C 
ATOM     20  O   UNL     1      -0.742  12.816  18.880  0.00  0.00    +0.000 OA
BRANCH  19  21
ATOM     21  C   UNL     1      -2.895  12.245  19.749  0.00  0.00    +0.000 A 
ATOM     22  C   UNL     1      -3.150  12.694  21.059  0.00  0.00    +0.000 A 
ATOM     23 CL   UNL     1      -1.913  13.005  22.230  0.00  0.00    +0.000 Cl
ATOM     24  C   UNL     1      -4.469  12.868  21.512  0.00  0.00    +0.000 A 
ATOM     25  C   UNL     1      -5.548  12.586  20.680  0.00  0.00    +0.000 A 
ATOM     26  C   UNL     1      -5.312  12.147  19.383  0.00  0.00    +0.000 A 
ATOM     27  C   UNL     1      -3.996  11.983  18.912  0.00  0.00    +0.000 A 
ATOM     28 CL   UNL     1      -3.851  11.475  17.265  0.00  0.00    +0.000 Cl
ENDBRANCH  19  21
ENDBRANCH  18  19
ENDBRANCH  17  18
ENDBRANCH   9  17
TORSDOF 6
ENDMDL
