MODEL 1
REMARK VINA RESULT:      -8.6      0.000      0.000
REMARK  Name = 
REMARK  6 active torsions:
REMARK  status: ('A' for Active; 'I' for Inactive)
REMARK    1  A    between atoms: C_1  and  N_2
REMARK    2  A    between atoms: C_7  and  C_8
REMARK    3  A    between atoms: C_8  and  C_9
REMARK    4  A    between atoms: C_8  and  C_13
REMARK    5  A    between atoms: C_9  and  C_10
REMARK    6  A    between atoms: C_10  and  O_12
REMARK                            x       y       z     vdW  Elec       q    Type
REMARK                         _______ _______ _______ _____ _____    ______ ____
ROOT
ATOM      1  C   UNL     1       5.782   4.618  16.171  0.00  0.00    +0.000 C 
ENDROOT
BRANCH   1   2
ATOM      2  C   UNL     1       4.530   4.952  16.988  0.00  0.00    +0.000 A 
ATOM      3  C   UNL     1       4.048   6.214  17.289  0.00  0.00    +0.000 A 
ATOM      4  N   UNL     1       2.892   6.098  18.008  0.00  0.00    +0.000 N 
ATOM      5  C   UNL     1       2.578   4.776  18.187  0.00  0.00    +0.000 A 
ATOM      6  C   UNL     1       1.484   4.213  18.848  0.00  0.00    +0.000 A 
ATOM      7  C   UNL     1       1.417   2.823  18.919  0.00  0.00    +0.000 A 
ATOM      8  C   UNL     1       2.408   2.035  18.339  0.00  0.00    +0.000 A 
ATOM      9  C   UNL     1       3.490   2.620  17.659  0.00  0.00    +0.000 A 
ATOM     10  C   UNL     1       3.590   4.026  17.578  0.00  0.00    +0.000 A 
ATOM     11  H   UNL     1       2.347   6.868  18.369  0.00  0.00    +0.000 HD
ENDBRANCH   1   2
BRANCH   1  18
ATOM     12  C   UNL     1       8.457   9.300  18.316  0.00  0.00    +0.000 C 
ATOM     13  N   UNL     1       7.867   8.475  17.292  0.00  0.00    +0.000 N 
ATOM     14  C   UNL     1       7.583   7.170  17.510  0.00  0.00    +0.000 C 
ATOM     15  N   UNL     1       7.424   6.548  18.621  0.00  0.00    +0.000 NA
ATOM     16  C   UNL     1       7.095   5.262  18.276  0.00  0.00    +0.000 C 
ATOM     17  O   UNL     1       6.874   4.350  19.054  0.00  0.00    +0.000 OA
ATOM     18  C   UNL     1       7.107   5.138  16.773  0.00  0.00    +0.000 C 
ATOM     19  O   UNL     1       7.442   6.468  16.355  0.00  0.00    +0.000 OA
ATOM     20  H   UNL     1       8.106   8.713  16.338  0.00  0.00    +0.000 HD
ENDBRANCH   1  18
BRANCH   1  21
ATOM     21  C   UNL     1       5.598   5.139  14.726  0.00  0.00    +0.000 C 
BRANCH  21  22
ATOM     22  C   UNL     1       6.621   4.572  13.770  0.00  0.00    +0.000 C 
ATOM     23  O   UNL     1       7.566   5.196  13.318  0.00  0.00    +0.000 OA
BRANCH  22  24
ATOM     24  O   UNL     1       6.397   3.276  13.452  0.00  0.00    +0.000 OA
ATOM     25  H   UNL     1       6.616   3.037  12.532  0.00  0.00    +0.000 HD
ENDBRANCH  22  24
ENDBRANCH  21  22
ENDBRANCH   1  21
TORSDOF 5
ENDMDL
MODEL 2
REMARK VINA RESULT:      -8.4      1.245      1.278
REMARK  Name = 
REMARK  6 active torsions:
REMARK  status: ('A' for Active; 'I' for Inactive)
REMARK    1  A    between atoms: C_1  and  N_2
REMARK    2  A    between atoms: C_7  and  C_8
REMARK    3  A    between atoms: C_8  and  C_9
REMARK    4  A    between atoms: C_8  and  C_13
REMARK    5  A    between atoms: C_9  and  C_10
REMARK    6  A    between atoms: C_10  and  O_12
REMARK                            x       y       z     vdW  Elec       q    Type
REMARK                         _______ _______ _______ _____ _____    ______ ____
ROOT
ATOM      1  C   UNL     1       5.860   5.224  16.588  0.00  0.00    +0.000 C 
ENDROOT
BRANCH   1   2
ATOM      2  C   UNL     1       4.733   5.822  17.435  0.00  0.00    +0.000 A 
ATOM      3  C   UNL     1       4.171   7.080  17.299  0.00  0.00    +0.000 A 
ATOM      4  N   UNL     1       3.172   7.231  18.217  0.00  0.00    +0.000 N 
ATOM      5  C   UNL     1       3.041   6.089  18.964  0.00  0.00    +0.000 A 
ATOM      6  C   UNL     1       2.141   5.811  19.997  0.00  0.00    +0.000 A 
ATOM      7  C   UNL     1       2.242   4.572  20.625  0.00  0.00    +0.000 A 
ATOM      8  C   UNL     1       3.203   3.648  20.222  0.00  0.00    +0.000 A 
ATOM      9  C   UNL     1       4.085   3.938  19.166  0.00  0.00    +0.000 A 
ATOM     10  C   UNL     1       4.013   5.190  18.517  0.00  0.00    +0.000 A 
ATOM     11  H   UNL     1       2.613   8.063  18.344  0.00  0.00    +0.000 HD
ENDBRANCH   1   2
BRANCH   1  18
ATOM     12  C   UNL     1       8.780   9.812  18.613  0.00  0.00    +0.000 C 
ATOM     13  N   UNL     1       7.985   9.072  17.667  0.00  0.00    +0.000 N 
ATOM     14  C   UNL     1       7.827   7.732  17.769  0.00  0.00    +0.000 C 
ATOM     15  N   UNL     1       7.988   6.971  18.789  0.00  0.00    +0.000 NA
ATOM     16  C   UNL     1       7.641   5.713  18.366  0.00  0.00    +0.000 C 
ATOM     17  O   UNL     1       7.669   4.700  19.042  0.00  0.00    +0.000 OA
ATOM     18  C   UNL     1       7.271   5.771  16.905  0.00  0.00    +0.000 C 
ATOM     19  O   UNL     1       7.425   7.164  16.601  0.00  0.00    +0.000 OA
ATOM     20  H   UNL     1       7.959   9.440  16.724  0.00  0.00    +0.000 HD
ENDBRANCH   1  18
BRANCH   1  21
ATOM     21  C   UNL     1       5.526   5.416  15.089  0.00  0.00    +0.000 C 
BRANCH  21  22
ATOM     22  C   UNL     1       6.513   4.723  14.180  0.00  0.00    +0.000 C 
ATOM     23  O   UNL     1       7.390   5.290  13.550  0.00  0.00    +0.000 OA
BRANCH  22  24
ATOM     24  O   UNL     1       6.342   3.382  14.126  0.00  0.00    +0.000 OA
ATOM     25  H   UNL     1       5.417   3.092  14.016  0.00  0.00    +0.000 HD
ENDBRANCH  22  24
ENDBRANCH  21  22
ENDBRANCH   1  21
TORSDOF 5
ENDMDL
MODEL 3
REMARK VINA RESULT:      -8.0      1.162      2.262
REMARK  Name = 
REMARK  6 active torsions:
REMARK  status: ('A' for Active; 'I' for Inactive)
REMARK    1  A    between atoms: C_1  and  N_2
REMARK    2  A    between atoms: C_7  and  C_8
REMARK    3  A    between atoms: C_8  and  C_9
REMARK    4  A    between atoms: C_8  and  C_13
REMARK    5  A    between atoms: C_9  and  C_10
REMARK    6  A    between atoms: C_10  and  O_12
REMARK                            x       y       z     vdW  Elec       q    Type
REMARK                         _______ _______ _______ _____ _____    ______ ____
ROOT
ATOM      1  C   UNL     1       6.016   4.407  16.286  0.00  0.00    +0.000 C 
ENDROOT
BRANCH   1   2
ATOM      2  C   UNL     1       4.845   4.511  17.269  0.00  0.00    +0.000 A 
ATOM      3  C   UNL     1       4.306   3.487  18.029  0.00  0.00    +0.000 A 
ATOM      4  N   UNL     1       3.298   3.982  18.805  0.00  0.00    +0.000 N 
ATOM      5  C   UNL     1       3.156   5.329  18.592  0.00  0.00    +0.000 A 
ATOM      6  C   UNL     1       2.260   6.224  19.184  0.00  0.00    +0.000 A 
ATOM      7  C   UNL     1       2.298   7.550  18.760  0.00  0.00    +0.000 A 
ATOM      8  C   UNL     1       3.209   7.959  17.789  0.00  0.00    +0.000 A 
ATOM      9  C   UNL     1       4.117   7.048  17.221  0.00  0.00    +0.000 A 
ATOM     10  C   UNL     1       4.095   5.694  17.623  0.00  0.00    +0.000 A 
ATOM     11  H   UNL     1       2.726   3.441  19.439  0.00  0.00    +0.000 HD
ENDBRANCH   1   2
BRANCH   1  18
ATOM     12  C   UNL     1       8.347   9.374  18.176  0.00  0.00    +0.000 C 
ATOM     13  N   UNL     1       7.761   8.480  17.211  0.00  0.00    +0.000 N 
ATOM     14  C   UNL     1       7.642   7.154  17.454  0.00  0.00    +0.000 C 
ATOM     15  N   UNL     1       7.652   6.530  18.576  0.00  0.00    +0.000 NA
ATOM     16  C   UNL     1       7.436   5.212  18.263  0.00  0.00    +0.000 C 
ATOM     17  O   UNL     1       7.387   4.289  19.057  0.00  0.00    +0.000 OA
ATOM     18  C   UNL     1       7.325   5.074  16.765  0.00  0.00    +0.000 C 
ATOM     19  O   UNL     1       7.474   6.428  16.317  0.00  0.00    +0.000 OA
ATOM     20  H   UNL     1       7.885   8.731  16.238  0.00  0.00    +0.000 HD
ENDBRANCH   1  18
BRANCH   1  21
ATOM     21  C   UNL     1       5.580   4.981  14.917  0.00  0.00    +0.000 C 
BRANCH  21  22
ATOM     22  C   UNL     1       6.450   4.497  13.781  0.00  0.00    +0.000 C 
ATOM     23  O   UNL     1       6.248   3.480  13.139  0.00  0.00    +0.000 OA
BRANCH  22  24
ATOM     24  O   UNL     1       7.500   5.311  13.524  0.00  0.00    +0.000 OA
ATOM     25  H   UNL     1       8.376   4.902  13.651  0.00  0.00    +0.000 HD
ENDBRANCH  22  24
ENDBRANCH  21  22
ENDBRANCH   1  21
TORSDOF 5
ENDMDL
MODEL 4
REMARK VINA RESULT:      -7.8      2.300      4.297
REMARK  Name = 
REMARK  6 active torsions:
REMARK  status: ('A' for Active; 'I' for Inactive)
REMARK    1  A    between atoms: C_1  and  N_2
REMARK    2  A    between atoms: C_7  and  C_8
REMARK    3  A    between atoms: C_8  and  C_9
REMARK    4  A    between atoms: C_8  and  C_13
REMARK    5  A    between atoms: C_9  and  C_10
REMARK    6  A    between atoms: C_10  and  O_12
REMARK                            x       y       z     vdW  Elec       q    Type
REMARK                         _______ _______ _______ _____ _____    ______ ____
ROOT
ATOM      1  C   UNL     1       4.853   4.909  17.074  0.00  0.00    +0.000 C 
ENDROOT
BRANCH   1   2
ATOM      2  C   UNL     1       3.955   3.833  17.691  0.00  0.00    +0.000 A 
ATOM      3  C   UNL     1       3.962   2.479  17.401  0.00  0.00    +0.000 A 
ATOM      4  N   UNL     1       3.039   1.844  18.182  0.00  0.00    +0.000 N 
ATOM      5  C   UNL     1       2.418   2.745  19.006  0.00  0.00    +0.000 A 
ATOM      6  C   UNL     1       1.426   2.522  19.965  0.00  0.00    +0.000 A 
ATOM      7  C   UNL     1       0.931   3.629  20.651  0.00  0.00    +0.000 A 
ATOM      8  C   UNL     1       1.422   4.905  20.388  0.00  0.00    +0.000 A 
ATOM      9  C   UNL     1       2.436   5.107  19.434  0.00  0.00    +0.000 A 
ATOM     10  C   UNL     1       2.951   4.005  18.716  0.00  0.00    +0.000 A 
ATOM     11  H   UNL     1       2.830   0.856  18.155  0.00  0.00    +0.000 HD
ENDBRANCH   1   2
BRANCH   1  18
ATOM     12  C   UNL     1       6.967   3.428  11.876  0.00  0.00    +0.000 C 
ATOM     13  N   UNL     1       6.135   3.293  13.045  0.00  0.00    +0.000 N 
ATOM     14  C   UNL     1       6.370   4.011  14.168  0.00  0.00    +0.000 C 
ATOM     15  N   UNL     1       7.034   5.100  14.311  0.00  0.00    +0.000 NA
ATOM     16  C   UNL     1       6.910   5.432  15.636  0.00  0.00    +0.000 C 
ATOM     17  O   UNL     1       7.411   6.402  16.178  0.00  0.00    +0.000 OA
ATOM     18  C   UNL     1       6.099   4.370  16.335  0.00  0.00    +0.000 C 
ATOM     19  O   UNL     1       5.783   3.467  15.267  0.00  0.00    +0.000 OA
ATOM     20  H   UNL     1       5.720   2.382  13.193  0.00  0.00    +0.000 HD
ENDBRANCH   1  18
BRANCH   1  21
ATOM     21  C   UNL     1       5.265   5.917  18.173  0.00  0.00    +0.000 C 
BRANCH  21  22
ATOM     22  C   UNL     1       6.290   5.349  19.127  0.00  0.00    +0.000 C 
ATOM     23  O   UNL     1       6.081   4.428  19.898  0.00  0.00    +0.000 OA
BRANCH  22  24
ATOM     24  O   UNL     1       7.493   5.963  19.049  0.00  0.00    +0.000 OA
ATOM     25  H   UNL     1       7.894   6.187  19.909  0.00  0.00    +0.000 HD
ENDBRANCH  22  24
ENDBRANCH  21  22
ENDBRANCH   1  21
TORSDOF 5
ENDMDL
MODEL 5
REMARK VINA RESULT:      -7.7      2.470      3.836
REMARK  Name = 
REMARK  6 active torsions:
REMARK  status: ('A' for Active; 'I' for Inactive)
REMARK    1  A    between atoms: C_1  and  N_2
REMARK    2  A    between atoms: C_7  and  C_8
REMARK    3  A    between atoms: C_8  and  C_9
REMARK    4  A    between atoms: C_8  and  C_13
REMARK    5  A    between atoms: C_9  and  C_10
REMARK    6  A    between atoms: C_10  and  O_12
REMARK                            x       y       z     vdW  Elec       q    Type
REMARK                         _______ _______ _______ _____ _____    ______ ____
ROOT
ATOM      1  C   UNL     1       5.180   5.960  18.172  0.00  0.00    +0.000 C 
ENDROOT
BRANCH   1   2
ATOM      2  C   UNL     1       3.961   5.774  19.080  0.00  0.00    +0.000 A 
ATOM      3  C   UNL     1       2.987   6.716  19.366  0.00  0.00    +0.000 A 
ATOM      4  N   UNL     1       2.048   6.161  20.188  0.00  0.00    +0.000 N 
ATOM      5  C   UNL     1       2.366   4.854  20.453  0.00  0.00    +0.000 A 
ATOM      6  C   UNL     1       1.676   3.921  21.233  0.00  0.00    +0.000 A 
ATOM      7  C   UNL     1       2.238   2.654  21.371  0.00  0.00    +0.000 A 
ATOM      8  C   UNL     1       3.439   2.338  20.741  0.00  0.00    +0.000 A 
ATOM      9  C   UNL     1       4.107   3.283  19.942  0.00  0.00    +0.000 A 
ATOM     10  C   UNL     1       3.567   4.579  19.791  0.00  0.00    +0.000 A 
ATOM     11  H   UNL     1       1.241   6.639  20.562  0.00  0.00    +0.000 HD
ENDBRANCH   1   2
BRANCH   1  18
ATOM     12  C   UNL     1       7.646   4.670  13.079  0.00  0.00    +0.000 C 
ATOM     13  N   UNL     1       7.350   5.488  14.227  0.00  0.00    +0.000 N 
ATOM     14  C   UNL     1       6.335   5.186  15.070  0.00  0.00    +0.000 C 
ATOM     15  N   UNL     1       5.738   4.065  15.253  0.00  0.00    +0.000 NA
ATOM     16  C   UNL     1       4.832   4.293  16.256  0.00  0.00    +0.000 C 
ATOM     17  O   UNL     1       4.055   3.473  16.716  0.00  0.00    +0.000 OA
ATOM     18  C   UNL     1       4.906   5.742  16.666  0.00  0.00    +0.000 C 
ATOM     19  O   UNL     1       5.942   6.252  15.817  0.00  0.00    +0.000 OA
ATOM     20  H   UNL     1       7.557   6.475  14.136  0.00  0.00    +0.000 HD
ENDBRANCH   1  18
BRANCH   1  21
ATOM     21  C   UNL     1       6.320   5.034  18.657  0.00  0.00    +0.000 C 
BRANCH  21  22
ATOM     22  C   UNL     1       7.509   5.804  19.185  0.00  0.00    +0.000 C 
ATOM     23  O   UNL     1       8.055   6.722  18.598  0.00  0.00    +0.000 OA
BRANCH  22  24
ATOM     24  O   UNL     1       7.924   5.380  20.402  0.00  0.00    +0.000 OA
ATOM     25  H   UNL     1       8.599   5.944  20.822  0.00  0.00    +0.000 HD
ENDBRANCH  22  24
ENDBRANCH  21  22
ENDBRANCH   1  21
TORSDOF 5
ENDMDL
MODEL 6
REMARK VINA RESULT:      -7.6      2.308      3.700
REMARK  Name = 
REMARK  6 active torsions:
REMARK  status: ('A' for Active; 'I' for Inactive)
REMARK    1  A    between atoms: C_1  and  N_2
REMARK    2  A    between atoms: C_7  and  C_8
REMARK    3  A    between atoms: C_8  and  C_9
REMARK    4  A    between atoms: C_8  and  C_13
REMARK    5  A    between atoms: C_9  and  C_10
REMARK    6  A    between atoms: C_10  and  O_12
REMARK                            x       y       z     vdW  Elec       q    Type
REMARK                         _______ _______ _______ _____ _____    ______ ____
ROOT
ATOM      1  C   UNL     1       4.394   4.396  16.895  0.00  0.00    +0.000 C 
ENDROOT
BRANCH   1   2
ATOM      2  C   UNL     1       3.676   3.381  17.788  0.00  0.00    +0.000 A 
ATOM      3  C   UNL     1       3.688   2.003  17.656  0.00  0.00    +0.000 A 
ATOM      4  N   UNL     1       2.956   1.445  18.664  0.00  0.00    +0.000 N 
ATOM      5  C   UNL     1       2.459   2.424  19.485  0.00  0.00    +0.000 A 
ATOM      6  C   UNL     1       1.674   2.294  20.634  0.00  0.00    +0.000 A 
ATOM      7  C   UNL     1       1.267   3.463  21.273  0.00  0.00    +0.000 A 
ATOM      8  C   UNL     1       1.645   4.710  20.780  0.00  0.00    +0.000 A 
ATOM      9  C   UNL     1       2.453   4.819  19.634  0.00  0.00    +0.000 A 
ATOM     10  C   UNL     1       2.873   3.651  18.960  0.00  0.00    +0.000 A 
ATOM     11  H   UNL     1       2.789   0.456  18.789  0.00  0.00    +0.000 HD
ENDBRANCH   1   2
BRANCH   1  18
ATOM     12  C   UNL     1       8.392   5.599  12.863  0.00  0.00    +0.000 C 
ATOM     13  N   UNL     1       7.077   5.278  13.357  0.00  0.00    +0.000 N 
ATOM     14  C   UNL     1       6.883   4.839  14.623  0.00  0.00    +0.000 C 
ATOM     15  N   UNL     1       7.643   4.960  15.649  0.00  0.00    +0.000 NA
ATOM     16  C   UNL     1       6.949   4.392  16.687  0.00  0.00    +0.000 C 
ATOM     17  O   UNL     1       7.339   4.296  17.837  0.00  0.00    +0.000 OA
ATOM     18  C   UNL     1       5.643   3.849  16.165  0.00  0.00    +0.000 C 
ATOM     19  O   UNL     1       5.693   4.201  14.776  0.00  0.00    +0.000 OA
ATOM     20  H   UNL     1       6.417   4.931  12.673  0.00  0.00    +0.000 HD
ENDBRANCH   1  18
BRANCH   1  21
ATOM     21  C   UNL     1       4.758   5.644  17.735  0.00  0.00    +0.000 C 
BRANCH  21  22
ATOM     22  C   UNL     1       4.400   6.937  17.040  0.00  0.00    +0.000 C 
ATOM     23  O   UNL     1       3.593   7.748  17.461  0.00  0.00    +0.000 OA
BRANCH  22  24
ATOM     24  O   UNL     1       5.073   7.127  15.882  0.00  0.00    +0.000 OA
ATOM     25  H   UNL     1       4.959   8.010  15.483  0.00  0.00    +0.000 HD
ENDBRANCH  22  24
ENDBRANCH  21  22
ENDBRANCH   1  21
TORSDOF 5
ENDMDL
MODEL 7
REMARK VINA RESULT:      -7.6      2.339      4.316
REMARK  Name = 
REMARK  6 active torsions:
REMARK  status: ('A' for Active; 'I' for Inactive)
REMARK    1  A    between atoms: C_1  and  N_2
REMARK    2  A    between atoms: C_7  and  C_8
REMARK    3  A    between atoms: C_8  and  C_9
REMARK    4  A    between atoms: C_8  and  C_13
REMARK    5  A    between atoms: C_9  and  C_10
REMARK    6  A    between atoms: C_10  and  O_12
REMARK                            x       y       z     vdW  Elec       q    Type
REMARK                         _______ _______ _______ _____ _____    ______ ____
ROOT
ATOM      1  C   UNL     1       5.890   5.337  17.827  0.00  0.00    +0.000 C 
ENDROOT
BRANCH   1   2
ATOM      2  C   UNL     1       4.635   4.462  17.895  0.00  0.00    +0.000 A 
ATOM      3  C   UNL     1       4.362   3.340  17.131  0.00  0.00    +0.000 A 
ATOM      4  N   UNL     1       3.159   2.816  17.509  0.00  0.00    +0.000 N 
ATOM      5  C   UNL     1       2.619   3.559  18.526  0.00  0.00    +0.000 A 
ATOM      6  C   UNL     1       1.416   3.370  19.212  0.00  0.00    +0.000 A 
ATOM      7  C   UNL     1       1.079   4.300  20.192  0.00  0.00    +0.000 A 
ATOM      8  C   UNL     1       1.923   5.370  20.476  0.00  0.00    +0.000 A 
ATOM      9  C   UNL     1       3.141   5.531  19.791  0.00  0.00    +0.000 A 
ATOM     10  C   UNL     1       3.505   4.610  18.785  0.00  0.00    +0.000 A 
ATOM     11  H   UNL     1       2.717   2.007  17.097  0.00  0.00    +0.000 HD
ENDBRANCH   1   2
BRANCH   1  18
ATOM     12  C   UNL     1       6.032   3.286  12.400  0.00  0.00    +0.000 C 
ATOM     13  N   UNL     1       6.356   3.316  13.803  0.00  0.00    +0.000 N 
ATOM     14  C   UNL     1       6.105   4.407  14.565  0.00  0.00    +0.000 C 
ATOM     15  N   UNL     1       5.289   5.374  14.354  0.00  0.00    +0.000 NA
ATOM     16  C   UNL     1       5.384   6.180  15.460  0.00  0.00    +0.000 C 
ATOM     17  O   UNL     1       4.771   7.218  15.640  0.00  0.00    +0.000 OA
ATOM     18  C   UNL     1       6.416   5.607  16.399  0.00  0.00    +0.000 C 
ATOM     19  O   UNL     1       6.837   4.421  15.711  0.00  0.00    +0.000 OA
ATOM     20  H   UNL     1       7.156   2.765  14.088  0.00  0.00    +0.000 HD
ENDBRANCH   1  18
BRANCH   1  21
ATOM     21  C   UNL     1       6.997   4.704  18.704  0.00  0.00    +0.000 C 
BRANCH  21  22
ATOM     22  C   UNL     1       7.851   5.740  19.398  0.00  0.00    +0.000 C 
ATOM     23  O   UNL     1       8.221   6.785  18.890  0.00  0.00    +0.000 OA
BRANCH  22  24
ATOM     24  O   UNL     1       8.176   5.403  20.667  0.00  0.00    +0.000 OA
ATOM     25  H   UNL     1       9.107   5.569  20.908  0.00  0.00    +0.000 HD
ENDBRANCH  22  24
ENDBRANCH  21  22
ENDBRANCH   1  21
TORSDOF 5
ENDMDL
MODEL 8
REMARK VINA RESULT:      -7.4      2.484      3.719
REMARK  Name = 
REMARK  6 active torsions:
REMARK  status: ('A' for Active; 'I' for Inactive)
REMARK    1  A    between atoms: C_1  and  N_2
REMARK    2  A    between atoms: C_7  and  C_8
REMARK    3  A    between atoms: C_8  and  C_9
REMARK    4  A    between atoms: C_8  and  C_13
REMARK    5  A    between atoms: C_9  and  C_10
REMARK    6  A    between atoms: C_10  and  O_12
REMARK                            x       y       z     vdW  Elec       q    Type
REMARK                         _______ _______ _______ _____ _____    ______ ____
ROOT
ATOM      1  C   UNL     1       4.745   4.438  17.478  0.00  0.00    +0.000 C 
ENDROOT
BRANCH   1   2
ATOM      2  C   UNL     1       4.381   3.617  18.719  0.00  0.00    +0.000 A 
ATOM      3  C   UNL     1       5.201   2.734  19.400  0.00  0.00    +0.000 A 
ATOM      4  N   UNL     1       4.525   2.223  20.471  0.00  0.00    +0.000 N 
ATOM      5  C   UNL     1       3.264   2.758  20.532  0.00  0.00    +0.000 A 
ATOM      6  C   UNL     1       2.252   2.521  21.468  0.00  0.00    +0.000 A 
ATOM      7  C   UNL     1       1.035   3.172  21.280  0.00  0.00    +0.000 A 
ATOM      8  C   UNL     1       0.849   4.033  20.201  0.00  0.00    +0.000 A 
ATOM      9  C   UNL     1       1.887   4.275  19.283  0.00  0.00    +0.000 A 
ATOM     10  C   UNL     1       3.129   3.621  19.441  0.00  0.00    +0.000 A 
ATOM     11  H   UNL     1       4.888   1.542  21.122  0.00  0.00    +0.000 HD
ENDBRANCH   1   2
BRANCH   1  18
ATOM     12  C   UNL     1       8.114   5.359  12.843  0.00  0.00    +0.000 C 
ATOM     13  N   UNL     1       6.886   5.076  13.541  0.00  0.00    +0.000 N 
ATOM     14  C   UNL     1       6.879   4.723  14.848  0.00  0.00    +0.000 C 
ATOM     15  N   UNL     1       7.778   4.909  15.744  0.00  0.00    +0.000 NA
ATOM     16  C   UNL     1       7.244   4.413  16.906  0.00  0.00    +0.000 C 
ATOM     17  O   UNL     1       7.796   4.392  17.993  0.00  0.00    +0.000 OA
ATOM     18  C   UNL     1       5.879   3.840  16.615  0.00  0.00    +0.000 C 
ATOM     19  O   UNL     1       5.727   4.099  15.213  0.00  0.00    +0.000 OA
ATOM     20  H   UNL     1       6.137   4.686  12.984  0.00  0.00    +0.000 HD
ENDBRANCH   1  18
BRANCH   1  21
ATOM     21  C   UNL     1       5.094   5.883  17.911  0.00  0.00    +0.000 C 
BRANCH  21  22
ATOM     22  C   UNL     1       4.499   6.924  16.992  0.00  0.00    +0.000 C 
ATOM     23  O   UNL     1       4.927   7.193  15.883  0.00  0.00    +0.000 OA
BRANCH  22  24
ATOM     24  O   UNL     1       3.418   7.546  17.517  0.00  0.00    +0.000 OA
ATOM     25  H   UNL     1       3.624   8.282  18.123  0.00  0.00    +0.000 HD
ENDBRANCH  22  24
ENDBRANCH  21  22
ENDBRANCH   1  21
TORSDOF 5
ENDMDL
MODEL 9
REMARK VINA RESULT:      -7.4      2.305      3.938
REMARK  Name = 
REMARK  6 active torsions:
REMARK  status: ('A' for Active; 'I' for Inactive)
REMARK    1  A    between atoms: C_1  and  N_2
REMARK    2  A    between atoms: C_7  and  C_8
REMARK    3  A    between atoms: C_8  and  C_9
REMARK    4  A    between atoms: C_8  and  C_13
REMARK    5  A    between atoms: C_9  and  C_10
REMARK    6  A    between atoms: C_10  and  O_12
REMARK                            x       y       z     vdW  Elec       q    Type
REMARK                         _______ _______ _______ _____ _____    ______ ____
ROOT
ATOM      1  C   UNL     1       5.541   5.848  17.450  0.00  0.00    +0.000 C 
ENDROOT
BRANCH   1   2
ATOM      2  C   UNL     1       4.218   6.021  18.201  0.00  0.00    +0.000 A 
ATOM      3  C   UNL     1       3.360   7.105  18.133  0.00  0.00    +0.000 A 
ATOM      4  N   UNL     1       2.270   6.870  18.923  0.00  0.00    +0.000 N 
ATOM      5  C   UNL     1       2.372   5.638  19.514  0.00  0.00    +0.000 A 
ATOM      6  C   UNL     1       1.479   5.001  20.381  0.00  0.00    +0.000 A 
ATOM      7  C   UNL     1       1.841   3.750  20.875  0.00  0.00    +0.000 A 
ATOM      8  C   UNL     1       3.047   3.161  20.502  0.00  0.00    +0.000 A 
ATOM      9  C   UNL     1       3.922   3.808  19.611  0.00  0.00    +0.000 A 
ATOM     10  C   UNL     1       3.587   5.082  19.101  0.00  0.00    +0.000 A 
ATOM     11  H   UNL     1       1.502   7.510  19.066  0.00  0.00    +0.000 HD
ENDBRANCH   1   2
BRANCH   1  18
ATOM     12  C   UNL     1       5.778   3.340  12.221  0.00  0.00    +0.000 C 
ATOM     13  N   UNL     1       5.152   4.017  13.328  0.00  0.00    +0.000 N 
ATOM     14  C   UNL     1       5.759   4.114  14.534  0.00  0.00    +0.000 C 
ATOM     15  N   UNL     1       7.002   3.997  14.829  0.00  0.00    +0.000 NA
ATOM     16  C   UNL     1       7.083   4.244  16.176  0.00  0.00    +0.000 C 
ATOM     17  O   UNL     1       8.101   4.218  16.846  0.00  0.00    +0.000 OA
ATOM     18  C   UNL     1       5.696   4.497  16.713  0.00  0.00    +0.000 C 
ATOM     19  O   UNL     1       4.884   4.391  15.537  0.00  0.00    +0.000 OA
ATOM     20  H   UNL     1       4.141   3.987  13.354  0.00  0.00    +0.000 HD
ENDBRANCH   1  18
BRANCH   1  21
ATOM     21  C   UNL     1       6.715   6.070  18.432  0.00  0.00    +0.000 C 
BRANCH  21  22
ATOM     22  C   UNL     1       7.614   7.211  18.015  0.00  0.00    +0.000 C 
ATOM     23  O   UNL     1       7.515   7.820  16.963  0.00  0.00    +0.000 OA
BRANCH  22  24
ATOM     24  O   UNL     1       8.560   7.512  18.934  0.00  0.00    +0.000 OA
ATOM     25  H   UNL     1       9.284   8.077  18.605  0.00  0.00    +0.000 HD
ENDBRANCH  22  24
ENDBRANCH  21  22
ENDBRANCH   1  21
TORSDOF 5
ENDMDL
