MODEL 1
REMARK VINA RESULT:      -7.8      0.000      0.000
REMARK  Name = 
REMARK  6 active torsions:
REMARK  status: ('A' for Active; 'I' for Inactive)
REMARK    1  A    between atoms: C_2  and  C_3
REMARK    2  A    between atoms: C_3  and  S_4
REMARK    3  A    between atoms: S_4  and  C_5
REMARK    4  A    between atoms: N_14  and  C_15
REMARK    5  A    between atoms: N_22  and  C_23
REMARK    6  A    between atoms: C_23  and  C_24
REMARK                            x       y       z     vdW  Elec       q    Type
REMARK                         _______ _______ _______ _____ _____    ______ ____
ROOT
ATOM      1  C   UNL     1       3.441   5.617  18.426  0.00  0.00    +0.000 A 
ATOM      2  N   UNL     1       2.583   5.601  19.404  0.00  0.00    +0.000 NA
ATOM      3  C   UNL     1       2.249   4.326  19.862  0.00  0.00    +0.000 A 
ATOM      4  C   UNL     1       1.381   4.081  20.957  0.00  0.00    +0.000 A 
ATOM      5  C   UNL     1       1.267   2.733  21.209  0.00  0.00    +0.000 A 
ATOM      6  S   UNL     1       2.200   1.787  20.115  0.00  0.00    +0.000 S 
ATOM      7  C   UNL     1       2.763   3.183  19.331  0.00  0.00    +0.000 A 
ATOM      8  C   UNL     1       3.693   3.181  18.240  0.00  0.00    +0.000 A 
ATOM      9  O   UNL     1       4.123   2.150  17.723  0.00  0.00    +0.000 OA
ATOM     10  N   UNL     1       4.042   4.481  17.826  0.00  0.00    +0.000 N 
ENDROOT
BRANCH  10  11
ATOM     11  C   UNL     1       4.997   4.576  16.769  0.00  0.00    +0.000 A 
ATOM     12  C   UNL     1       4.585   4.491  15.436  0.00  0.00    +0.000 A 
ATOM     13  C   UNL     1       5.501   4.649  14.396  0.00  0.00    +0.000 A 
ATOM     14  C   UNL     1       6.845   4.853  14.689  0.00  0.00    +0.000 A 
ATOM     15 CL   UNL     1       7.964   5.088  13.406  0.00  0.00    +0.000 Cl
ATOM     16  C   UNL     1       7.286   4.877  16.011  0.00  0.00    +0.000 A 
ATOM     17  C   UNL     1       6.364   4.729  17.053  0.00  0.00    +0.000 A 
ENDBRANCH  10  11
BRANCH   1  18
ATOM     18  S   UNL     1       4.030   7.235  17.967  0.00  0.00    +0.000 S 
BRANCH  18  19
ATOM     19  C   UNL     1       2.535   8.025  17.292  0.00  0.00    +0.000 C 
BRANCH  19  21
ATOM     20  O   UNL     1       1.827   8.601  19.520  0.00  0.00    +0.000 OA
ATOM     21  C   UNL     1       1.849   8.902  18.329  0.00  0.00    +0.000 C 
ATOM     22  N   UNL     1       1.241  10.047  17.857  0.00  0.00    +0.000 N 
ATOM     23  H   UNL     1       1.254  10.240  16.862  0.00  0.00    +0.000 HD
BRANCH  22  24
ATOM     24  C   UNL     1       0.552  11.004  18.713  0.00  0.00    +0.000 C 
BRANCH  24  25
ATOM     25  C   UNL     1      -0.941  11.004  18.470  0.00  0.00    +0.000 A 
ATOM     26  C   UNL     1      -1.776  11.909  19.145  0.00  0.00    +0.000 A 
ATOM     27  C   UNL     1      -3.158  11.913  18.918  0.00  0.00    +0.000 A 
ATOM     28  C   UNL     1      -3.716  11.007  18.020  0.00  0.00    +0.000 A 
ATOM     29 CL   UNL     1      -5.415  10.999  17.751  0.00  0.00    +0.000 Cl
ATOM     30  C   UNL     1      -2.902  10.109  17.335  0.00  0.00    +0.000 A 
ATOM     31  C   UNL     1      -1.520  10.114  17.551  0.00  0.00    +0.000 A 
ENDBRANCH  24  25
ENDBRANCH  22  24
ENDBRANCH  19  21
ENDBRANCH  18  19
ENDBRANCH   1  18
TORSDOF 6
ENDMDL
MODEL 2
REMARK VINA RESULT:      -7.7      3.643     10.335
REMARK  Name = 
REMARK  6 active torsions:
REMARK  status: ('A' for Active; 'I' for Inactive)
REMARK    1  A    between atoms: C_2  and  C_3
REMARK    2  A    between atoms: C_3  and  S_4
REMARK    3  A    between atoms: S_4  and  C_5
REMARK    4  A    between atoms: N_14  and  C_15
REMARK    5  A    between atoms: N_22  and  C_23
REMARK    6  A    between atoms: C_23  and  C_24
REMARK                            x       y       z     vdW  Elec       q    Type
REMARK                         _______ _______ _______ _____ _____    ______ ____
ROOT
ATOM      1  C   UNL     1      -1.107  10.863  19.336  0.00  0.00    +0.000 A 
ATOM      2  N   UNL     1      -1.262  10.188  18.234  0.00  0.00    +0.000 NA
ATOM      3  C   UNL     1      -2.433  10.479  17.535  0.00  0.00    +0.000 A 
ATOM      4  C   UNL     1      -2.771   9.904  16.283  0.00  0.00    +0.000 A 
ATOM      5  C   UNL     1      -3.962  10.406  15.810  0.00  0.00    +0.000 A 
ATOM      6  S   UNL     1      -4.656  11.553  16.889  0.00  0.00    +0.000 S 
ATOM      7  C   UNL     1      -3.354  11.386  17.963  0.00  0.00    +0.000 A 
ATOM      8  C   UNL     1      -3.209  12.124  19.184  0.00  0.00    +0.000 A 
ATOM      9  O   UNL     1      -4.061  12.907  19.602  0.00  0.00    +0.000 OA
ATOM     10  N   UNL     1      -2.000  11.839  19.847  0.00  0.00    +0.000 N 
ENDROOT
BRANCH  10  11
ATOM     11  C   UNL     1      -1.752  12.560  21.055  0.00  0.00    +0.000 A 
ATOM     12  C   UNL     1      -1.046  13.765  21.023  0.00  0.00    +0.000 A 
ATOM     13  C   UNL     1      -0.856  14.510  22.187  0.00  0.00    +0.000 A 
ATOM     14  C   UNL     1      -1.341  14.028  23.398  0.00  0.00    +0.000 A 
ATOM     15 CL   UNL     1      -1.142  14.968  24.823  0.00  0.00    +0.000 Cl
ATOM     16  C   UNL     1      -1.993  12.797  23.460  0.00  0.00    +0.000 A 
ATOM     17  C   UNL     1      -2.191  12.057  22.290  0.00  0.00    +0.000 A 
ENDBRANCH  10  11
BRANCH   1  18
ATOM     18  S   UNL     1       0.473  10.653  20.132  0.00  0.00    +0.000 S 
BRANCH  18  19
ATOM     19  C   UNL     1       1.437   9.757  18.873  0.00  0.00    +0.000 C 
BRANCH  19  21
ATOM     20  O   UNL     1       1.570   7.979  20.491  0.00  0.00    +0.000 OA
ATOM     21  C   UNL     1       1.881   8.391  19.376  0.00  0.00    +0.000 C 
ATOM     22  N   UNL     1       2.664   7.647  18.517  0.00  0.00    +0.000 N 
ATOM     23  H   UNL     1       2.925   8.040  17.620  0.00  0.00    +0.000 HD
BRANCH  22  24
ATOM     24  C   UNL     1       3.164   6.316  18.833  0.00  0.00    +0.000 C 
BRANCH  24  25
ATOM     25  C   UNL     1       3.946   5.721  17.684  0.00  0.00    +0.000 A 
ATOM     26  C   UNL     1       3.942   4.335  17.457  0.00  0.00    +0.000 A 
ATOM     27  C   UNL     1       4.663   3.783  16.391  0.00  0.00    +0.000 A 
ATOM     28  C   UNL     1       5.398   4.611  15.548  0.00  0.00    +0.000 A 
ATOM     29 CL   UNL     1       6.297   3.934  14.247  0.00  0.00    +0.000 Cl
ATOM     30  C   UNL     1       5.406   5.989  15.752  0.00  0.00    +0.000 A 
ATOM     31  C   UNL     1       4.675   6.542  16.809  0.00  0.00    +0.000 A 
ENDBRANCH  24  25
ENDBRANCH  22  24
ENDBRANCH  19  21
ENDBRANCH  18  19
ENDBRANCH   1  18
TORSDOF 6
ENDMDL
MODEL 3
REMARK VINA RESULT:      -7.6      4.613     10.540
REMARK  Name = 
REMARK  6 active torsions:
REMARK  status: ('A' for Active; 'I' for Inactive)
REMARK    1  A    between atoms: C_2  and  C_3
REMARK    2  A    between atoms: C_3  and  S_4
REMARK    3  A    between atoms: S_4  and  C_5
REMARK    4  A    between atoms: N_14  and  C_15
REMARK    5  A    between atoms: N_22  and  C_23
REMARK    6  A    between atoms: C_23  and  C_24
REMARK                            x       y       z     vdW  Elec       q    Type
REMARK                         _______ _______ _______ _____ _____    ______ ____
ROOT
ATOM      1  C   UNL     1      -1.637  11.518  19.942  0.00  0.00    +0.000 A 
ATOM      2  N   UNL     1      -1.479  10.864  18.828  0.00  0.00    +0.000 NA
ATOM      3  C   UNL     1      -2.551  10.959  17.942  0.00  0.00    +0.000 A 
ATOM      4  C   UNL     1      -2.564  10.375  16.649  0.00  0.00    +0.000 A 
ATOM      5  C   UNL     1      -3.732  10.666  15.983  0.00  0.00    +0.000 A 
ATOM      6  S   UNL     1      -4.797  11.629  16.931  0.00  0.00    +0.000 S 
ATOM      7  C   UNL     1      -3.682  11.666  18.210  0.00  0.00    +0.000 A 
ATOM      8  C   UNL     1      -3.883  12.376  19.440  0.00  0.00    +0.000 A 
ATOM      9  O   UNL     1      -4.923  12.975  19.710  0.00  0.00    +0.000 OA
ATOM     10  N   UNL     1      -2.769  12.295  20.298  0.00  0.00    +0.000 N 
ENDROOT
BRANCH  10  11
ATOM     11  C   UNL     1      -2.864  13.008  21.532  0.00  0.00    +0.000 A 
ATOM     12  C   UNL     1      -3.344  12.370  22.679  0.00  0.00    +0.000 A 
ATOM     13  C   UNL     1      -3.378  13.038  23.903  0.00  0.00    +0.000 A 
ATOM     14  C   UNL     1      -2.967  14.365  23.974  0.00  0.00    +0.000 A 
ATOM     15 CL   UNL     1      -2.972  15.173  25.491  0.00  0.00    +0.000 Cl
ATOM     16  C   UNL     1      -2.545  15.038  22.828  0.00  0.00    +0.000 A 
ATOM     17  C   UNL     1      -2.502  14.363  21.603  0.00  0.00    +0.000 A 
ENDBRANCH  10  11
BRANCH   1  18
ATOM     18  S   UNL     1      -0.200  11.573  20.994  0.00  0.00    +0.000 S 
BRANCH  18  19
ATOM     19  C   UNL     1      -0.263   9.959  21.837  0.00  0.00    +0.000 C 
BRANCH  19  21
ATOM     20  O   UNL     1       1.907   9.190  22.541  0.00  0.00    +0.000 OA
ATOM     21  C   UNL     1       1.040   9.191  21.671  0.00  0.00    +0.000 C 
ATOM     22  N   UNL     1       1.200   8.507  20.483  0.00  0.00    +0.000 N 
ATOM     23  H   UNL     1       0.474   8.563  19.778  0.00  0.00    +0.000 HD
BRANCH  22  24
ATOM     24  C   UNL     1       2.379   7.711  20.165  0.00  0.00    +0.000 C 
BRANCH  24  25
ATOM     25  C   UNL     1       2.014   6.295  19.779  0.00  0.00    +0.000 A 
ATOM     26  C   UNL     1       1.456   5.417  20.722  0.00  0.00    +0.000 A 
ATOM     27  C   UNL     1       1.115   4.107  20.365  0.00  0.00    +0.000 A 
ATOM     28  C   UNL     1       1.335   3.663  19.064  0.00  0.00    +0.000 A 
ATOM     29 CL   UNL     1       0.931   2.049  18.626  0.00  0.00    +0.000 Cl
ATOM     30  C   UNL     1       1.878   4.523  18.113  0.00  0.00    +0.000 A 
ATOM     31  C   UNL     1       2.207   5.836  18.466  0.00  0.00    +0.000 A 
ENDBRANCH  24  25
ENDBRANCH  22  24
ENDBRANCH  19  21
ENDBRANCH  18  19
ENDBRANCH   1  18
TORSDOF 6
ENDMDL
MODEL 4
REMARK VINA RESULT:      -7.5      0.238      1.268
REMARK  Name = 
REMARK  6 active torsions:
REMARK  status: ('A' for Active; 'I' for Inactive)
REMARK    1  A    between atoms: C_2  and  C_3
REMARK    2  A    between atoms: C_3  and  S_4
REMARK    3  A    between atoms: S_4  and  C_5
REMARK    4  A    between atoms: N_14  and  C_15
REMARK    5  A    between atoms: N_22  and  C_23
REMARK    6  A    between atoms: C_23  and  C_24
REMARK                            x       y       z     vdW  Elec       q    Type
REMARK                         _______ _______ _______ _____ _____    ______ ____
ROOT
ATOM      1  C   UNL     1       3.335   5.708  18.384  0.00  0.00    +0.000 A 
ATOM      2  N   UNL     1       2.468   5.646  19.353  0.00  0.00    +0.000 NA
ATOM      3  C   UNL     1       2.175   4.354  19.788  0.00  0.00    +0.000 A 
ATOM      4  C   UNL     1       1.305   4.062  20.870  0.00  0.00    +0.000 A 
ATOM      5  C   UNL     1       1.236   2.707  21.101  0.00  0.00    +0.000 A 
ATOM      6  S   UNL     1       2.212   1.811  20.003  0.00  0.00    +0.000 S 
ATOM      7  C   UNL     1       2.733   3.238  19.246  0.00  0.00    +0.000 A 
ATOM      8  C   UNL     1       3.674   3.285  18.164  0.00  0.00    +0.000 A 
ATOM      9  O   UNL     1       4.144   2.278  17.635  0.00  0.00    +0.000 OA
ATOM     10  N   UNL     1       3.981   4.603  17.773  0.00  0.00    +0.000 N 
ENDROOT
BRANCH  10  11
ATOM     11  C   UNL     1       4.942   4.747  16.727  0.00  0.00    +0.000 A 
ATOM     12  C   UNL     1       6.275   5.037  17.030  0.00  0.00    +0.000 A 
ATOM     13  C   UNL     1       7.234   5.114  16.020  0.00  0.00    +0.000 A 
ATOM     14  C   UNL     1       6.852   4.941  14.694  0.00  0.00    +0.000 A 
ATOM     15 CL   UNL     1       8.043   4.996  13.456  0.00  0.00    +0.000 Cl
ATOM     16  C   UNL     1       5.516   4.714  14.366  0.00  0.00    +0.000 A 
ATOM     17  C   UNL     1       4.557   4.627  15.382  0.00  0.00    +0.000 A 
ENDBRANCH  10  11
BRANCH   1  18
ATOM     18  S   UNL     1       3.871   7.352  17.955  0.00  0.00    +0.000 S 
BRANCH  18  19
ATOM     19  C   UNL     1       2.340   8.120  17.335  0.00  0.00    +0.000 C 
BRANCH  19  21
ATOM     20  O   UNL     1       1.788   8.713  19.602  0.00  0.00    +0.000 OA
ATOM     21  C   UNL     1       1.665   8.964  18.406  0.00  0.00    +0.000 C 
ATOM     22  N   UNL     1       0.897  10.020  17.959  0.00  0.00    +0.000 N 
ATOM     23  H   UNL     1       0.796  10.171  16.962  0.00  0.00    +0.000 HD
BRANCH  22  24
ATOM     24  C   UNL     1       0.193  10.936  18.847  0.00  0.00    +0.000 C 
BRANCH  24  25
ATOM     25  C   UNL     1      -1.290  10.977  18.552  0.00  0.00    +0.000 A 
ATOM     26  C   UNL     1      -1.872  10.048  17.674  0.00  0.00    +0.000 A 
ATOM     27  C   UNL     1      -3.245  10.084  17.402  0.00  0.00    +0.000 A 
ATOM     28  C   UNL     1      -4.045  11.052  18.002  0.00  0.00    +0.000 A 
ATOM     29 CL   UNL     1      -5.730  11.107  17.659  0.00  0.00    +0.000 Cl
ATOM     30  C   UNL     1      -3.487  11.975  18.883  0.00  0.00    +0.000 A 
ATOM     31  C   UNL     1      -2.118  11.932  19.164  0.00  0.00    +0.000 A 
ENDBRANCH  24  25
ENDBRANCH  22  24
ENDBRANCH  19  21
ENDBRANCH  18  19
ENDBRANCH   1  18
TORSDOF 6
ENDMDL
MODEL 5
REMARK VINA RESULT:      -7.5      4.845     10.429
REMARK  Name = 
REMARK  6 active torsions:
REMARK  status: ('A' for Active; 'I' for Inactive)
REMARK    1  A    between atoms: C_2  and  C_3
REMARK    2  A    between atoms: C_3  and  S_4
REMARK    3  A    between atoms: S_4  and  C_5
REMARK    4  A    between atoms: N_14  and  C_15
REMARK    5  A    between atoms: N_22  and  C_23
REMARK    6  A    between atoms: C_23  and  C_24
REMARK                            x       y       z     vdW  Elec       q    Type
REMARK                         _______ _______ _______ _____ _____    ______ ____
ROOT
ATOM      1  C   UNL     1      -1.630  11.755  19.788  0.00  0.00    +0.000 A 
ATOM      2  N   UNL     1      -1.519  11.173  18.629  0.00  0.00    +0.000 NA
ATOM      3  C   UNL     1      -2.675  11.208  17.849  0.00  0.00    +0.000 A 
ATOM      4  C   UNL     1      -2.757  10.688  16.532  0.00  0.00    +0.000 A 
ATOM      5  C   UNL     1      -4.004  10.898  15.991  0.00  0.00    +0.000 A 
ATOM      6  S   UNL     1      -5.058  11.708  17.084  0.00  0.00    +0.000 S 
ATOM      7  C   UNL     1      -3.835  11.790  18.258  0.00  0.00    +0.000 A 
ATOM      8  C   UNL     1      -3.982  12.418  19.539  0.00  0.00    +0.000 A 
ATOM      9  O   UNL     1      -5.042  12.901  19.935  0.00  0.00    +0.000 OA
ATOM     10  N   UNL     1      -2.789  12.402  20.288  0.00  0.00    +0.000 N 
ENDROOT
BRANCH  10  11
ATOM     11  C   UNL     1      -2.831  13.043  21.564  0.00  0.00    +0.000 A 
ATOM     12  C   UNL     1      -3.207  12.324  22.701  0.00  0.00    +0.000 A 
ATOM     13  C   UNL     1      -3.188  12.922  23.961  0.00  0.00    +0.000 A 
ATOM     14  C   UNL     1      -2.828  14.260  24.080  0.00  0.00    +0.000 A 
ATOM     15 CL   UNL     1      -2.765  14.984  25.638  0.00  0.00    +0.000 Cl
ATOM     16  C   UNL     1      -2.511  15.012  22.949  0.00  0.00    +0.000 A 
ATOM     17  C   UNL     1      -2.521  14.406  21.688  0.00  0.00    +0.000 A 
ENDBRANCH  10  11
BRANCH   1  18
ATOM     18  S   UNL     1      -0.111  11.897  20.708  0.00  0.00    +0.000 S 
BRANCH  18  19
ATOM     19  C   UNL     1       0.960  12.826  19.566  0.00  0.00    +0.000 C 
BRANCH  19  21
ATOM     20  O   UNL     1       2.677  12.307  17.959  0.00  0.00    +0.000 OA
ATOM     21  C   UNL     1       1.764  11.894  18.671  0.00  0.00    +0.000 C 
ATOM     22  N   UNL     1       1.404  10.563  18.693  0.00  0.00    +0.000 N 
ATOM     23  H   UNL     1       0.623  10.271  19.269  0.00  0.00    +0.000 HD
BRANCH  22  24
ATOM     24  C   UNL     1       2.075   9.534  17.909  0.00  0.00    +0.000 C 
BRANCH  24  25
ATOM     25  C   UNL     1       2.133   8.214  18.644  0.00  0.00    +0.000 A 
ATOM     26  C   UNL     1       2.600   7.056  18.002  0.00  0.00    +0.000 A 
ATOM     27  C   UNL     1       2.657   5.834  18.682  0.00  0.00    +0.000 A 
ATOM     28  C   UNL     1       2.241   5.758  20.008  0.00  0.00    +0.000 A 
ATOM     29 CL   UNL     1       2.295   4.254  20.842  0.00  0.00    +0.000 Cl
ATOM     30  C   UNL     1       1.783   6.898  20.664  0.00  0.00    +0.000 A 
ATOM     31  C   UNL     1       1.739   8.122  19.989  0.00  0.00    +0.000 A 
ENDBRANCH  24  25
ENDBRANCH  22  24
ENDBRANCH  19  21
ENDBRANCH  18  19
ENDBRANCH   1  18
TORSDOF 6
ENDMDL
MODEL 6
REMARK VINA RESULT:      -7.4      3.755     10.046
REMARK  Name = 
REMARK  6 active torsions:
REMARK  status: ('A' for Active; 'I' for Inactive)
REMARK    1  A    between atoms: C_2  and  C_3
REMARK    2  A    between atoms: C_3  and  S_4
REMARK    3  A    between atoms: S_4  and  C_5
REMARK    4  A    between atoms: N_14  and  C_15
REMARK    5  A    between atoms: N_22  and  C_23
REMARK    6  A    between atoms: C_23  and  C_24
REMARK                            x       y       z     vdW  Elec       q    Type
REMARK                         _______ _______ _______ _____ _____    ______ ____
ROOT
ATOM      1  C   UNL     1       0.456  11.966  20.671  0.00  0.00    +0.000 A 
ATOM      2  N   UNL     1       1.629  12.249  21.158  0.00  0.00    +0.000 NA
ATOM      3  C   UNL     1       2.136  13.489  20.771  0.00  0.00    +0.000 A 
ATOM      4  C   UNL     1       3.367  14.021  21.234  0.00  0.00    +0.000 A 
ATOM      5  C   UNL     1       3.591  15.277  20.719  0.00  0.00    +0.000 A 
ATOM      6  S   UNL     1       2.319  15.789  19.680  0.00  0.00    +0.000 S 
ATOM      7  C   UNL     1       1.473  14.342  19.943  0.00  0.00    +0.000 A 
ATOM      8  C   UNL     1       0.189  14.039  19.380  0.00  0.00    +0.000 A 
ATOM      9  O   UNL     1      -0.393  14.783  18.591  0.00  0.00    +0.000 OA
ATOM     10  N   UNL     1      -0.314  12.799  19.819  0.00  0.00    +0.000 N 
ENDROOT
BRANCH  10  11
ATOM     11  C   UNL     1      -1.609  12.433  19.340  0.00  0.00    +0.000 A 
ATOM     12  C   UNL     1      -1.746  11.753  18.127  0.00  0.00    +0.000 A 
ATOM     13  C   UNL     1      -2.999  11.334  17.683  0.00  0.00    +0.000 A 
ATOM     14  C   UNL     1      -4.130  11.630  18.437  0.00  0.00    +0.000 A 
ATOM     15 CL   UNL     1      -5.669  11.076  17.909  0.00  0.00    +0.000 Cl
ATOM     16  C   UNL     1      -4.021  12.363  19.618  0.00  0.00    +0.000 A 
ATOM     17  C   UNL     1      -2.761  12.774  20.066  0.00  0.00    +0.000 A 
ENDBRANCH  10  11
BRANCH   1  18
ATOM     18  S   UNL     1      -0.290  10.482  21.314  0.00  0.00    +0.000 S 
BRANCH  18  19
ATOM     19  C   UNL     1       1.070   9.276  21.208  0.00  0.00    +0.000 C 
BRANCH  19  21
ATOM     20  O   UNL     1       0.901   9.507  18.818  0.00  0.00    +0.000 OA
ATOM     21  C   UNL     1       1.345   8.867  19.769  0.00  0.00    +0.000 C 
ATOM     22  N   UNL     1       2.108   7.732  19.589  0.00  0.00    +0.000 N 
ATOM     23  H   UNL     1       2.425   7.216  20.402  0.00  0.00    +0.000 HD
BRANCH  22  24
ATOM     24  C   UNL     1       2.476   7.208  18.281  0.00  0.00    +0.000 C 
BRANCH  24  25
ATOM     25  C   UNL     1       2.771   5.725  18.330  0.00  0.00    +0.000 A 
ATOM     26  C   UNL     1       3.963   5.251  18.903  0.00  0.00    +0.000 A 
ATOM     27  C   UNL     1       4.236   3.879  18.953  0.00  0.00    +0.000 A 
ATOM     28  C   UNL     1       3.323   2.971  18.424  0.00  0.00    +0.000 A 
ATOM     29 CL   UNL     1       3.663   1.285  18.470  0.00  0.00    +0.000 Cl
ATOM     30  C   UNL     1       2.132   3.422  17.861  0.00  0.00    +0.000 A 
ATOM     31  C   UNL     1       1.853   4.792  17.823  0.00  0.00    +0.000 A 
ENDBRANCH  24  25
ENDBRANCH  22  24
ENDBRANCH  19  21
ENDBRANCH  18  19
ENDBRANCH   1  18
TORSDOF 6
ENDMDL
MODEL 7
REMARK VINA RESULT:      -7.4      3.965     10.620
REMARK  Name = 
REMARK  6 active torsions:
REMARK  status: ('A' for Active; 'I' for Inactive)
REMARK    1  A    between atoms: C_2  and  C_3
REMARK    2  A    between atoms: C_3  and  S_4
REMARK    3  A    between atoms: S_4  and  C_5
REMARK    4  A    between atoms: N_14  and  C_15
REMARK    5  A    between atoms: N_22  and  C_23
REMARK    6  A    between atoms: C_23  and  C_24
REMARK                            x       y       z     vdW  Elec       q    Type
REMARK                         _______ _______ _______ _____ _____    ______ ____
ROOT
ATOM      1  C   UNL     1      -1.544  11.347  19.747  0.00  0.00    +0.000 A 
ATOM      2  N   UNL     1      -1.530  10.727  18.603  0.00  0.00    +0.000 NA
ATOM      3  C   UNL     1      -2.673  10.915  17.826  0.00  0.00    +0.000 A 
ATOM      4  C   UNL     1      -2.842  10.381  16.523  0.00  0.00    +0.000 A 
ATOM      5  C   UNL     1      -4.048  10.763  15.982  0.00  0.00    +0.000 A 
ATOM      6  S   UNL     1      -4.960  11.749  17.057  0.00  0.00    +0.000 S 
ATOM      7  C   UNL     1      -3.730  11.675  18.224  0.00  0.00    +0.000 A 
ATOM      8  C   UNL     1      -3.772  12.350  19.489  0.00  0.00    +0.000 A 
ATOM      9  O   UNL     1      -4.744  12.996  19.877  0.00  0.00    +0.000 OA
ATOM     10  N   UNL     1      -2.589  12.173  20.233  0.00  0.00    +0.000 N 
ENDROOT
BRANCH  10  11
ATOM     11  C   UNL     1      -2.525  12.845  21.493  0.00  0.00    +0.000 A 
ATOM     12  C   UNL     1      -1.928  14.104  21.590  0.00  0.00    +0.000 A 
ATOM     13  C   UNL     1      -1.919  14.796  22.801  0.00  0.00    +0.000 A 
ATOM     14  C   UNL     1      -2.475  14.209  23.932  0.00  0.00    +0.000 A 
ATOM     15 CL   UNL     1      -2.500  15.080  25.413  0.00  0.00    +0.000 Cl
ATOM     16  C   UNL     1      -3.018  12.926  23.870  0.00  0.00    +0.000 A 
ATOM     17  C   UNL     1      -3.035  12.238  22.651  0.00  0.00    +0.000 A 
ENDBRANCH  10  11
BRANCH   1  18
ATOM     18  S   UNL     1      -0.014  11.282  20.657  0.00  0.00    +0.000 S 
BRANCH  18  19
ATOM     19  C   UNL     1       1.082  10.365  19.528  0.00  0.00    +0.000 C 
BRANCH  19  21
ATOM     20  O   UNL     1       0.731   8.487  20.993  0.00  0.00    +0.000 OA
ATOM     21  C   UNL     1       1.275   8.926  19.983  0.00  0.00    +0.000 C 
ATOM     22  N   UNL     1       2.106   8.145  19.206  0.00  0.00    +0.000 N 
ATOM     23  H   UNL     1       2.562   8.558  18.400  0.00  0.00    +0.000 HD
BRANCH  22  24
ATOM     24  C   UNL     1       2.391   6.745  19.489  0.00  0.00    +0.000 C 
BRANCH  24  25
ATOM     25  C   UNL     1       3.222   6.107  18.398  0.00  0.00    +0.000 A 
ATOM     26  C   UNL     1       4.057   6.890  17.584  0.00  0.00    +0.000 A 
ATOM     27  C   UNL     1       4.830   6.302  16.576  0.00  0.00    +0.000 A 
ATOM     28  C   UNL     1       4.768   4.927  16.369  0.00  0.00    +0.000 A 
ATOM     29 CL   UNL     1       5.705   4.202  15.121  0.00  0.00    +0.000 Cl
ATOM     30  C   UNL     1       3.953   4.133  17.172  0.00  0.00    +0.000 A 
ATOM     31  C   UNL     1       3.191   4.719  18.188  0.00  0.00    +0.000 A 
ENDBRANCH  24  25
ENDBRANCH  22  24
ENDBRANCH  19  21
ENDBRANCH  18  19
ENDBRANCH   1  18
TORSDOF 6
ENDMDL
MODEL 8
REMARK VINA RESULT:      -7.3      2.609      4.758
REMARK  Name = 
REMARK  6 active torsions:
REMARK  status: ('A' for Active; 'I' for Inactive)
REMARK    1  A    between atoms: C_2  and  C_3
REMARK    2  A    between atoms: C_3  and  S_4
REMARK    3  A    between atoms: S_4  and  C_5
REMARK    4  A    between atoms: N_14  and  C_15
REMARK    5  A    between atoms: N_22  and  C_23
REMARK    6  A    between atoms: C_23  and  C_24
REMARK                            x       y       z     vdW  Elec       q    Type
REMARK                         _______ _______ _______ _____ _____    ______ ____
ROOT
ATOM      1  C   UNL     1       3.734   5.867  18.171  0.00  0.00    +0.000 A 
ATOM      2  N   UNL     1       4.374   6.504  17.234  0.00  0.00    +0.000 NA
ATOM      3  C   UNL     1       5.020   5.683  16.310  0.00  0.00    +0.000 A 
ATOM      4  C   UNL     1       5.723   6.167  15.177  0.00  0.00    +0.000 A 
ATOM      5  C   UNL     1       6.222   5.130  14.421  0.00  0.00    +0.000 A 
ATOM      6  S   UNL     1       5.843   3.594  15.096  0.00  0.00    +0.000 S 
ATOM      7  C   UNL     1       5.000   4.324  16.376  0.00  0.00    +0.000 A 
ATOM      8  C   UNL     1       4.318   3.604  17.412  0.00  0.00    +0.000 A 
ATOM      9  O   UNL     1       4.338   2.377  17.506  0.00  0.00    +0.000 OA
ATOM     10  N   UNL     1       3.643   4.458  18.307  0.00  0.00    +0.000 N 
ENDROOT
BRANCH  10  11
ATOM     11  C   UNL     1       2.900   3.825  19.350  0.00  0.00    +0.000 A 
ATOM     12  C   UNL     1       3.560   3.290  20.460  0.00  0.00    +0.000 A 
ATOM     13  C   UNL     1       2.840   2.730  21.514  0.00  0.00    +0.000 A 
ATOM     14  C   UNL     1       1.452   2.667  21.442  0.00  0.00    +0.000 A 
ATOM     15 CL   UNL     1       0.564   2.013  22.761  0.00  0.00    +0.000 Cl
ATOM     16  C   UNL     1       0.780   3.137  20.315  0.00  0.00    +0.000 A 
ATOM     17  C   UNL     1       1.504   3.708  19.263  0.00  0.00    +0.000 A 
ENDBRANCH  10  11
BRANCH   1  18
ATOM     18  S   UNL     1       2.740   6.891  19.237  0.00  0.00    +0.000 S 
BRANCH  18  19
ATOM     19  C   UNL     1       2.091   8.147  18.088  0.00  0.00    +0.000 C 
BRANCH  19  21
ATOM     20  O   UNL     1       1.139   9.191  20.037  0.00  0.00    +0.000 OA
ATOM     21  C   UNL     1       1.344   9.247  18.827  0.00  0.00    +0.000 C 
ATOM     22  N   UNL     1       0.898  10.305  18.061  0.00  0.00    +0.000 N 
ATOM     23  H   UNL     1       1.060  10.294  17.061  0.00  0.00    +0.000 HD
BRANCH  22  24
ATOM     24  C   UNL     1       0.178  11.447  18.608  0.00  0.00    +0.000 C 
BRANCH  24  25
ATOM     25  C   UNL     1      -1.318  11.305  18.438  0.00  0.00    +0.000 A 
ATOM     26  C   UNL     1      -1.851  10.330  17.578  0.00  0.00    +0.000 A 
ATOM     27  C   UNL     1      -3.236  10.195  17.422  0.00  0.00    +0.000 A 
ATOM     28  C   UNL     1      -4.098  11.036  18.120  0.00  0.00    +0.000 A 
ATOM     29 CL   UNL     1      -5.799  10.881  17.919  0.00  0.00    +0.000 Cl
ATOM     30  C   UNL     1      -3.587  12.001  18.985  0.00  0.00    +0.000 A 
ATOM     31  C   UNL     1      -2.204  12.128  19.151  0.00  0.00    +0.000 A 
ENDBRANCH  24  25
ENDBRANCH  22  24
ENDBRANCH  19  21
ENDBRANCH  18  19
ENDBRANCH   1  18
TORSDOF 6
ENDMDL
MODEL 9
REMARK VINA RESULT:      -7.3      4.290     10.769
REMARK  Name = 
REMARK  6 active torsions:
REMARK  status: ('A' for Active; 'I' for Inactive)
REMARK    1  A    between atoms: C_2  and  C_3
REMARK    2  A    between atoms: C_3  and  S_4
REMARK    3  A    between atoms: S_4  and  C_5
REMARK    4  A    between atoms: N_14  and  C_15
REMARK    5  A    between atoms: N_22  and  C_23
REMARK    6  A    between atoms: C_23  and  C_24
REMARK                            x       y       z     vdW  Elec       q    Type
REMARK                         _______ _______ _______ _____ _____    ______ ____
ROOT
ATOM      1  C   UNL     1      -1.907  11.799  20.228  0.00  0.00    +0.000 A 
ATOM      2  N   UNL     1      -1.427  10.996  19.324  0.00  0.00    +0.000 NA
ATOM      3  C   UNL     1      -2.252  10.809  18.216  0.00  0.00    +0.000 A 
ATOM      4  C   UNL     1      -1.898  10.023  17.089  0.00  0.00    +0.000 A 
ATOM      5  C   UNL     1      -2.887  10.052  16.132  0.00  0.00    +0.000 A 
ATOM      6  S   UNL     1      -4.229  11.016  16.614  0.00  0.00    +0.000 S 
ATOM      7  C   UNL     1      -3.469  11.403  18.082  0.00  0.00    +0.000 A 
ATOM      8  C   UNL     1      -4.024  12.274  19.076  0.00  0.00    +0.000 A 
ATOM      9  O   UNL     1      -5.145  12.774  18.985  0.00  0.00    +0.000 OA
ATOM     10  N   UNL     1      -3.152  12.475  20.164  0.00  0.00    +0.000 N 
ENDROOT
BRANCH  10  11
ATOM     11  C   UNL     1      -3.606  13.364  21.186  0.00  0.00    +0.000 A 
ATOM     12  C   UNL     1      -4.311  12.870  22.287  0.00  0.00    +0.000 A 
ATOM     13  C   UNL     1      -4.700  13.720  23.323  0.00  0.00    +0.000 A 
ATOM     14  C   UNL     1      -4.419  15.079  23.239  0.00  0.00    +0.000 A 
ATOM     15 CL   UNL     1      -4.864  16.117  24.534  0.00  0.00    +0.000 Cl
ATOM     16  C   UNL     1      -3.774  15.601  22.119  0.00  0.00    +0.000 A 
ATOM     17  C   UNL     1      -3.375  14.745  21.086  0.00  0.00    +0.000 A 
ENDBRANCH  10  11
BRANCH   1  18
ATOM     18  S   UNL     1      -0.783  12.207  21.549  0.00  0.00    +0.000 S 
BRANCH  18  19
ATOM     19  C   UNL     1       0.812  11.595  20.916  0.00  0.00    +0.000 C 
BRANCH  19  21
ATOM     20  O   UNL     1       1.300   9.915  22.569  0.00  0.00    +0.000 OA
ATOM     21  C   UNL     1       1.093  10.176  21.387  0.00  0.00    +0.000 C 
ATOM     22  N   UNL     1       1.116   9.201  20.411  0.00  0.00    +0.000 N 
ATOM     23  H   UNL     1       0.974   9.466  19.443  0.00  0.00    +0.000 HD
BRANCH  22  24
ATOM     24  C   UNL     1       1.357   7.791  20.689  0.00  0.00    +0.000 C 
BRANCH  24  25
ATOM     25  C   UNL     1       2.242   7.154  19.640  0.00  0.00    +0.000 A 
ATOM     26  C   UNL     1       2.603   7.862  18.482  0.00  0.00    +0.000 A 
ATOM     27  C   UNL     1       3.424   7.275  17.512  0.00  0.00    +0.000 A 
ATOM     28  C   UNL     1       3.885   5.973  17.689  0.00  0.00    +0.000 A 
ATOM     29 CL   UNL     1       4.882   5.244  16.491  0.00  0.00    +0.000 Cl
ATOM     30  C   UNL     1       3.545   5.260  18.835  0.00  0.00    +0.000 A 
ATOM     31  C   UNL     1       2.735   5.850  19.811  0.00  0.00    +0.000 A 
ENDBRANCH  24  25
ENDBRANCH  22  24
ENDBRANCH  19  21
ENDBRANCH  18  19
ENDBRANCH   1  18
TORSDOF 6
ENDMDL
