MODEL 1
REMARK VINA RESULT:      -8.6      0.000      0.000
REMARK  Name = 
REMARK  5 active torsions:
REMARK  status: ('A' for Active; 'I' for Inactive)
REMARK    1  A    between atoms: C_1  and  O_2
REMARK    2  A    between atoms: O_2  and  C_3
REMARK    3  A    between atoms: C_6  and  C_7
REMARK    4  A    between atoms: C_7  and  C_8
REMARK    5  A    between atoms: C_11  and  C_12
REMARK                            x       y       z     vdW  Elec       q    Type
REMARK                         _______ _______ _______ _____ _____    ______ ____
ROOT
ATOM      1  C   UNL     1       4.088   5.396  17.827  0.00  0.00    +0.000 A 
ATOM      2  N   UNL     1       4.646   5.286  16.651  0.00  0.00    +0.000 NA
ATOM      3  N   UNL     1       5.956   4.995  16.895  0.00  0.00    +0.000 N 
ATOM      4  C   UNL     1       7.021   4.639  16.100  0.00  0.00    +0.000 A 
ATOM      5  N   UNL     1       8.031   4.313  16.907  0.00  0.00    +0.000 NA
ATOM      6  N   UNL     1       7.630   4.477  18.230  0.00  0.00    +0.000 NA
ATOM      7  C   UNL     1       6.395   4.889  18.170  0.00  0.00    +0.000 A 
ATOM      8  S   UNL     1       5.129   5.216  19.266  0.00  0.00    +0.000 S 
ENDROOT
BRANCH   4   9
ATOM      9  C   UNL     1       7.006   4.565  14.641  0.00  0.00    +0.000 A 
ATOM     10  C   UNL     1       7.836   5.416  13.893  0.00  0.00    +0.000 A 
ATOM     11  C   UNL     1       7.850   5.359  12.497  0.00  0.00    +0.000 A 
ATOM     12  C   UNL     1       7.024   4.458  11.829  0.00  0.00    +0.000 A 
ATOM     13  C   UNL     1       6.189   3.617  12.562  0.00  0.00    +0.000 A 
ATOM     14 CL   UNL     1       5.161   2.507  11.741  0.00  0.00    +0.000 Cl
ATOM     15  C   UNL     1       6.177   3.667  13.956  0.00  0.00    +0.000 A 
ENDBRANCH   4   9
BRANCH   1  16
ATOM     16  C   UNL     1       2.612   5.577  18.031  0.00  0.00    +0.000 C 
BRANCH  16  20
ATOM     17  C   UNL     1       1.345   9.371  19.666  0.00  0.00    +0.000 A 
ATOM     18  C   UNL     1       1.664   9.254  18.312  0.00  0.00    +0.000 A 
ATOM     19  C   UNL     1       2.093   8.034  17.784  0.00  0.00    +0.000 A 
ATOM     20  C   UNL     1       2.218   6.910  18.610  0.00  0.00    +0.000 A 
ATOM     21  C   UNL     1       1.933   7.041  19.976  0.00  0.00    +0.000 A 
ATOM     22  C   UNL     1       1.498   8.264  20.500  0.00  0.00    +0.000 A 
BRANCH  17  24
ATOM     23  C   UNL     1       0.060  10.643  21.188  0.00  0.00    +0.000 C 
ATOM     24  O   UNL     1       0.932  10.611  20.064  0.00  0.00    +0.000 OA
ENDBRANCH  17  24
ENDBRANCH  16  20
ENDBRANCH   1  16
TORSDOF 4
ENDMDL
MODEL 2
REMARK VINA RESULT:      -8.3      0.554      1.146
REMARK  Name = 
REMARK  5 active torsions:
REMARK  status: ('A' for Active; 'I' for Inactive)
REMARK    1  A    between atoms: C_1  and  O_2
REMARK    2  A    between atoms: O_2  and  C_3
REMARK    3  A    between atoms: C_6  and  C_7
REMARK    4  A    between atoms: C_7  and  C_8
REMARK    5  A    between atoms: C_11  and  C_12
REMARK                            x       y       z     vdW  Elec       q    Type
REMARK                         _______ _______ _______ _____ _____    ______ ____
ROOT
ATOM      1  C   UNL     1       4.071   5.336  17.854  0.00  0.00    +0.000 A 
ATOM      2  N   UNL     1       4.635   5.240  16.679  0.00  0.00    +0.000 NA
ATOM      3  N   UNL     1       5.949   4.974  16.927  0.00  0.00    +0.000 N 
ATOM      4  C   UNL     1       7.024   4.639  16.136  0.00  0.00    +0.000 A 
ATOM      5  N   UNL     1       8.037   4.331  16.946  0.00  0.00    +0.000 NA
ATOM      6  N   UNL     1       7.628   4.484  18.268  0.00  0.00    +0.000 NA
ATOM      7  C   UNL     1       6.386   4.872  18.204  0.00  0.00    +0.000 A 
ATOM      8  S   UNL     1       5.109   5.173  19.296  0.00  0.00    +0.000 S 
ENDROOT
BRANCH   4   9
ATOM      9  C   UNL     1       7.016   4.569  14.676  0.00  0.00    +0.000 A 
ATOM     10  C   UNL     1       7.841   5.429  13.934  0.00  0.00    +0.000 A 
ATOM     11  C   UNL     1       7.861   5.375  12.538  0.00  0.00    +0.000 A 
ATOM     12  C   UNL     1       7.046   4.468  11.864  0.00  0.00    +0.000 A 
ATOM     13  C   UNL     1       6.216   3.618  12.592  0.00  0.00    +0.000 A 
ATOM     14 CL   UNL     1       5.202   2.500  11.764  0.00  0.00    +0.000 Cl
ATOM     15  C   UNL     1       6.198   3.664  13.986  0.00  0.00    +0.000 A 
ENDBRANCH   4   9
BRANCH   1  16
ATOM     16  C   UNL     1       2.591   5.490  18.052  0.00  0.00    +0.000 C 
BRANCH  16  20
ATOM     17  C   UNL     1       1.476   9.459  19.344  0.00  0.00    +0.000 A 
ATOM     18  C   UNL     1       1.573   8.416  20.266  0.00  0.00    +0.000 A 
ATOM     19  C   UNL     1       1.914   7.127  19.849  0.00  0.00    +0.000 A 
ATOM     20  C   UNL     1       2.156   6.862  18.495  0.00  0.00    +0.000 A 
ATOM     21  C   UNL     1       2.020   7.904  17.568  0.00  0.00    +0.000 A 
ATOM     22  C   UNL     1       1.684   9.196  17.991  0.00  0.00    +0.000 A 
BRANCH  17  24
ATOM     23  C   UNL     1       1.538  11.811  19.111  0.00  0.00    +0.000 C 
ATOM     24  O   UNL     1       1.142  10.675  19.872  0.00  0.00    +0.000 OA
ENDBRANCH  17  24
ENDBRANCH  16  20
ENDBRANCH   1  16
TORSDOF 4
ENDMDL
MODEL 3
REMARK VINA RESULT:      -7.9      1.050      1.436
REMARK  Name = 
REMARK  5 active torsions:
REMARK  status: ('A' for Active; 'I' for Inactive)
REMARK    1  A    between atoms: C_1  and  O_2
REMARK    2  A    between atoms: O_2  and  C_3
REMARK    3  A    between atoms: C_6  and  C_7
REMARK    4  A    between atoms: C_7  and  C_8
REMARK    5  A    between atoms: C_11  and  C_12
REMARK                            x       y       z     vdW  Elec       q    Type
REMARK                         _______ _______ _______ _____ _____    ______ ____
ROOT
ATOM      1  C   UNL     1       4.067   5.363  17.946  0.00  0.00    +0.000 A 
ATOM      2  N   UNL     1       4.602   5.241  16.760  0.00  0.00    +0.000 NA
ATOM      3  N   UNL     1       5.919   4.966  16.980  0.00  0.00    +0.000 N 
ATOM      4  C   UNL     1       6.970   4.607  16.169  0.00  0.00    +0.000 A 
ATOM      5  N   UNL     1       8.000   4.302  16.959  0.00  0.00    +0.000 NA
ATOM      6  N   UNL     1       7.625   4.482  18.288  0.00  0.00    +0.000 NA
ATOM      7  C   UNL     1       6.386   4.882  18.248  0.00  0.00    +0.000 A 
ATOM      8  S   UNL     1       5.139   5.214  19.365  0.00  0.00    +0.000 S 
ENDROOT
BRANCH   4   9
ATOM      9  C   UNL     1       6.926   4.512  14.711  0.00  0.00    +0.000 A 
ATOM     10  C   UNL     1       6.177   3.491  14.103  0.00  0.00    +0.000 A 
ATOM     11  C   UNL     1       6.109   3.384  12.712  0.00  0.00    +0.000 A 
ATOM     12  C   UNL     1       6.798   4.290  11.909  0.00  0.00    +0.000 A 
ATOM     13  C   UNL     1       7.552   5.300  12.503  0.00  0.00    +0.000 A 
ATOM     14 CL   UNL     1       8.412   6.418  11.516  0.00  0.00    +0.000 Cl
ATOM     15  C   UNL     1       7.618   5.414  13.892  0.00  0.00    +0.000 A 
ENDBRANCH   4   9
BRANCH   1  16
ATOM     16  C   UNL     1       2.595   5.534  18.177  0.00  0.00    +0.000 C 
BRANCH  16  20
ATOM     17  C   UNL     1       1.323   9.356  19.742  0.00  0.00    +0.000 A 
ATOM     18  C   UNL     1       1.657   9.219  18.393  0.00  0.00    +0.000 A 
ATOM     19  C   UNL     1       2.088   7.989  17.889  0.00  0.00    +0.000 A 
ATOM     20  C   UNL     1       2.198   6.877  18.733  0.00  0.00    +0.000 A 
ATOM     21  C   UNL     1       1.899   7.029  20.092  0.00  0.00    +0.000 A 
ATOM     22  C   UNL     1       1.462   8.261  20.594  0.00  0.00    +0.000 A 
BRANCH  17  24
ATOM     23  C   UNL     1       0.033  10.656  21.236  0.00  0.00    +0.000 C 
ATOM     24  O   UNL     1       0.911  10.604  20.117  0.00  0.00    +0.000 OA
ENDBRANCH  17  24
ENDBRANCH  16  20
ENDBRANCH   1  16
TORSDOF 4
ENDMDL
MODEL 4
REMARK VINA RESULT:      -7.7      1.130      1.790
REMARK  Name = 
REMARK  5 active torsions:
REMARK  status: ('A' for Active; 'I' for Inactive)
REMARK    1  A    between atoms: C_1  and  O_2
REMARK    2  A    between atoms: O_2  and  C_3
REMARK    3  A    between atoms: C_6  and  C_7
REMARK    4  A    between atoms: C_7  and  C_8
REMARK    5  A    between atoms: C_11  and  C_12
REMARK                            x       y       z     vdW  Elec       q    Type
REMARK                         _______ _______ _______ _____ _____    ______ ____
ROOT
ATOM      1  C   UNL     1       4.007   5.337  17.927  0.00  0.00    +0.000 A 
ATOM      2  N   UNL     1       4.558   5.224  16.748  0.00  0.00    +0.000 NA
ATOM      3  N   UNL     1       5.876   4.967  16.984  0.00  0.00    +0.000 N 
ATOM      4  C   UNL     1       6.942   4.624  16.186  0.00  0.00    +0.000 A 
ATOM      5  N   UNL     1       7.966   4.333  16.989  0.00  0.00    +0.000 NA
ATOM      6  N   UNL     1       7.572   4.505  18.313  0.00  0.00    +0.000 NA
ATOM      7  C   UNL     1       6.328   4.888  18.258  0.00  0.00    +0.000 A 
ATOM      8  S   UNL     1       5.063   5.201  19.359  0.00  0.00    +0.000 S 
ENDROOT
BRANCH   4   9
ATOM      9  C   UNL     1       6.918   4.531  14.728  0.00  0.00    +0.000 A 
ATOM     10  C   UNL     1       6.178   3.510  14.109  0.00  0.00    +0.000 A 
ATOM     11  C   UNL     1       6.129   3.404  12.716  0.00  0.00    +0.000 A 
ATOM     12  C   UNL     1       6.828   4.312  11.924  0.00  0.00    +0.000 A 
ATOM     13  C   UNL     1       7.572   5.322  12.530  0.00  0.00    +0.000 A 
ATOM     14 CL   UNL     1       8.444   6.442  11.555  0.00  0.00    +0.000 Cl
ATOM     15  C   UNL     1       7.619   5.434  13.919  0.00  0.00    +0.000 A 
ENDBRANCH   4   9
BRANCH   1  16
ATOM     16  C   UNL     1       2.529   5.487  18.140  0.00  0.00    +0.000 C 
BRANCH  16  20
ATOM     17  C   UNL     1       1.439   9.394  19.629  0.00  0.00    +0.000 A 
ATOM     18  C   UNL     1       1.500   8.299  20.493  0.00  0.00    +0.000 A 
ATOM     19  C   UNL     1       1.833   7.031  20.011  0.00  0.00    +0.000 A 
ATOM     20  C   UNL     1       2.102   6.838  18.650  0.00  0.00    +0.000 A 
ATOM     21  C   UNL     1       2.002   7.932  17.781  0.00  0.00    +0.000 A 
ATOM     22  C   UNL     1       1.674   9.203  18.268  0.00  0.00    +0.000 A 
BRANCH  17  24
ATOM     23  C   UNL     1       0.286  11.449  19.444  0.00  0.00    +0.000 C 
ATOM     24  O   UNL     1       1.109  10.583  20.218  0.00  0.00    +0.000 OA
ENDBRANCH  17  24
ENDBRANCH  16  20
ENDBRANCH   1  16
TORSDOF 4
ENDMDL
MODEL 5
REMARK VINA RESULT:      -7.4      4.092      8.022
REMARK  Name = 
REMARK  5 active torsions:
REMARK  status: ('A' for Active; 'I' for Inactive)
REMARK    1  A    between atoms: C_1  and  O_2
REMARK    2  A    between atoms: O_2  and  C_3
REMARK    3  A    between atoms: C_6  and  C_7
REMARK    4  A    between atoms: C_7  and  C_8
REMARK    5  A    between atoms: C_11  and  C_12
REMARK                            x       y       z     vdW  Elec       q    Type
REMARK                         _______ _______ _______ _____ _____    ______ ____
ROOT
ATOM      1  C   UNL     1       5.124   4.774  18.645  0.00  0.00    +0.000 A 
ATOM      2  N   UNL     1       4.357   5.831  18.609  0.00  0.00    +0.000 NA
ATOM      3  N   UNL     1       3.274   5.522  19.377  0.00  0.00    +0.000 N 
ATOM      4  C   UNL     1       2.193   6.237  19.839  0.00  0.00    +0.000 A 
ATOM      5  N   UNL     1       1.531   5.454  20.692  0.00  0.00    +0.000 NA
ATOM      6  N   UNL     1       2.171   4.221  20.772  0.00  0.00    +0.000 NA
ATOM      7  C   UNL     1       3.194   4.308  19.970  0.00  0.00    +0.000 A 
ATOM      8  S   UNL     1       4.542   3.350  19.549  0.00  0.00    +0.000 S 
ENDROOT
BRANCH   4   9
ATOM      9  C   UNL     1       1.883   7.624  19.501  0.00  0.00    +0.000 A 
ATOM     10  C   UNL     1       2.164   8.105  18.211  0.00  0.00    +0.000 A 
ATOM     11  C   UNL     1       1.868   9.424  17.858  0.00  0.00    +0.000 A 
ATOM     12  C   UNL     1       1.298  10.284  18.795  0.00  0.00    +0.000 A 
ATOM     13  C   UNL     1       1.026   9.819  20.079  0.00  0.00    +0.000 A 
ATOM     14 CL   UNL     1       0.328  10.880  21.241  0.00  0.00    +0.000 Cl
ATOM     15  C   UNL     1       1.314   8.501  20.433  0.00  0.00    +0.000 A 
ENDBRANCH   4   9
BRANCH   1  16
ATOM     16  C   UNL     1       6.497   4.725  18.041  0.00  0.00    +0.000 C 
BRANCH  16  20
ATOM     17  C   UNL     1       6.477   4.217  13.750  0.00  0.00    +0.000 A 
ATOM     18  C   UNL     1       5.548   3.545  14.547  0.00  0.00    +0.000 A 
ATOM     19  C   UNL     1       5.564   3.692  15.936  0.00  0.00    +0.000 A 
ATOM     20  C   UNL     1       6.520   4.511  16.551  0.00  0.00    +0.000 A 
ATOM     21  C   UNL     1       7.474   5.153  15.750  0.00  0.00    +0.000 A 
ATOM     22  C   UNL     1       7.451   5.008  14.358  0.00  0.00    +0.000 A 
BRANCH  17  24
ATOM     23  C   UNL     1       5.324   3.103  12.013  0.00  0.00    +0.000 C 
ATOM     24  O   UNL     1       6.357   4.000  12.406  0.00  0.00    +0.000 OA
ENDBRANCH  17  24
ENDBRANCH  16  20
ENDBRANCH   1  16
TORSDOF 4
ENDMDL
MODEL 6
REMARK VINA RESULT:      -7.3      2.556      3.596
REMARK  Name = 
REMARK  5 active torsions:
REMARK  status: ('A' for Active; 'I' for Inactive)
REMARK    1  A    between atoms: C_1  and  O_2
REMARK    2  A    between atoms: O_2  and  C_3
REMARK    3  A    between atoms: C_6  and  C_7
REMARK    4  A    between atoms: C_7  and  C_8
REMARK    5  A    between atoms: C_11  and  C_12
REMARK                            x       y       z     vdW  Elec       q    Type
REMARK                         _______ _______ _______ _____ _____    ______ ____
ROOT
ATOM      1  C   UNL     1       2.259   5.598  20.264  0.00  0.00    +0.000 A 
ATOM      2  N   UNL     1       3.285   5.407  19.478  0.00  0.00    +0.000 NA
ATOM      3  N   UNL     1       3.030   4.238  18.823  0.00  0.00    +0.000 N 
ATOM      4  C   UNL     1       3.640   3.568  17.788  0.00  0.00    +0.000 A 
ATOM      5  N   UNL     1       2.850   2.548  17.451  0.00  0.00    +0.000 NA
ATOM      6  N   UNL     1       1.732   2.542  18.280  0.00  0.00    +0.000 NA
ATOM      7  C   UNL     1       1.888   3.559  19.080  0.00  0.00    +0.000 A 
ATOM      8  S   UNL     1       0.984   4.350  20.292  0.00  0.00    +0.000 S 
ENDROOT
BRANCH   4   9
ATOM      9  C   UNL     1       4.891   3.960  17.141  0.00  0.00    +0.000 A 
ATOM     10  C   UNL     1       5.951   4.452  17.919  0.00  0.00    +0.000 A 
ATOM     11  C   UNL     1       7.162   4.824  17.327  0.00  0.00    +0.000 A 
ATOM     12  C   UNL     1       7.323   4.719  15.947  0.00  0.00    +0.000 A 
ATOM     13  C   UNL     1       6.272   4.241  15.167  0.00  0.00    +0.000 A 
ATOM     14 CL   UNL     1       6.465   4.117  13.461  0.00  0.00    +0.000 Cl
ATOM     15  C   UNL     1       5.065   3.864  15.755  0.00  0.00    +0.000 A 
ENDBRANCH   4   9
BRANCH   1  16
ATOM     16  C   UNL     1       2.058   6.844  21.075  0.00  0.00    +0.000 C 
BRANCH  16  20
ATOM     17  C   UNL     1       0.446  10.241  18.946  0.00  0.00    +0.000 A 
ATOM     18  C   UNL     1       0.004   9.939  20.235  0.00  0.00    +0.000 A 
ATOM     19  C   UNL     1       0.509   8.830  20.919  0.00  0.00    +0.000 A 
ATOM     20  C   UNL     1       1.461   7.999  20.315  0.00  0.00    +0.000 A 
ATOM     21  C   UNL     1       1.873   8.284  19.007  0.00  0.00    +0.000 A 
ATOM     22  C   UNL     1       1.370   9.400  18.327  0.00  0.00    +0.000 A 
BRANCH  17  24
ATOM     23  C   UNL     1      -1.486  11.579  18.693  0.00  0.00    +0.000 C 
ATOM     24  O   UNL     1      -0.116  11.352  18.382  0.00  0.00    +0.000 OA
ENDBRANCH  17  24
ENDBRANCH  16  20
ENDBRANCH   1  16
TORSDOF 4
ENDMDL
MODEL 7
REMARK VINA RESULT:      -7.2      2.535      3.501
REMARK  Name = 
REMARK  5 active torsions:
REMARK  status: ('A' for Active; 'I' for Inactive)
REMARK    1  A    between atoms: C_1  and  O_2
REMARK    2  A    between atoms: O_2  and  C_3
REMARK    3  A    between atoms: C_6  and  C_7
REMARK    4  A    between atoms: C_7  and  C_8
REMARK    5  A    between atoms: C_11  and  C_12
REMARK                            x       y       z     vdW  Elec       q    Type
REMARK                         _______ _______ _______ _____ _____    ______ ____
ROOT
ATOM      1  C   UNL     1       2.244   5.378  20.276  0.00  0.00    +0.000 A 
ATOM      2  N   UNL     1       3.268   5.231  19.477  0.00  0.00    +0.000 NA
ATOM      3  N   UNL     1       2.993   4.122  18.732  0.00  0.00    +0.000 N 
ATOM      4  C   UNL     1       3.594   3.525  17.649  0.00  0.00    +0.000 A 
ATOM      5  N   UNL     1       2.786   2.549  17.231  0.00  0.00    +0.000 NA
ATOM      6  N   UNL     1       1.666   2.498  18.057  0.00  0.00    +0.000 NA
ATOM      7  C   UNL     1       1.839   3.446  18.934  0.00  0.00    +0.000 A 
ATOM      8  S   UNL     1       0.946   4.155  20.204  0.00  0.00    +0.000 S 
ENDROOT
BRANCH   4   9
ATOM      9  C   UNL     1       4.853   3.944  17.036  0.00  0.00    +0.000 A 
ATOM     10  C   UNL     1       5.878   4.466  17.841  0.00  0.00    +0.000 A 
ATOM     11  C   UNL     1       7.096   4.864  17.282  0.00  0.00    +0.000 A 
ATOM     12  C   UNL     1       7.299   4.755  15.908  0.00  0.00    +0.000 A 
ATOM     13  C   UNL     1       6.284   4.248  15.100  0.00  0.00    +0.000 A 
ATOM     14 CL   UNL     1       6.529   4.119  13.401  0.00  0.00    +0.000 Cl
ATOM     15  C   UNL     1       5.070   3.844  15.655  0.00  0.00    +0.000 A 
ENDBRANCH   4   9
BRANCH   1  16
ATOM     16  C   UNL     1       2.064   6.560  21.182  0.00  0.00    +0.000 C 
BRANCH  16  20
ATOM     17  C   UNL     1       0.542  10.066  19.167  0.00  0.00    +0.000 A 
ATOM     18  C   UNL     1       1.436   9.210  18.521  0.00  0.00    +0.000 A 
ATOM     19  C   UNL     1       1.945   8.087  19.177  0.00  0.00    +0.000 A 
ATOM     20  C   UNL     1       1.571   7.808  20.497  0.00  0.00    +0.000 A 
ATOM     21  C   UNL     1       0.704   8.690  21.154  0.00  0.00    +0.000 A 
ATOM     22  C   UNL     1       0.191   9.812  20.492  0.00  0.00    +0.000 A 
BRANCH  17  24
ATOM     23  C   UNL     1      -1.300  11.234  18.256  0.00  0.00    +0.000 C 
ATOM     24  O   UNL     1       0.109  11.128  18.422  0.00  0.00    +0.000 OA
ENDBRANCH  17  24
ENDBRANCH  16  20
ENDBRANCH   1  16
TORSDOF 4
ENDMDL
MODEL 8
REMARK VINA RESULT:      -7.2      1.934      2.750
REMARK  Name = 
REMARK  5 active torsions:
REMARK  status: ('A' for Active; 'I' for Inactive)
REMARK    1  A    between atoms: C_1  and  O_2
REMARK    2  A    between atoms: O_2  and  C_3
REMARK    3  A    between atoms: C_6  and  C_7
REMARK    4  A    between atoms: C_7  and  C_8
REMARK    5  A    between atoms: C_11  and  C_12
REMARK                            x       y       z     vdW  Elec       q    Type
REMARK                         _______ _______ _______ _____ _____    ______ ____
ROOT
ATOM      1  C   UNL     1       5.114   4.202  17.328  0.00  0.00    +0.000 A 
ATOM      2  N   UNL     1       4.953   3.873  16.074  0.00  0.00    +0.000 NA
ATOM      3  N   UNL     1       5.941   4.524  15.396  0.00  0.00    +0.000 N 
ATOM      4  C   UNL     1       6.390   4.494  14.096  0.00  0.00    +0.000 A 
ATOM      5  N   UNL     1       7.503   5.226  14.040  0.00  0.00    +0.000 NA
ATOM      6  N   UNL     1       7.769   5.750  15.302  0.00  0.00    +0.000 NA
ATOM      7  C   UNL     1       6.813   5.311  16.069  0.00  0.00    +0.000 A 
ATOM      8  S   UNL     1       6.417   5.354  17.729  0.00  0.00    +0.000 S 
ENDROOT
BRANCH   4   9
ATOM      9  C   UNL     1       5.785   3.733  13.005  0.00  0.00    +0.000 A 
ATOM     10  C   UNL     1       4.614   4.209  12.391  0.00  0.00    +0.000 A 
ATOM     11  C   UNL     1       4.021   3.507  11.338  0.00  0.00    +0.000 A 
ATOM     12  C   UNL     1       4.585   2.313  10.893  0.00  0.00    +0.000 A 
ATOM     13  C   UNL     1       5.739   1.829  11.503  0.00  0.00    +0.000 A 
ATOM     14 CL   UNL     1       6.435   0.350  10.961  0.00  0.00    +0.000 Cl
ATOM     15  C   UNL     1       6.337   2.530  12.549  0.00  0.00    +0.000 A 
ENDBRANCH   4   9
BRANCH   1  16
ATOM     16  C   UNL     1       4.322   3.600  18.451  0.00  0.00    +0.000 C 
BRANCH  16  20
ATOM     17  C   UNL     1       1.779   6.382  20.564  0.00  0.00    +0.000 A 
ATOM     18  C   UNL     1       2.538   6.805  19.471  0.00  0.00    +0.000 A 
ATOM     19  C   UNL     1       3.376   5.913  18.798  0.00  0.00    +0.000 A 
ATOM     20  C   UNL     1       3.473   4.580  19.217  0.00  0.00    +0.000 A 
ATOM     21  C   UNL     1       2.739   4.169  20.337  0.00  0.00    +0.000 A 
ATOM     22  C   UNL     1       1.896   5.064  21.006  0.00  0.00    +0.000 A 
BRANCH  17  24
ATOM     23  C   UNL     1       1.186   8.668  20.655  0.00  0.00    +0.000 C 
ATOM     24  O   UNL     1       0.993   7.343  21.136  0.00  0.00    +0.000 OA
ENDBRANCH  17  24
ENDBRANCH  16  20
ENDBRANCH   1  16
TORSDOF 4
ENDMDL
MODEL 9
REMARK VINA RESULT:      -7.2      1.692      2.505
REMARK  Name = 
REMARK  5 active torsions:
REMARK  status: ('A' for Active; 'I' for Inactive)
REMARK    1  A    between atoms: C_1  and  O_2
REMARK    2  A    between atoms: O_2  and  C_3
REMARK    3  A    between atoms: C_6  and  C_7
REMARK    4  A    between atoms: C_7  and  C_8
REMARK    5  A    between atoms: C_11  and  C_12
REMARK                            x       y       z     vdW  Elec       q    Type
REMARK                         _______ _______ _______ _____ _____    ______ ____
ROOT
ATOM      1  C   UNL     1       4.581   4.520  17.059  0.00  0.00    +0.000 A 
ATOM      2  N   UNL     1       4.677   4.101  15.825  0.00  0.00    +0.000 NA
ATOM      3  N   UNL     1       5.806   4.682  15.329  0.00  0.00    +0.000 N 
ATOM      4  C   UNL     1       6.517   4.547  14.159  0.00  0.00    +0.000 A 
ATOM      5  N   UNL     1       7.640   5.254  14.290  0.00  0.00    +0.000 NA
ATOM      6  N   UNL     1       7.652   5.867  15.540  0.00  0.00    +0.000 NA
ATOM      7  C   UNL     1       6.541   5.502  16.115  0.00  0.00    +0.000 A 
ATOM      8  S   UNL     1       5.807   5.676  17.646  0.00  0.00    +0.000 S 
ENDROOT
BRANCH   4   9
ATOM      9  C   UNL     1       6.131   3.717  13.020  0.00  0.00    +0.000 A 
ATOM     10  C   UNL     1       7.065   2.833  12.456  0.00  0.00    +0.000 A 
ATOM     11  C   UNL     1       6.718   2.020  11.373  0.00  0.00    +0.000 A 
ATOM     12  C   UNL     1       5.436   2.089  10.833  0.00  0.00    +0.000 A 
ATOM     13  C   UNL     1       4.507   2.972  11.379  0.00  0.00    +0.000 A 
ATOM     14 CL   UNL     1       2.924   3.067  10.709  0.00  0.00    +0.000 Cl
ATOM     15  C   UNL     1       4.847   3.780  12.463  0.00  0.00    +0.000 A 
ENDBRANCH   4   9
BRANCH   1  16
ATOM     16  C   UNL     1       3.551   4.017  18.027  0.00  0.00    +0.000 C 
BRANCH  16  20
ATOM     17  C   UNL     1       1.673   7.134  20.357  0.00  0.00    +0.000 A 
ATOM     18  C   UNL     1       1.732   5.826  20.841  0.00  0.00    +0.000 A 
ATOM     19  C   UNL     1       2.321   4.812  20.082  0.00  0.00    +0.000 A 
ATOM     20  C   UNL     1       2.854   5.093  18.818  0.00  0.00    +0.000 A 
ATOM     21  C   UNL     1       2.759   6.399  18.320  0.00  0.00    +0.000 A 
ATOM     22  C   UNL     1       2.173   7.414  19.086  0.00  0.00    +0.000 A 
BRANCH  17  24
ATOM     23  C   UNL     1       0.863   9.336  20.646  0.00  0.00    +0.000 C 
ATOM     24  O   UNL     1       1.079   8.039  21.192  0.00  0.00    +0.000 OA
ENDBRANCH  17  24
ENDBRANCH  16  20
ENDBRANCH   1  16
TORSDOF 4
ENDMDL
