MODEL 1
REMARK VINA RESULT:      -6.0      0.000      0.000
REMARK  Name = 
REMARK  9 active torsions:
REMARK  status: ('A' for Active; 'I' for Inactive)
REMARK    1  A    between atoms: C_1  and  S_2
REMARK    2  A    between atoms: S_2  and  C_5
REMARK    3  A    between atoms: C_8  and  C_9
REMARK    4  A    between atoms: C_9  and  C_10
REMARK    5  A    between atoms: C_10  and  C_11
REMARK    6  A    between atoms: C_11  and  C_12
REMARK    7  A    between atoms: C_12  and  O_13
REMARK    8  A    between atoms: C_14  and  C_15
REMARK    9  A    between atoms: C_14  and  C_21
REMARK                            x       y       z     vdW  Elec       q    Type
REMARK                         _______ _______ _______ _____ _____    ______ ____
ROOT
ATOM      1  C   UNL     1       0.452  11.533  19.857  0.00  0.00    +0.000 C 
ATOM      2  C   UNL     1      -0.629  12.090  19.239  0.00  0.00    +0.000 C 
ENDROOT
BRANCH   1   6
ATOM      3  C   UNL     1       2.224   7.746  18.858  0.00  0.00    +0.000 A 
ATOM      4  C   UNL     1       2.155   8.760  17.902  0.00  0.00    +0.000 A 
ATOM      5  C   UNL     1       1.544   9.978  18.230  0.00  0.00    +0.000 A 
ATOM      6  C   UNL     1       0.986  10.189  19.503  0.00  0.00    +0.000 A 
ATOM      7  C   UNL     1       1.000   9.130  20.424  0.00  0.00    +0.000 A 
ATOM      8  C   UNL     1       1.618   7.911  20.107  0.00  0.00    +0.000 A 
BRANCH   3  10
ATOM      9  C   UNL     1       4.298   6.744  17.276  0.00  0.00    +0.000 C 
ATOM     10  S   UNL     1       3.088   6.236  18.474  0.00  0.00    +0.000 S 
ATOM     11  O   UNL     1       2.152   5.347  17.811  0.00  0.00    +0.000 OA
ATOM     12  O   UNL     1       3.794   5.813  19.669  0.00  0.00    +0.000 OA
ENDBRANCH   3  10
ENDBRANCH   1   6
BRANCH   2  13
ATOM     13  C   UNL     1      -1.465  11.335  18.270  0.00  0.00    +0.000 A 
ATOM     14  C   UNL     1      -2.171  10.204  18.708  0.00  0.00    +0.000 A 
ATOM     15  C   UNL     1      -3.064   9.554  17.854  0.00  0.00    +0.000 A 
ATOM     16  C   UNL     1      -3.261  10.028  16.556  0.00  0.00    +0.000 A 
ATOM     17  C   UNL     1      -2.559  11.146  16.112  0.00  0.00    +0.000 A 
ATOM     18  C   UNL     1      -1.663  11.799  16.962  0.00  0.00    +0.000 A 
ENDBRANCH   2  13
BRANCH   2  19
ATOM     19  C   UNL     1      -0.956  13.525  19.497  0.00  0.00    +0.000 A 
ATOM     20  C   UNL     1      -0.304  14.529  18.764  0.00  0.00    +0.000 A 
ATOM     21  C   UNL     1      -0.553  15.877  19.035  0.00  0.00    +0.000 A 
ATOM     22  C   UNL     1      -1.446  16.235  20.040  0.00  0.00    +0.000 A 
ATOM     23  C   UNL     1      -2.107  15.244  20.768  0.00  0.00    +0.000 A 
ATOM     24  C   UNL     1      -1.873  13.895  20.490  0.00  0.00    +0.000 A 
ENDBRANCH   2  19
BRANCH   1  25
ATOM     25  C   UNL     1       1.270  12.304  20.904  0.00  0.00    +0.000 C 
BRANCH  25  26
ATOM     26  C   UNL     1       2.442  13.161  20.412  0.00  0.00    +0.000 C 
BRANCH  26  27
ATOM     27  C   UNL     1       2.495  14.485  21.174  0.00  0.00    +0.000 C 
BRANCH  27  28
ATOM     28  O   UNL     1       3.297  14.345  22.339  0.00  0.00    +0.000 OA
ATOM     29  H   UNL     1       4.169  14.726  22.142  0.00  0.00    +0.000 HD
ENDBRANCH  27  28
ENDBRANCH  26  27
ENDBRANCH  25  26
ENDBRANCH   1  25
TORSDOF 8
ENDMDL
MODEL 2
REMARK VINA RESULT:      -6.0      3.540      9.268
REMARK  Name = 
REMARK  9 active torsions:
REMARK  status: ('A' for Active; 'I' for Inactive)
REMARK    1  A    between atoms: C_1  and  S_2
REMARK    2  A    between atoms: S_2  and  C_5
REMARK    3  A    between atoms: C_8  and  C_9
REMARK    4  A    between atoms: C_9  and  C_10
REMARK    5  A    between atoms: C_10  and  C_11
REMARK    6  A    between atoms: C_11  and  C_12
REMARK    7  A    between atoms: C_12  and  O_13
REMARK    8  A    between atoms: C_14  and  C_15
REMARK    9  A    between atoms: C_14  and  C_21
REMARK                            x       y       z     vdW  Elec       q    Type
REMARK                         _______ _______ _______ _____ _____    ______ ____
ROOT
ATOM      1  C   UNL     1       2.564   5.708  19.411  0.00  0.00    +0.000 C 
ATOM      2  C   UNL     1       3.639   5.131  18.801  0.00  0.00    +0.000 C 
ENDROOT
BRANCH   1   6
ATOM      3  C   UNL     1       1.502   9.860  19.068  0.00  0.00    +0.000 A 
ATOM      4  C   UNL     1       1.965   9.162  17.952  0.00  0.00    +0.000 A 
ATOM      5  C   UNL     1       2.340   7.818  18.085  0.00  0.00    +0.000 A 
ATOM      6  C   UNL     1       2.272   7.166  19.328  0.00  0.00    +0.000 A 
ATOM      7  C   UNL     1       1.875   7.908  20.452  0.00  0.00    +0.000 A 
ATOM      8  C   UNL     1       1.488   9.250  20.326  0.00  0.00    +0.000 A 
BRANCH   3  10
ATOM      9  C   UNL     1       0.819  12.127  20.553  0.00  0.00    +0.000 C 
ATOM     10  S   UNL     1       0.931  11.537  18.880  0.00  0.00    +0.000 S 
ATOM     11  O   UNL     1      -0.413  11.487  18.336  0.00  0.00    +0.000 OA
ATOM     12  O   UNL     1       1.975  12.290  18.211  0.00  0.00    +0.000 OA
ENDBRANCH   3  10
ENDBRANCH   1   6
BRANCH   2  13
ATOM     13  C   UNL     1       4.701   5.931  18.138  0.00  0.00    +0.000 A 
ATOM     14  C   UNL     1       5.907   6.166  18.816  0.00  0.00    +0.000 A 
ATOM     15  C   UNL     1       6.968   6.802  18.170  0.00  0.00    +0.000 A 
ATOM     16  C   UNL     1       6.836   7.207  16.841  0.00  0.00    +0.000 A 
ATOM     17  C   UNL     1       5.639   6.984  16.164  0.00  0.00    +0.000 A 
ATOM     18  C   UNL     1       4.573   6.349  16.807  0.00  0.00    +0.000 A 
ENDBRANCH   2  13
BRANCH   2  19
ATOM     19  C   UNL     1       3.730   3.640  18.747  0.00  0.00    +0.000 A 
ATOM     20  C   UNL     1       2.967   2.932  17.804  0.00  0.00    +0.000 A 
ATOM     21  C   UNL     1       2.994   1.535  17.780  0.00  0.00    +0.000 A 
ATOM     22  C   UNL     1       3.773   0.834  18.695  0.00  0.00    +0.000 A 
ATOM     23  C   UNL     1       4.543   1.529  19.629  0.00  0.00    +0.000 A 
ATOM     24  C   UNL     1       4.531   2.926  19.648  0.00  0.00    +0.000 A 
ENDBRANCH   2  19
BRANCH   1  25
ATOM     25  C   UNL     1       1.507   4.872  20.147  0.00  0.00    +0.000 C 
BRANCH  25  26
ATOM     26  C   UNL     1       1.928   4.151  21.433  0.00  0.00    +0.000 C 
BRANCH  26  27
ATOM     27  C   UNL     1       1.364   2.730  21.458  0.00  0.00    +0.000 C 
BRANCH  27  28
ATOM     28  O   UNL     1       0.519   2.522  20.335  0.00  0.00    +0.000 OA
ATOM     29  H   UNL     1      -0.058   3.300  20.252  0.00  0.00    +0.000 HD
ENDBRANCH  27  28
ENDBRANCH  26  27
ENDBRANCH  25  26
ENDBRANCH   1  25
TORSDOF 8
ENDMDL
MODEL 3
REMARK VINA RESULT:      -5.9      3.874      8.780
REMARK  Name = 
REMARK  9 active torsions:
REMARK  status: ('A' for Active; 'I' for Inactive)
REMARK    1  A    between atoms: C_1  and  S_2
REMARK    2  A    between atoms: S_2  and  C_5
REMARK    3  A    between atoms: C_8  and  C_9
REMARK    4  A    between atoms: C_9  and  C_10
REMARK    5  A    between atoms: C_10  and  C_11
REMARK    6  A    between atoms: C_11  and  C_12
REMARK    7  A    between atoms: C_12  and  O_13
REMARK    8  A    between atoms: C_14  and  C_15
REMARK    9  A    between atoms: C_14  and  C_21
REMARK                            x       y       z     vdW  Elec       q    Type
REMARK                         _______ _______ _______ _____ _____    ______ ____
ROOT
ATOM      1  C   UNL     1       3.637   6.662  17.753  0.00  0.00    +0.000 C 
ATOM      2  C   UNL     1       3.787   5.313  17.615  0.00  0.00    +0.000 C 
ENDROOT
BRANCH   1   6
ATOM      3  C   UNL     1       1.113   8.519  20.696  0.00  0.00    +0.000 A 
ATOM      4  C   UNL     1       1.723   7.294  20.970  0.00  0.00    +0.000 A 
ATOM      5  C   UNL     1       2.516   6.684  19.989  0.00  0.00    +0.000 A 
ATOM      6  C   UNL     1       2.694   7.277  18.728  0.00  0.00    +0.000 A 
ATOM      7  C   UNL     1       2.012   8.471  18.448  0.00  0.00    +0.000 A 
ATOM      8  C   UNL     1       1.225   9.095  19.427  0.00  0.00    +0.000 A 
BRANCH   3  10
ATOM      9  C   UNL     1      -0.494  10.761  21.145  0.00  0.00    +0.000 C 
ATOM     10  S   UNL     1       0.188   9.345  21.975  0.00  0.00    +0.000 S 
ATOM     11  O   UNL     1       1.135   9.824  22.965  0.00  0.00    +0.000 OA
ATOM     12  O   UNL     1      -0.912   8.480  22.357  0.00  0.00    +0.000 OA
ENDBRANCH   3  10
ENDBRANCH   1   6
BRANCH   2  13
ATOM     13  C   UNL     1       2.906   4.340  18.311  0.00  0.00    +0.000 A 
ATOM     14  C   UNL     1       1.641   4.054  17.775  0.00  0.00    +0.000 A 
ATOM     15  C   UNL     1       0.847   3.052  18.334  0.00  0.00    +0.000 A 
ATOM     16  C   UNL     1       1.309   2.325  19.432  0.00  0.00    +0.000 A 
ATOM     17  C   UNL     1       2.560   2.608  19.975  0.00  0.00    +0.000 A 
ATOM     18  C   UNL     1       3.358   3.612  19.420  0.00  0.00    +0.000 A 
ENDBRANCH   2  13
BRANCH   2  19
ATOM     19  C   UNL     1       4.910   4.788  16.781  0.00  0.00    +0.000 A 
ATOM     20  C   UNL     1       6.175   4.594  17.360  0.00  0.00    +0.000 A 
ATOM     21  C   UNL     1       7.250   4.162  16.580  0.00  0.00    +0.000 A 
ATOM     22  C   UNL     1       7.077   3.926  15.220  0.00  0.00    +0.000 A 
ATOM     23  C   UNL     1       5.822   4.105  14.636  0.00  0.00    +0.000 A 
ATOM     24  C   UNL     1       4.740   4.523  15.415  0.00  0.00    +0.000 A 
ENDBRANCH   2  19
BRANCH   1  25
ATOM     25  C   UNL     1       4.514   7.656  16.978  0.00  0.00    +0.000 C 
BRANCH  25  26
ATOM     26  C   UNL     1       5.722   8.264  17.700  0.00  0.00    +0.000 C 
BRANCH  26  27
ATOM     27  C   UNL     1       7.025   7.735  17.102  0.00  0.00    +0.000 C 
BRANCH  27  28
ATOM     28  O   UNL     1       7.981   7.518  18.131  0.00  0.00    +0.000 OA
ATOM     29  H   UNL     1       8.848   7.403  17.707  0.00  0.00    +0.000 HD
ENDBRANCH  27  28
ENDBRANCH  26  27
ENDBRANCH  25  26
ENDBRANCH   1  25
TORSDOF 8
ENDMDL
MODEL 4
REMARK VINA RESULT:      -5.9      1.766      2.413
REMARK  Name = 
REMARK  9 active torsions:
REMARK  status: ('A' for Active; 'I' for Inactive)
REMARK    1  A    between atoms: C_1  and  S_2
REMARK    2  A    between atoms: S_2  and  C_5
REMARK    3  A    between atoms: C_8  and  C_9
REMARK    4  A    between atoms: C_9  and  C_10
REMARK    5  A    between atoms: C_10  and  C_11
REMARK    6  A    between atoms: C_11  and  C_12
REMARK    7  A    between atoms: C_12  and  O_13
REMARK    8  A    between atoms: C_14  and  C_15
REMARK    9  A    between atoms: C_14  and  C_21
REMARK                            x       y       z     vdW  Elec       q    Type
REMARK                         _______ _______ _______ _____ _____    ______ ____
ROOT
ATOM      1  C   UNL     1      -0.347  11.255  20.344  0.00  0.00    +0.000 C 
ATOM      2  C   UNL     1      -1.433  11.712  19.658  0.00  0.00    +0.000 C 
ENDROOT
BRANCH   1   6
ATOM      3  C   UNL     1       2.016   8.002  18.822  0.00  0.00    +0.000 A 
ATOM      4  C   UNL     1       1.547   7.972  20.136  0.00  0.00    +0.000 A 
ATOM      5  C   UNL     1       0.807   9.054  20.630  0.00  0.00    +0.000 A 
ATOM      6  C   UNL     1       0.542  10.177  19.829  0.00  0.00    +0.000 A 
ATOM      7  C   UNL     1       1.086  10.220  18.535  0.00  0.00    +0.000 A 
ATOM      8  C   UNL     1       1.820   9.137  18.029  0.00  0.00    +0.000 A 
BRANCH   3  10
ATOM      9  C   UNL     1       3.631   5.857  19.593  0.00  0.00    +0.000 C 
ATOM     10  S   UNL     1       2.871   6.585  18.161  0.00  0.00    +0.000 S 
ATOM     11  O   UNL     1       3.928   7.072  17.295  0.00  0.00    +0.000 OA
ATOM     12  O   UNL     1       1.873   5.656  17.666  0.00  0.00    +0.000 OA
ENDBRANCH   3  10
ENDBRANCH   1   6
BRANCH   2  13
ATOM     13  C   UNL     1      -1.918  11.063  18.413  0.00  0.00    +0.000 A 
ATOM     14  C   UNL     1      -2.599   9.839  18.498  0.00  0.00    +0.000 A 
ATOM     15  C   UNL     1      -3.177   9.272  17.361  0.00  0.00    +0.000 A 
ATOM     16  C   UNL     1      -3.081   9.922  16.129  0.00  0.00    +0.000 A 
ATOM     17  C   UNL     1      -2.400  11.133  16.036  0.00  0.00    +0.000 A 
ATOM     18  C   UNL     1      -1.819  11.704  17.171  0.00  0.00    +0.000 A 
ENDBRANCH   2  13
BRANCH   2  19
ATOM     19  C   UNL     1      -2.133  12.942  20.140  0.00  0.00    +0.000 A 
ATOM     20  C   UNL     1      -1.463  14.176  20.118  0.00  0.00    +0.000 A 
ATOM     21  C   UNL     1      -2.080  15.324  20.621  0.00  0.00    +0.000 A 
ATOM     22  C   UNL     1      -3.364  15.252  21.153  0.00  0.00    +0.000 A 
ATOM     23  C   UNL     1      -4.042  14.033  21.170  0.00  0.00    +0.000 A 
ATOM     24  C   UNL     1      -3.435  12.885  20.655  0.00  0.00    +0.000 A 
ENDBRANCH   2  19
BRANCH   1  25
ATOM     25  C   UNL     1       0.104  11.898  21.664  0.00  0.00    +0.000 C 
BRANCH  25  26
ATOM     26  C   UNL     1      -0.806  11.743  22.888  0.00  0.00    +0.000 C 
BRANCH  26  27
ATOM     27  C   UNL     1      -1.034  10.265  23.201  0.00  0.00    +0.000 C 
BRANCH  27  28
ATOM     28  O   UNL     1       0.075   9.742  23.919  0.00  0.00    +0.000 OA
ATOM     29  H   UNL     1       0.777  10.415  23.907  0.00  0.00    +0.000 HD
ENDBRANCH  27  28
ENDBRANCH  26  27
ENDBRANCH  25  26
ENDBRANCH   1  25
TORSDOF 8
ENDMDL
MODEL 5
REMARK VINA RESULT:      -5.8      3.594      9.309
REMARK  Name = 
REMARK  9 active torsions:
REMARK  status: ('A' for Active; 'I' for Inactive)
REMARK    1  A    between atoms: C_1  and  S_2
REMARK    2  A    between atoms: S_2  and  C_5
REMARK    3  A    between atoms: C_8  and  C_9
REMARK    4  A    between atoms: C_9  and  C_10
REMARK    5  A    between atoms: C_10  and  C_11
REMARK    6  A    between atoms: C_11  and  C_12
REMARK    7  A    between atoms: C_12  and  O_13
REMARK    8  A    between atoms: C_14  and  C_15
REMARK    9  A    between atoms: C_14  and  C_21
REMARK                            x       y       z     vdW  Elec       q    Type
REMARK                         _______ _______ _______ _____ _____    ______ ____
ROOT
ATOM      1  C   UNL     1       2.731   5.640  19.659  0.00  0.00    +0.000 C 
ATOM      2  C   UNL     1       3.752   5.059  18.967  0.00  0.00    +0.000 C 
ENDROOT
BRANCH   1   6
ATOM      3  C   UNL     1       1.606   9.744  19.050  0.00  0.00    +0.000 A 
ATOM      4  C   UNL     1       1.391   9.136  20.287  0.00  0.00    +0.000 A 
ATOM      5  C   UNL     1       1.731   7.788  20.462  0.00  0.00    +0.000 A 
ATOM      6  C   UNL     1       2.270   7.034  19.406  0.00  0.00    +0.000 A 
ATOM      7  C   UNL     1       2.409   7.645  18.150  0.00  0.00    +0.000 A 
ATOM      8  C   UNL     1       2.081   8.996  17.969  0.00  0.00    +0.000 A 
BRANCH   3  10
ATOM      9  C   UNL     1       1.322  12.103  20.521  0.00  0.00    +0.000 C 
ATOM     10  S   UNL     1       1.268  11.483  18.856  0.00  0.00    +0.000 S 
ATOM     11  O   UNL     1      -0.095  11.617  18.376  0.00  0.00    +0.000 OA
ATOM     12  O   UNL     1       2.374  12.072  18.126  0.00  0.00    +0.000 OA
ENDBRANCH   3  10
ENDBRANCH   1   6
BRANCH   2  13
ATOM     13  C   UNL     1       4.601   5.821  18.015  0.00  0.00    +0.000 A 
ATOM     14  C   UNL     1       5.805   6.382  18.466  0.00  0.00    +0.000 A 
ATOM     15  C   UNL     1       6.683   6.990  17.567  0.00  0.00    +0.000 A 
ATOM     16  C   UNL     1       6.367   7.042  16.209  0.00  0.00    +0.000 A 
ATOM     17  C   UNL     1       5.170   6.494  15.754  0.00  0.00    +0.000 A 
ATOM     18  C   UNL     1       4.288   5.885  16.650  0.00  0.00    +0.000 A 
ENDBRANCH   2  13
BRANCH   2  19
ATOM     19  C   UNL     1       3.998   3.594  19.126  0.00  0.00    +0.000 A 
ATOM     20  C   UNL     1       3.551   2.703  18.136  0.00  0.00    +0.000 A 
ATOM     21  C   UNL     1       3.718   1.326  18.298  0.00  0.00    +0.000 A 
ATOM     22  C   UNL     1       4.323   0.824  19.445  0.00  0.00    +0.000 A 
ATOM     23  C   UNL     1       4.780   1.701  20.430  0.00  0.00    +0.000 A 
ATOM     24  C   UNL     1       4.629   3.080  20.267  0.00  0.00    +0.000 A 
ENDBRANCH   2  19
BRANCH   1  25
ATOM     25  C   UNL     1       1.903   4.856  20.687  0.00  0.00    +0.000 C 
BRANCH  25  26
ATOM     26  C   UNL     1       0.832   3.891  20.163  0.00  0.00    +0.000 C 
BRANCH  26  27
ATOM     27  C   UNL     1       1.035   2.495  20.752  0.00  0.00    +0.000 C 
BRANCH  27  28
ATOM     28  O   UNL     1       1.557   2.595  22.071  0.00  0.00    +0.000 OA
ATOM     29  H   UNL     1       1.195   3.404  22.469  0.00  0.00    +0.000 HD
ENDBRANCH  27  28
ENDBRANCH  26  27
ENDBRANCH  25  26
ENDBRANCH   1  25
TORSDOF 8
ENDMDL
MODEL 6
REMARK VINA RESULT:      -5.8      3.632      9.290
REMARK  Name = 
REMARK  9 active torsions:
REMARK  status: ('A' for Active; 'I' for Inactive)
REMARK    1  A    between atoms: C_1  and  S_2
REMARK    2  A    between atoms: S_2  and  C_5
REMARK    3  A    between atoms: C_8  and  C_9
REMARK    4  A    between atoms: C_9  and  C_10
REMARK    5  A    between atoms: C_10  and  C_11
REMARK    6  A    between atoms: C_11  and  C_12
REMARK    7  A    between atoms: C_12  and  O_13
REMARK    8  A    between atoms: C_14  and  C_15
REMARK    9  A    between atoms: C_14  and  C_21
REMARK                            x       y       z     vdW  Elec       q    Type
REMARK                         _______ _______ _______ _____ _____    ______ ____
ROOT
ATOM      1  C   UNL     1       2.687   5.630  19.764  0.00  0.00    +0.000 C 
ATOM      2  C   UNL     1       3.677   5.041  19.034  0.00  0.00    +0.000 C 
ENDROOT
BRANCH   1   6
ATOM      3  C   UNL     1       1.367   9.681  19.188  0.00  0.00    +0.000 A 
ATOM      4  C   UNL     1       1.919   8.967  18.124  0.00  0.00    +0.000 A 
ATOM      5  C   UNL     1       2.376   7.659  18.334  0.00  0.00    +0.000 A 
ATOM      6  C   UNL     1       2.303   7.060  19.603  0.00  0.00    +0.000 A 
ATOM      7  C   UNL     1       1.813   7.822  20.675  0.00  0.00    +0.000 A 
ATOM      8  C   UNL     1       1.343   9.128  20.472  0.00  0.00    +0.000 A 
BRANCH   3  10
ATOM      9  C   UNL     1       0.357  11.909  20.538  0.00  0.00    +0.000 C 
ATOM     10  S   UNL     1       0.693  11.305  18.901  0.00  0.00    +0.000 S 
ATOM     11  O   UNL     1      -0.576  11.142  18.217  0.00  0.00    +0.000 OA
ATOM     12  O   UNL     1       1.744  12.127  18.330  0.00  0.00    +0.000 OA
ENDBRANCH   3  10
ENDBRANCH   1   6
BRANCH   2  13
ATOM     13  C   UNL     1       4.567   5.815  18.131  0.00  0.00    +0.000 A 
ATOM     14  C   UNL     1       5.812   6.255  18.606  0.00  0.00    +0.000 A 
ATOM     15  C   UNL     1       6.720   6.870  17.743  0.00  0.00    +0.000 A 
ATOM     16  C   UNL     1       6.394   7.051  16.398  0.00  0.00    +0.000 A 
ATOM     17  C   UNL     1       5.157   6.624  15.920  0.00  0.00    +0.000 A 
ATOM     18  C   UNL     1       4.244   6.009  16.781  0.00  0.00    +0.000 A 
ENDBRANCH   2  13
BRANCH   2  19
ATOM     19  C   UNL     1       3.842   3.557  19.098  0.00  0.00    +0.000 A 
ATOM     20  C   UNL     1       4.520   2.980  20.184  0.00  0.00    +0.000 A 
ATOM     21  C   UNL     1       4.737   1.600  20.228  0.00  0.00    +0.000 A 
ATOM     22  C   UNL     1       4.287   0.787  19.193  0.00  0.00    +0.000 A 
ATOM     23  C   UNL     1       3.603   1.350  18.114  0.00  0.00    +0.000 A 
ATOM     24  C   UNL     1       3.371   2.727  18.072  0.00  0.00    +0.000 A 
ENDBRANCH   2  19
BRANCH   1  25
ATOM     25  C   UNL     1       1.817   4.827  20.741  0.00  0.00    +0.000 C 
BRANCH  25  26
ATOM     26  C   UNL     1       0.824   3.815  20.157  0.00  0.00    +0.000 C 
BRANCH  26  27
ATOM     27  C   UNL     1       0.964   2.463  20.856  0.00  0.00    +0.000 C 
BRANCH  27  28
ATOM     28  O   UNL     1       1.641   2.624  22.095  0.00  0.00    +0.000 OA
ATOM     29  H   UNL     1       1.735   3.578  22.257  0.00  0.00    +0.000 HD
ENDBRANCH  27  28
ENDBRANCH  26  27
ENDBRANCH  25  26
ENDBRANCH   1  25
TORSDOF 8
ENDMDL
MODEL 7
REMARK VINA RESULT:      -5.8      3.748      9.288
REMARK  Name = 
REMARK  9 active torsions:
REMARK  status: ('A' for Active; 'I' for Inactive)
REMARK    1  A    between atoms: C_1  and  S_2
REMARK    2  A    between atoms: S_2  and  C_5
REMARK    3  A    between atoms: C_8  and  C_9
REMARK    4  A    between atoms: C_9  and  C_10
REMARK    5  A    between atoms: C_10  and  C_11
REMARK    6  A    between atoms: C_11  and  C_12
REMARK    7  A    between atoms: C_12  and  O_13
REMARK    8  A    between atoms: C_14  and  C_15
REMARK    9  A    between atoms: C_14  and  C_21
REMARK                            x       y       z     vdW  Elec       q    Type
REMARK                         _______ _______ _______ _____ _____    ______ ____
ROOT
ATOM      1  C   UNL     1       2.523   5.685  19.459  0.00  0.00    +0.000 C 
ATOM      2  C   UNL     1       3.598   5.108  18.849  0.00  0.00    +0.000 C 
ENDROOT
BRANCH   1   6
ATOM      3  C   UNL     1       1.499   9.852  19.192  0.00  0.00    +0.000 A 
ATOM      4  C   UNL     1       1.917   9.160  18.055  0.00  0.00    +0.000 A 
ATOM      5  C   UNL     1       2.280   7.811  18.162  0.00  0.00    +0.000 A 
ATOM      6  C   UNL     1       2.245   7.147  19.401  0.00  0.00    +0.000 A 
ATOM      7  C   UNL     1       1.893   7.881  20.544  0.00  0.00    +0.000 A 
ATOM      8  C   UNL     1       1.518   9.229  20.444  0.00  0.00    +0.000 A 
BRANCH   3  10
ATOM      9  C   UNL     1       2.248  12.324  18.129  0.00  0.00    +0.000 C 
ATOM     10  S   UNL     1       0.941  11.537  19.040  0.00  0.00    +0.000 S 
ATOM     11  O   UNL     1       0.914  12.116  20.370  0.00  0.00    +0.000 OA
ATOM     12  O   UNL     1      -0.246  11.538  18.205  0.00  0.00    +0.000 OA
ENDBRANCH   3  10
ENDBRANCH   1   6
BRANCH   2  13
ATOM     13  C   UNL     1       4.674   5.910  18.212  0.00  0.00    +0.000 A 
ATOM     14  C   UNL     1       5.904   6.054  18.871  0.00  0.00    +0.000 A 
ATOM     15  C   UNL     1       6.974   6.691  18.239  0.00  0.00    +0.000 A 
ATOM     16  C   UNL     1       6.825   7.189  16.944  0.00  0.00    +0.000 A 
ATOM     17  C   UNL     1       5.604   7.056  16.286  0.00  0.00    +0.000 A 
ATOM     18  C   UNL     1       4.530   6.421  16.915  0.00  0.00    +0.000 A 
ENDBRANCH   2  13
BRANCH   2  19
ATOM     19  C   UNL     1       3.675   3.618  18.768  0.00  0.00    +0.000 A 
ATOM     20  C   UNL     1       4.457   2.911  19.696  0.00  0.00    +0.000 A 
ATOM     21  C   UNL     1       4.590   1.524  19.596  0.00  0.00    +0.000 A 
ATOM     22  C   UNL     1       3.951   0.832  18.573  0.00  0.00    +0.000 A 
ATOM     23  C   UNL     1       3.162   1.523  17.652  0.00  0.00    +0.000 A 
ATOM     24  C   UNL     1       3.015   2.909  17.755  0.00  0.00    +0.000 A 
ENDBRANCH   2  19
BRANCH   1  25
ATOM     25  C   UNL     1       1.450   4.845  20.169  0.00  0.00    +0.000 C 
BRANCH  25  26
ATOM     26  C   UNL     1       1.843   4.122  21.462  0.00  0.00    +0.000 C 
BRANCH  26  27
ATOM     27  C   UNL     1       1.324   2.684  21.450  0.00  0.00    +0.000 C 
BRANCH  27  28
ATOM     28  O   UNL     1       0.567   2.450  20.270  0.00  0.00    +0.000 OA
ATOM     29  H   UNL     1      -0.099   3.155  20.203  0.00  0.00    +0.000 HD
ENDBRANCH  27  28
ENDBRANCH  26  27
ENDBRANCH  25  26
ENDBRANCH   1  25
TORSDOF 8
ENDMDL
MODEL 8
REMARK VINA RESULT:      -5.8      4.244      8.646
REMARK  Name = 
REMARK  9 active torsions:
REMARK  status: ('A' for Active; 'I' for Inactive)
REMARK    1  A    between atoms: C_1  and  S_2
REMARK    2  A    between atoms: S_2  and  C_5
REMARK    3  A    between atoms: C_8  and  C_9
REMARK    4  A    between atoms: C_9  and  C_10
REMARK    5  A    between atoms: C_10  and  C_11
REMARK    6  A    between atoms: C_11  and  C_12
REMARK    7  A    between atoms: C_12  and  O_13
REMARK    8  A    between atoms: C_14  and  C_15
REMARK    9  A    between atoms: C_14  and  C_21
REMARK                            x       y       z     vdW  Elec       q    Type
REMARK                         _______ _______ _______ _____ _____    ______ ____
ROOT
ATOM      1  C   UNL     1       3.610   6.925  17.699  0.00  0.00    +0.000 C 
ATOM      2  C   UNL     1       3.715   5.566  17.747  0.00  0.00    +0.000 C 
ENDROOT
BRANCH   1   6
ATOM      3  C   UNL     1       0.929   9.248  20.128  0.00  0.00    +0.000 A 
ATOM      4  C   UNL     1       1.562   8.124  20.662  0.00  0.00    +0.000 A 
ATOM      5  C   UNL     1       2.407   7.357  19.850  0.00  0.00    +0.000 A 
ATOM      6  C   UNL     1       2.615   7.690  18.501  0.00  0.00    +0.000 A 
ATOM      7  C   UNL     1       1.912   8.780  17.965  0.00  0.00    +0.000 A 
ATOM      8  C   UNL     1       1.072   9.561  18.773  0.00  0.00    +0.000 A 
BRANCH   3  10
ATOM      9  C   UNL     1      -0.553   9.184  22.495  0.00  0.00    +0.000 C 
ATOM     10  S   UNL     1      -0.065  10.281  21.185  0.00  0.00    +0.000 S 
ATOM     11  O   UNL     1      -1.258  10.651  20.447  0.00  0.00    +0.000 OA
ATOM     12  O   UNL     1       0.801  11.297  21.755  0.00  0.00    +0.000 OA
ENDBRANCH   3  10
ENDBRANCH   1   6
BRANCH   2  13
ATOM     13  C   UNL     1       2.737   4.719  18.479  0.00  0.00    +0.000 A 
ATOM     14  C   UNL     1       1.610   4.230  17.802  0.00  0.00    +0.000 A 
ATOM     15  C   UNL     1       0.745   3.330  18.426  0.00  0.00    +0.000 A 
ATOM     16  C   UNL     1       0.999   2.909  19.732  0.00  0.00    +0.000 A 
ATOM     17  C   UNL     1       2.112   3.396  20.415  0.00  0.00    +0.000 A 
ATOM     18  C   UNL     1       2.979   4.298  19.794  0.00  0.00    +0.000 A 
ENDBRANCH   2  13
BRANCH   2  19
ATOM     19  C   UNL     1       4.881   4.902  17.090  0.00  0.00    +0.000 A 
ATOM     20  C   UNL     1       6.080   4.738  17.802  0.00  0.00    +0.000 A 
ATOM     21  C   UNL     1       7.198   4.176  17.182  0.00  0.00    +0.000 A 
ATOM     22  C   UNL     1       7.134   3.777  15.851  0.00  0.00    +0.000 A 
ATOM     23  C   UNL     1       5.944   3.925  15.137  0.00  0.00    +0.000 A 
ATOM     24  C   UNL     1       4.818   4.474  15.756  0.00  0.00    +0.000 A 
ENDBRANCH   2  19
BRANCH   1  25
ATOM     25  C   UNL     1       4.591   7.782  16.886  0.00  0.00    +0.000 C 
BRANCH  25  26
ATOM     26  C   UNL     1       5.803   8.375  17.615  0.00  0.00    +0.000 C 
BRANCH  26  27
ATOM     27  C   UNL     1       7.098   7.753  17.092  0.00  0.00    +0.000 C 
BRANCH  27  28
ATOM     28  O   UNL     1       8.069   7.707  18.129  0.00  0.00    +0.000 OA
ATOM     29  H   UNL     1       8.298   8.624  18.358  0.00  0.00    +0.000 HD
ENDBRANCH  27  28
ENDBRANCH  26  27
ENDBRANCH  25  26
ENDBRANCH   1  25
TORSDOF 8
ENDMDL
MODEL 9
REMARK VINA RESULT:      -5.7      4.210      6.487
REMARK  Name = 
REMARK  9 active torsions:
REMARK  status: ('A' for Active; 'I' for Inactive)
REMARK    1  A    between atoms: C_1  and  S_2
REMARK    2  A    between atoms: S_2  and  C_5
REMARK    3  A    between atoms: C_8  and  C_9
REMARK    4  A    between atoms: C_9  and  C_10
REMARK    5  A    between atoms: C_10  and  C_11
REMARK    6  A    between atoms: C_11  and  C_12
REMARK    7  A    between atoms: C_12  and  O_13
REMARK    8  A    between atoms: C_14  and  C_15
REMARK    9  A    between atoms: C_14  and  C_21
REMARK                            x       y       z     vdW  Elec       q    Type
REMARK                         _______ _______ _______ _____ _____    ______ ____
ROOT
ATOM      1  C   UNL     1      -0.816  13.390  19.708  0.00  0.00    +0.000 C 
ATOM      2  C   UNL     1       0.200  12.862  20.449  0.00  0.00    +0.000 C 
ENDROOT
BRANCH   1   6
ATOM      3  C   UNL     1      -4.864  11.950  19.566  0.00  0.00    +0.000 A 
ATOM      4  C   UNL     1      -4.451  12.773  20.614  0.00  0.00    +0.000 A 
ATOM      5  C   UNL     1      -3.120  13.208  20.667  0.00  0.00    +0.000 A 
ATOM      6  C   UNL     1      -2.190  12.815  19.689  0.00  0.00    +0.000 A 
ATOM      7  C   UNL     1      -2.608  11.928  18.686  0.00  0.00    +0.000 A 
ATOM      8  C   UNL     1      -3.941  11.496  18.619  0.00  0.00    +0.000 A 
BRANCH   3  10
ATOM      9  C   UNL     1      -7.433  13.037  19.402  0.00  0.00    +0.000 C 
ATOM     10  S   UNL     1      -6.578  11.480  19.443  0.00  0.00    +0.000 S 
ATOM     11  O   UNL     1      -6.941  10.806  20.675  0.00  0.00    +0.000 OA
ATOM     12  O   UNL     1      -6.770  10.833  18.158  0.00  0.00    +0.000 OA
ENDBRANCH   3  10
ENDBRANCH   1   6
BRANCH   2  13
ATOM     13  C   UNL     1       0.066  11.572  21.174  0.00  0.00    +0.000 A 
ATOM     14  C   UNL     1      -0.541  11.555  22.439  0.00  0.00    +0.000 A 
ATOM     15  C   UNL     1      -0.796  10.344  23.085  0.00  0.00    +0.000 A 
ATOM     16  C   UNL     1      -0.448   9.139  22.473  0.00  0.00    +0.000 A 
ATOM     17  C   UNL     1       0.162   9.147  21.221  0.00  0.00    +0.000 A 
ATOM     18  C   UNL     1       0.421  10.357  20.572  0.00  0.00    +0.000 A 
ENDBRANCH   2  13
BRANCH   2  19
ATOM     19  C   UNL     1       1.475  13.628  20.587  0.00  0.00    +0.000 A 
ATOM     20  C   UNL     1       2.490  13.466  19.629  0.00  0.00    +0.000 A 
ATOM     21  C   UNL     1       3.711  14.128  19.775  0.00  0.00    +0.000 A 
ATOM     22  C   UNL     1       3.934  14.950  20.876  0.00  0.00    +0.000 A 
ATOM     23  C   UNL     1       2.929  15.126  21.828  0.00  0.00    +0.000 A 
ATOM     24  C   UNL     1       1.701  14.478  21.678  0.00  0.00    +0.000 A 
ENDBRANCH   2  19
BRANCH   1  25
ATOM     25  C   UNL     1      -0.643  14.692  18.913  0.00  0.00    +0.000 C 
BRANCH  25  26
ATOM     26  C   UNL     1      -0.947  16.016  19.624  0.00  0.00    +0.000 C 
BRANCH  26  27
ATOM     27  C   UNL     1       0.146  17.044  19.334  0.00  0.00    +0.000 C 
BRANCH  27  28
ATOM     28  O   UNL     1       1.151  16.467  18.511  0.00  0.00    +0.000 OA
ATOM     29  H   UNL     1       1.140  16.937  17.661  0.00  0.00    +0.000 HD
ENDBRANCH  27  28
ENDBRANCH  26  27
ENDBRANCH  25  26
ENDBRANCH   1  25
TORSDOF 8
ENDMDL
