MODEL 1
REMARK VINA RESULT:      -7.8      0.000      0.000
REMARK  Name = 
REMARK  9 active torsions:
REMARK  status: ('A' for Active; 'I' for Inactive)
REMARK    1  A    between atoms: C_1  and  O_2
REMARK    2  A    between atoms: O_2  and  C_3
REMARK    3  A    between atoms: C_3  and  C_4
REMARK    4  A    between atoms: C_4  and  N_5
REMARK    5  A    between atoms: N_5  and  C_6
REMARK    6  A    between atoms: C_6  and  C_7
REMARK    7  A    between atoms: C_7  and  C_8
REMARK    8  A    between atoms: N_10  and  C_11
REMARK    9  A    between atoms: C_15  and  C_16
REMARK                            x       y       z     vdW  Elec       q    Type
REMARK                         _______ _______ _______ _____ _____    ______ ____
ROOT
ATOM      1  C   UNL     1       4.369   5.662  17.465  0.00  0.00    +0.000 A 
ATOM      2  S   UNL     1       4.797   4.082  16.983  0.00  0.00    +0.000 S 
ATOM      3  C   UNL     1       3.482   3.413  17.819  0.00  0.00    +0.000 A 
ATOM      4  C   UNL     1       2.695   4.368  18.431  0.00  0.00    +0.000 A 
ATOM      5  C   UNL     1       3.218   5.697  18.233  0.00  0.00    +0.000 A 
ATOM      6  C   UNL     1       1.450   3.950  19.165  0.00  0.00    +0.000 C 
ATOM      7  C   UNL     1       1.459   2.429  19.447  0.00  0.00    +0.000 C 
ATOM      8  N   UNL     1       1.861   1.626  18.275  0.00  0.00    +0.000 NA
ATOM      9  C   UNL     1       3.251   1.933  17.888  0.00  0.00    +0.000 C 
ATOM     10  H   UNL     1       1.262   1.886  17.490  0.00  0.00    +0.000 HD
ENDROOT
BRANCH   5  11
ATOM     11  C   UNL     1       2.559   6.957  18.745  0.00  0.00    +0.000 A 
ATOM     12  N   UNL     1       2.212   7.085  20.009  0.00  0.00    +0.000 NA
ATOM     13  C   UNL     1       1.638   8.324  20.230  0.00  0.00    +0.000 A 
ATOM     14  C   UNL     1       1.180   8.818  21.467  0.00  0.00    +0.000 A 
ATOM     15  C   UNL     1       0.635  10.105  21.537  0.00  0.00    +0.000 A 
ATOM     16  C   UNL     1       0.521  10.889  20.393  0.00  0.00    +0.000 A 
ATOM     17  C   UNL     1       0.960  10.417  19.155  0.00  0.00    +0.000 A 
ATOM     18  C   UNL     1       1.526   9.134  19.102  0.00  0.00    +0.000 A 
ATOM     19  S   UNL     1       2.183   8.311  17.754  0.00  0.00    +0.000 S 
ENDBRANCH   5  11
BRANCH   1  22
ATOM     20  C   UNL     1       6.493   6.734  17.773  0.00  0.00    +0.000 C 
ATOM     21  O   UNL     1       6.887   5.966  18.650  0.00  0.00    +0.000 OA
ATOM     22  N   UNL     1       5.262   6.671  17.134  0.00  0.00    +0.000 N 
ATOM     23  H   UNL     1       5.276   6.953  16.161  0.00  0.00    +0.000 HD
BRANCH  20  24
ATOM     24  C   UNL     1       7.394   7.833  17.252  0.00  0.00    +0.000 C 
BRANCH  24  25
ATOM     25  C   UNL     1       8.281   8.362  18.372  0.00  0.00    +0.000 C 
BRANCH  25  26
ATOM     26  N   UNL     1       8.629   9.770  18.152  0.00  0.00    +0.000 NA
ATOM     27  H   UNL     1       9.273   9.839  17.363  0.00  0.00    +0.000 HD
BRANCH  26  28
ATOM     28  C   UNL     1       9.285  10.319  19.351  0.00  0.00    +0.000 C 
BRANCH  28  29
ATOM     29  C   UNL     1       9.437  11.841  19.269  0.00  0.00    +0.000 C 
BRANCH  29  31
ATOM     30  C   UNL     1      11.769  11.631  19.010  0.00  0.00    +0.000 C 
ATOM     31  O   UNL     1      10.570  12.155  18.454  0.00  0.00    +0.000 OA
ENDBRANCH  29  31
ENDBRANCH  28  29
ENDBRANCH  26  28
ENDBRANCH  25  26
ENDBRANCH  24  25
ENDBRANCH  20  24
ENDBRANCH   1  22
TORSDOF 8
ENDMDL
MODEL 2
REMARK VINA RESULT:      -7.8      0.926      1.332
REMARK  Name = 
REMARK  9 active torsions:
REMARK  status: ('A' for Active; 'I' for Inactive)
REMARK    1  A    between atoms: C_1  and  O_2
REMARK    2  A    between atoms: O_2  and  C_3
REMARK    3  A    between atoms: C_3  and  C_4
REMARK    4  A    between atoms: C_4  and  N_5
REMARK    5  A    between atoms: N_5  and  C_6
REMARK    6  A    between atoms: C_6  and  C_7
REMARK    7  A    between atoms: C_7  and  C_8
REMARK    8  A    between atoms: N_10  and  C_11
REMARK    9  A    between atoms: C_15  and  C_16
REMARK                            x       y       z     vdW  Elec       q    Type
REMARK                         _______ _______ _______ _____ _____    ______ ____
ROOT
ATOM      1  C   UNL     1       4.329   5.536  17.451  0.00  0.00    +0.000 A 
ATOM      2  S   UNL     1       4.725   3.934  17.017  0.00  0.00    +0.000 S 
ATOM      3  C   UNL     1       3.403   3.316  17.878  0.00  0.00    +0.000 A 
ATOM      4  C   UNL     1       2.636   4.304  18.464  0.00  0.00    +0.000 A 
ATOM      5  C   UNL     1       3.183   5.616  18.223  0.00  0.00    +0.000 A 
ATOM      6  C   UNL     1       1.387   3.932  19.216  0.00  0.00    +0.000 C 
ATOM      7  C   UNL     1       1.370   2.420  19.545  0.00  0.00    +0.000 C 
ATOM      8  N   UNL     1       1.751   1.574  18.396  0.00  0.00    +0.000 NA
ATOM      9  C   UNL     1       3.145   1.843  17.994  0.00  0.00    +0.000 C 
ATOM     10  H   UNL     1       1.153   1.821  17.606  0.00  0.00    +0.000 HD
ENDROOT
BRANCH   5  11
ATOM     11  C   UNL     1       2.550   6.903  18.698  0.00  0.00    +0.000 A 
ATOM     12  N   UNL     1       2.451   7.952  17.909  0.00  0.00    +0.000 NA
ATOM     13  C   UNL     1       1.831   8.998  18.570  0.00  0.00    +0.000 A 
ATOM     14  C   UNL     1       1.527  10.261  18.025  0.00  0.00    +0.000 A 
ATOM     15  C   UNL     1       0.878  11.216  18.815  0.00  0.00    +0.000 A 
ATOM     16  C   UNL     1       0.554  10.937  20.139  0.00  0.00    +0.000 A 
ATOM     17  C   UNL     1       0.852   9.696  20.703  0.00  0.00    +0.000 A 
ATOM     18  C   UNL     1       1.481   8.738  19.893  0.00  0.00    +0.000 A 
ATOM     19  S   UNL     1       1.929   7.135  20.286  0.00  0.00    +0.000 S 
ENDBRANCH   5  11
BRANCH   1  22
ATOM     20  C   UNL     1       6.447   6.619  17.763  0.00  0.00    +0.000 C 
ATOM     21  O   UNL     1       6.805   5.910  18.703  0.00  0.00    +0.000 OA
ATOM     22  N   UNL     1       5.240   6.517  17.086  0.00  0.00    +0.000 N 
ATOM     23  H   UNL     1       5.289   6.733  16.098  0.00  0.00    +0.000 HD
BRANCH  20  24
ATOM     24  C   UNL     1       7.372   7.678  17.201  0.00  0.00    +0.000 C 
BRANCH  24  25
ATOM     25  C   UNL     1       8.274   8.225  18.302  0.00  0.00    +0.000 C 
BRANCH  25  26
ATOM     26  N   UNL     1       8.481   9.669  18.146  0.00  0.00    +0.000 NA
ATOM     27  H   UNL     1       8.968   9.847  17.266  0.00  0.00    +0.000 HD
BRANCH  26  28
ATOM     28  C   UNL     1       9.301  10.181  19.256  0.00  0.00    +0.000 C 
BRANCH  28  29
ATOM     29  C   UNL     1       9.806  11.602  18.982  0.00  0.00    +0.000 C 
BRANCH  29  31
ATOM     30  C   UNL     1      10.800  12.887  17.276  0.00  0.00    +0.000 C 
ATOM     31  O   UNL     1      10.651  11.585  17.829  0.00  0.00    +0.000 OA
ENDBRANCH  29  31
ENDBRANCH  28  29
ENDBRANCH  26  28
ENDBRANCH  25  26
ENDBRANCH  24  25
ENDBRANCH  20  24
ENDBRANCH   1  22
TORSDOF 8
ENDMDL
MODEL 3
REMARK VINA RESULT:      -7.7      1.042      1.104
REMARK  Name = 
REMARK  9 active torsions:
REMARK  status: ('A' for Active; 'I' for Inactive)
REMARK    1  A    between atoms: C_1  and  O_2
REMARK    2  A    between atoms: O_2  and  C_3
REMARK    3  A    between atoms: C_3  and  C_4
REMARK    4  A    between atoms: C_4  and  N_5
REMARK    5  A    between atoms: N_5  and  C_6
REMARK    6  A    between atoms: C_6  and  C_7
REMARK    7  A    between atoms: C_7  and  C_8
REMARK    8  A    between atoms: N_10  and  C_11
REMARK    9  A    between atoms: C_15  and  C_16
REMARK                            x       y       z     vdW  Elec       q    Type
REMARK                         _______ _______ _______ _____ _____    ______ ____
ROOT
ATOM      1  C   UNL     1       4.796   5.429  18.386  0.00  0.00    +0.000 A 
ATOM      2  S   UNL     1       5.260   3.811  18.107  0.00  0.00    +0.000 S 
ATOM      3  C   UNL     1       3.689   3.252  18.413  0.00  0.00    +0.000 A 
ATOM      4  C   UNL     1       2.801   4.273  18.689  0.00  0.00    +0.000 A 
ATOM      5  C   UNL     1       3.451   5.561  18.683  0.00  0.00    +0.000 A 
ATOM      6  C   UNL     1       1.349   3.956  18.923  0.00  0.00    +0.000 C 
ATOM      7  C   UNL     1       1.150   2.448  19.202  0.00  0.00    +0.000 C 
ATOM      8  N   UNL     1       1.893   1.583  18.264  0.00  0.00    +0.000 NA
ATOM      9  C   UNL     1       3.347   1.792  18.407  0.00  0.00    +0.000 C 
ATOM     10  H   UNL     1       1.639   1.853  17.312  0.00  0.00    +0.000 HD
ENDROOT
BRANCH   5  11
ATOM     11  C   UNL     1       2.740   6.874  18.909  0.00  0.00    +0.000 A 
ATOM     12  N   UNL     1       2.163   7.153  20.059  0.00  0.00    +0.000 NA
ATOM     13  C   UNL     1       1.589   8.412  20.020  0.00  0.00    +0.000 A 
ATOM     14  C   UNL     1       0.918   9.052  21.080  0.00  0.00    +0.000 A 
ATOM     15  C   UNL     1       0.404  10.340  20.894  0.00  0.00    +0.000 A 
ATOM     16  C   UNL     1       0.529  10.981  19.666  0.00  0.00    +0.000 A 
ATOM     17  C   UNL     1       1.182  10.364  18.599  0.00  0.00    +0.000 A 
ATOM     18  C   UNL     1       1.715   9.082  18.805  0.00  0.00    +0.000 A 
ATOM     19  S   UNL     1       2.594   8.102  17.713  0.00  0.00    +0.000 S 
ENDBRANCH   5  11
BRANCH   1  22
ATOM     20  C   UNL     1       6.246   6.927  17.198  0.00  0.00    +0.000 C 
ATOM     21  O   UNL     1       5.810   6.652  16.080  0.00  0.00    +0.000 OA
ATOM     22  N   UNL     1       5.817   6.370  18.395  0.00  0.00    +0.000 N 
ATOM     23  H   UNL     1       5.833   7.003  19.185  0.00  0.00    +0.000 HD
BRANCH  20  24
ATOM     24  C   UNL     1       7.304   7.997  17.369  0.00  0.00    +0.000 C 
BRANCH  24  25
ATOM     25  C   UNL     1       8.240   7.631  18.515  0.00  0.00    +0.000 C 
BRANCH  25  26
ATOM     26  N   UNL     1       8.956   8.812  19.010  0.00  0.00    +0.000 NA
ATOM     27  H   UNL     1       8.678   8.996  19.975  0.00  0.00    +0.000 HD
BRANCH  26  28
ATOM     28  C   UNL     1       8.620   9.985  18.187  0.00  0.00    +0.000 C 
BRANCH  28  29
ATOM     29  C   UNL     1       9.629  11.123  18.377  0.00  0.00    +0.000 C 
BRANCH  29  31
ATOM     30  C   UNL     1       9.317  13.262  19.314  0.00  0.00    +0.000 C 
ATOM     31  O   UNL     1       9.286  11.860  19.554  0.00  0.00    +0.000 OA
ENDBRANCH  29  31
ENDBRANCH  28  29
ENDBRANCH  26  28
ENDBRANCH  25  26
ENDBRANCH  24  25
ENDBRANCH  20  24
ENDBRANCH   1  22
TORSDOF 8
ENDMDL
MODEL 4
REMARK VINA RESULT:      -7.4      2.567      3.928
REMARK  Name = 
REMARK  9 active torsions:
REMARK  status: ('A' for Active; 'I' for Inactive)
REMARK    1  A    between atoms: C_1  and  O_2
REMARK    2  A    between atoms: O_2  and  C_3
REMARK    3  A    between atoms: C_3  and  C_4
REMARK    4  A    between atoms: C_4  and  N_5
REMARK    5  A    between atoms: N_5  and  C_6
REMARK    6  A    between atoms: C_6  and  C_7
REMARK    7  A    between atoms: C_7  and  C_8
REMARK    8  A    between atoms: N_10  and  C_11
REMARK    9  A    between atoms: C_15  and  C_16
REMARK                            x       y       z     vdW  Elec       q    Type
REMARK                         _______ _______ _______ _____ _____    ______ ____
ROOT
ATOM      1  C   UNL     1       4.263   5.189  18.198  0.00  0.00    +0.000 A 
ATOM      2  S   UNL     1       4.574   3.543  17.873  0.00  0.00    +0.000 S 
ATOM      3  C   UNL     1       3.092   3.074  18.549  0.00  0.00    +0.000 A 
ATOM      4  C   UNL     1       2.340   4.146  18.988  0.00  0.00    +0.000 A 
ATOM      5  C   UNL     1       3.031   5.397  18.791  0.00  0.00    +0.000 A 
ATOM      6  C   UNL     1       0.969   3.911  19.560  0.00  0.00    +0.000 C 
ATOM      7  C   UNL     1       0.770   2.422  19.926  0.00  0.00    +0.000 C 
ATOM      8  N   UNL     1       1.235   1.500  18.870  0.00  0.00    +0.000 NA
ATOM      9  C   UNL     1       2.690   1.634  18.669  0.00  0.00    +0.000 C 
ATOM     10  H   UNL     1       0.780   1.763  17.994  0.00  0.00    +0.000 HD
ENDROOT
BRANCH   5  11
ATOM     11  C   UNL     1       2.453   6.751  19.132  0.00  0.00    +0.000 A 
ATOM     12  N   UNL     1       2.032   7.031  20.348  0.00  0.00    +0.000 NA
ATOM     13  C   UNL     1       1.556   8.329  20.408  0.00  0.00    +0.000 A 
ATOM     14  C   UNL     1       1.061   8.980  21.555  0.00  0.00    +0.000 A 
ATOM     15  C   UNL     1       0.629  10.307  21.463  0.00  0.00    +0.000 A 
ATOM     16  C   UNL     1       0.664  10.981  20.246  0.00  0.00    +0.000 A 
ATOM     17  C   UNL     1       1.143  10.354  19.095  0.00  0.00    +0.000 A 
ATOM     18  C   UNL     1       1.595   9.030  19.205  0.00  0.00    +0.000 A 
ATOM     19  S   UNL     1       2.267   8.027  17.994  0.00  0.00    +0.000 S 
ENDBRANCH   5  11
BRANCH   1  22
ATOM     20  C   UNL     1       6.462   6.010  18.701  0.00  0.00    +0.000 C 
ATOM     21  O   UNL     1       6.672   5.227  19.626  0.00  0.00    +0.000 OA
ATOM     22  N   UNL     1       5.301   6.075  17.942  0.00  0.00    +0.000 N 
ATOM     23  H   UNL     1       5.443   6.324  16.971  0.00  0.00    +0.000 HD
BRANCH  20  24
ATOM     24  C   UNL     1       7.535   6.979  18.253  0.00  0.00    +0.000 C 
BRANCH  24  25
ATOM     25  C   UNL     1       7.563   7.067  16.732  0.00  0.00    +0.000 C 
BRANCH  25  26
ATOM     26  N   UNL     1       7.581   5.732  16.125  0.00  0.00    +0.000 NA
ATOM     27  H   UNL     1       8.496   5.565  15.703  0.00  0.00    +0.000 HD
BRANCH  26  28
ATOM     28  C   UNL     1       6.551   5.642  15.078  0.00  0.00    +0.000 C 
BRANCH  28  29
ATOM     29  C   UNL     1       7.015   4.785  13.895  0.00  0.00    +0.000 C 
BRANCH  29  31
ATOM     30  C   UNL     1       6.026   3.311  12.346  0.00  0.00    +0.000 C 
ATOM     31  O   UNL     1       6.096   3.704  13.711  0.00  0.00    +0.000 OA
ENDBRANCH  29  31
ENDBRANCH  28  29
ENDBRANCH  26  28
ENDBRANCH  25  26
ENDBRANCH  24  25
ENDBRANCH  20  24
ENDBRANCH   1  22
TORSDOF 8
ENDMDL
MODEL 5
REMARK VINA RESULT:      -7.4      4.219      7.792
REMARK  Name = 
REMARK  9 active torsions:
REMARK  status: ('A' for Active; 'I' for Inactive)
REMARK    1  A    between atoms: C_1  and  O_2
REMARK    2  A    between atoms: O_2  and  C_3
REMARK    3  A    between atoms: C_3  and  C_4
REMARK    4  A    between atoms: C_4  and  N_5
REMARK    5  A    between atoms: N_5  and  C_6
REMARK    6  A    between atoms: C_6  and  C_7
REMARK    7  A    between atoms: C_7  and  C_8
REMARK    8  A    between atoms: N_10  and  C_11
REMARK    9  A    between atoms: C_15  and  C_16
REMARK                            x       y       z     vdW  Elec       q    Type
REMARK                         _______ _______ _______ _____ _____    ______ ____
ROOT
ATOM      1  C   UNL     1       2.046   6.757  20.318  0.00  0.00    +0.000 A 
ATOM      2  S   UNL     1       0.885   7.779  21.039  0.00  0.00    +0.000 S 
ATOM      3  C   UNL     1       1.091   8.952  19.833  0.00  0.00    +0.000 A 
ATOM      4  C   UNL     1       2.000   8.572  18.865  0.00  0.00    +0.000 A 
ATOM      5  C   UNL     1       2.573   7.280  19.151  0.00  0.00    +0.000 A 
ATOM      6  C   UNL     1       2.256   9.472  17.687  0.00  0.00    +0.000 C 
ATOM      7  C   UNL     1       1.723  10.899  17.956  0.00  0.00    +0.000 C 
ATOM      8  N   UNL     1       0.367  10.910  18.539  0.00  0.00    +0.000 NA
ATOM      9  C   UNL     1       0.368  10.266  19.867  0.00  0.00    +0.000 C 
ATOM     10  H   UNL     1      -0.245  10.359  17.934  0.00  0.00    +0.000 HD
ENDROOT
BRANCH   5  11
ATOM     11  C   UNL     1       3.568   6.574  18.259  0.00  0.00    +0.000 A 
ATOM     12  N   UNL     1       3.355   5.346  17.831  0.00  0.00    +0.000 NA
ATOM     13  C   UNL     1       4.401   4.926  17.028  0.00  0.00    +0.000 A 
ATOM     14  C   UNL     1       4.496   3.685  16.370  0.00  0.00    +0.000 A 
ATOM     15  C   UNL     1       5.613   3.408  15.574  0.00  0.00    +0.000 A 
ATOM     16  C   UNL     1       6.639   4.340  15.447  0.00  0.00    +0.000 A 
ATOM     17  C   UNL     1       6.571   5.573  16.096  0.00  0.00    +0.000 A 
ATOM     18  C   UNL     1       5.434   5.847  16.872  0.00  0.00    +0.000 A 
ATOM     19  S   UNL     1       5.052   7.270  17.741  0.00  0.00    +0.000 S 
ENDBRANCH   5  11
BRANCH   1  22
ATOM     20  C   UNL     1       1.603   4.477  20.924  0.00  0.00    +0.000 C 
ATOM     21  O   UNL     1       0.579   4.372  20.249  0.00  0.00    +0.000 OA
ATOM     22  N   UNL     1       2.390   5.616  21.030  0.00  0.00    +0.000 N 
ATOM     23  H   UNL     1       3.382   5.436  21.132  0.00  0.00    +0.000 HD
BRANCH  20  24
ATOM     24  C   UNL     1       2.146   3.289  21.689  0.00  0.00    +0.000 C 
BRANCH  24  25
ATOM     25  C   UNL     1       2.600   2.204  20.720  0.00  0.00    +0.000 C 
BRANCH  25  26
ATOM     26  N   UNL     1       3.450   2.761  19.662  0.00  0.00    +0.000 NA
ATOM     27  H   UNL     1       3.160   2.380  18.760  0.00  0.00    +0.000 HD
BRANCH  26  28
ATOM     28  C   UNL     1       4.855   2.397  19.902  0.00  0.00    +0.000 C 
BRANCH  28  29
ATOM     29  C   UNL     1       4.980   1.041  20.606  0.00  0.00    +0.000 C 
BRANCH  29  31
ATOM     30  C   UNL     1       6.315  -0.058  22.206  0.00  0.00    +0.000 C 
ATOM     31  O   UNL     1       5.793   1.192  21.772  0.00  0.00    +0.000 OA
ENDBRANCH  29  31
ENDBRANCH  28  29
ENDBRANCH  26  28
ENDBRANCH  25  26
ENDBRANCH  24  25
ENDBRANCH  20  24
ENDBRANCH   1  22
TORSDOF 8
ENDMDL
MODEL 6
REMARK VINA RESULT:      -7.4      2.712      4.197
REMARK  Name = 
REMARK  9 active torsions:
REMARK  status: ('A' for Active; 'I' for Inactive)
REMARK    1  A    between atoms: C_1  and  O_2
REMARK    2  A    between atoms: O_2  and  C_3
REMARK    3  A    between atoms: C_3  and  C_4
REMARK    4  A    between atoms: C_4  and  N_5
REMARK    5  A    between atoms: N_5  and  C_6
REMARK    6  A    between atoms: C_6  and  C_7
REMARK    7  A    between atoms: C_7  and  C_8
REMARK    8  A    between atoms: N_10  and  C_11
REMARK    9  A    between atoms: C_15  and  C_16
REMARK                            x       y       z     vdW  Elec       q    Type
REMARK                         _______ _______ _______ _____ _____    ______ ____
ROOT
ATOM      1  C   UNL     1       4.184   5.214  18.139  0.00  0.00    +0.000 A 
ATOM      2  S   UNL     1       4.505   3.574  17.794  0.00  0.00    +0.000 S 
ATOM      3  C   UNL     1       3.065   3.080  18.540  0.00  0.00    +0.000 A 
ATOM      4  C   UNL     1       2.318   4.139  19.018  0.00  0.00    +0.000 A 
ATOM      5  C   UNL     1       2.978   5.402  18.792  0.00  0.00    +0.000 A 
ATOM      6  C   UNL     1       0.980   3.881  19.655  0.00  0.00    +0.000 C 
ATOM      7  C   UNL     1       0.823   2.388  20.026  0.00  0.00    +0.000 C 
ATOM      8  N   UNL     1       1.251   1.475  18.947  0.00  0.00    +0.000 NA
ATOM      9  C   UNL     1       2.693   1.634  18.675  0.00  0.00    +0.000 C 
ATOM     10  H   UNL     1       0.751   1.733  18.095  0.00  0.00    +0.000 HD
ENDROOT
BRANCH   5  11
ATOM     11  C   UNL     1       2.396   6.745  19.164  0.00  0.00    +0.000 A 
ATOM     12  N   UNL     1       2.354   7.738  18.300  0.00  0.00    +0.000 NA
ATOM     13  C   UNL     1       1.771   8.854  18.874  0.00  0.00    +0.000 A 
ATOM     14  C   UNL     1       1.530  10.086  18.235  0.00  0.00    +0.000 A 
ATOM     15  C   UNL     1       0.914  11.123  18.944  0.00  0.00    +0.000 A 
ATOM     16  C   UNL     1       0.559  10.954  20.279  0.00  0.00    +0.000 A 
ATOM     17  C   UNL     1       0.795   9.745  20.935  0.00  0.00    +0.000 A 
ATOM     18  C   UNL     1       1.393   8.706  20.206  0.00  0.00    +0.000 A 
ATOM     19  S   UNL     1       1.765   7.117  20.720  0.00  0.00    +0.000 S 
ENDBRANCH   5  11
BRANCH   1  22
ATOM     20  C   UNL     1       6.438   5.983  18.435  0.00  0.00    +0.000 C 
ATOM     21  O   UNL     1       6.750   5.120  19.255  0.00  0.00    +0.000 OA
ATOM     22  N   UNL     1       5.193   6.117  17.835  0.00  0.00    +0.000 N 
ATOM     23  H   UNL     1       5.218   6.452  16.880  0.00  0.00    +0.000 HD
BRANCH  20  24
ATOM     24  C   UNL     1       7.461   6.986  17.945  0.00  0.00    +0.000 C 
BRANCH  24  25
ATOM     25  C   UNL     1       7.580   6.916  16.427  0.00  0.00    +0.000 C 
BRANCH  25  26
ATOM     26  N   UNL     1       7.484   5.532  15.952  0.00  0.00    +0.000 NA
ATOM     27  H   UNL     1       8.376   5.254  15.540  0.00  0.00    +0.000 HD
BRANCH  26  28
ATOM     28  C   UNL     1       6.433   5.424  14.928  0.00  0.00    +0.000 C 
BRANCH  28  29
ATOM     29  C   UNL     1       6.306   3.994  14.390  0.00  0.00    +0.000 C 
BRANCH  29  31
ATOM     30  C   UNL     1       5.789   3.216  12.228  0.00  0.00    +0.000 C 
ATOM     31  O   UNL     1       6.699   3.974  13.016  0.00  0.00    +0.000 OA
ENDBRANCH  29  31
ENDBRANCH  28  29
ENDBRANCH  26  28
ENDBRANCH  25  26
ENDBRANCH  24  25
ENDBRANCH  20  24
ENDBRANCH   1  22
TORSDOF 8
ENDMDL
MODEL 7
REMARK VINA RESULT:      -7.1      4.197      7.955
REMARK  Name = 
REMARK  9 active torsions:
REMARK  status: ('A' for Active; 'I' for Inactive)
REMARK    1  A    between atoms: C_1  and  O_2
REMARK    2  A    between atoms: O_2  and  C_3
REMARK    3  A    between atoms: C_3  and  C_4
REMARK    4  A    between atoms: C_4  and  N_5
REMARK    5  A    between atoms: N_5  and  C_6
REMARK    6  A    between atoms: C_6  and  C_7
REMARK    7  A    between atoms: C_7  and  C_8
REMARK    8  A    between atoms: N_10  and  C_11
REMARK    9  A    between atoms: C_15  and  C_16
REMARK                            x       y       z     vdW  Elec       q    Type
REMARK                         _______ _______ _______ _____ _____    ______ ____
ROOT
ATOM      1  C   UNL     1       2.286   6.595  20.173  0.00  0.00    +0.000 A 
ATOM      2  S   UNL     1       1.072   7.533  20.921  0.00  0.00    +0.000 S 
ATOM      3  C   UNL     1       1.225   8.756  19.757  0.00  0.00    +0.000 A 
ATOM      4  C   UNL     1       2.156   8.455  18.782  0.00  0.00    +0.000 A 
ATOM      5  C   UNL     1       2.792   7.184  19.027  0.00  0.00    +0.000 A 
ATOM      6  C   UNL     1       2.372   9.407  17.637  0.00  0.00    +0.000 C 
ATOM      7  C   UNL     1       1.767  10.795  17.951  0.00  0.00    +0.000 C 
ATOM      8  N   UNL     1       0.409  10.718  18.526  0.00  0.00    +0.000 NA
ATOM      9  C   UNL     1       0.436  10.029  19.831  0.00  0.00    +0.000 C 
ATOM     10  H   UNL     1      -0.172  10.159  17.899  0.00  0.00    +0.000 HD
ENDROOT
BRANCH   5  11
ATOM     11  C   UNL     1       3.825   6.560  18.118  0.00  0.00    +0.000 A 
ATOM     12  N   UNL     1       3.590   5.427  17.489  0.00  0.00    +0.000 NA
ATOM     13  C   UNL     1       4.680   5.068  16.716  0.00  0.00    +0.000 A 
ATOM     14  C   UNL     1       4.771   3.936  15.883  0.00  0.00    +0.000 A 
ATOM     15  C   UNL     1       5.939   3.714  15.145  0.00  0.00    +0.000 A 
ATOM     16  C   UNL     1       7.017   4.588  15.246  0.00  0.00    +0.000 A 
ATOM     17  C   UNL     1       6.953   5.711  16.071  0.00  0.00    +0.000 A 
ATOM     18  C   UNL     1       5.768   5.935  16.788  0.00  0.00    +0.000 A 
ATOM     19  S   UNL     1       5.382   7.232  17.834  0.00  0.00    +0.000 S 
ENDBRANCH   5  11
BRANCH   1  22
ATOM     20  C   UNL     1       1.807   4.378  20.956  0.00  0.00    +0.000 C 
ATOM     21  O   UNL     1       0.660   4.340  20.511  0.00  0.00    +0.000 OA
ATOM     22  N   UNL     1       2.684   5.449  20.848  0.00  0.00    +0.000 N 
ATOM     23  H   UNL     1       3.658   5.191  20.751  0.00  0.00    +0.000 HD
BRANCH  20  24
ATOM     24  C   UNL     1       2.406   3.170  21.643  0.00  0.00    +0.000 C 
BRANCH  24  25
ATOM     25  C   UNL     1       3.674   2.728  20.921  0.00  0.00    +0.000 C 
BRANCH  25  26
ATOM     26  N   UNL     1       3.605   3.047  19.490  0.00  0.00    +0.000 NA
ATOM     27  H   UNL     1       2.797   3.647  19.317  0.00  0.00    +0.000 HD
BRANCH  26  28
ATOM     28  C   UNL     1       3.455   1.810  18.707  0.00  0.00    +0.000 C 
BRANCH  28  29
ATOM     29  C   UNL     1       2.567   2.020  17.475  0.00  0.00    +0.000 C 
BRANCH  29  31
ATOM     30  C   UNL     1       0.505   1.948  18.612  0.00  0.00    +0.000 C 
ATOM     31  O   UNL     1       1.402   2.755  17.858  0.00  0.00    +0.000 OA
ENDBRANCH  29  31
ENDBRANCH  28  29
ENDBRANCH  26  28
ENDBRANCH  25  26
ENDBRANCH  24  25
ENDBRANCH  20  24
ENDBRANCH   1  22
TORSDOF 8
ENDMDL
MODEL 8
REMARK VINA RESULT:      -7.1      1.171      1.569
REMARK  Name = 
REMARK  9 active torsions:
REMARK  status: ('A' for Active; 'I' for Inactive)
REMARK    1  A    between atoms: C_1  and  O_2
REMARK    2  A    between atoms: O_2  and  C_3
REMARK    3  A    between atoms: C_3  and  C_4
REMARK    4  A    between atoms: C_4  and  N_5
REMARK    5  A    between atoms: N_5  and  C_6
REMARK    6  A    between atoms: C_6  and  C_7
REMARK    7  A    between atoms: C_7  and  C_8
REMARK    8  A    between atoms: N_10  and  C_11
REMARK    9  A    between atoms: C_15  and  C_16
REMARK                            x       y       z     vdW  Elec       q    Type
REMARK                         _______ _______ _______ _____ _____    ______ ____
ROOT
ATOM      1  C   UNL     1       4.608   5.321  17.975  0.00  0.00    +0.000 A 
ATOM      2  S   UNL     1       4.959   3.702  17.564  0.00  0.00    +0.000 S 
ATOM      3  C   UNL     1       3.411   3.192  18.030  0.00  0.00    +0.000 A 
ATOM      4  C   UNL     1       2.610   4.233  18.459  0.00  0.00    +0.000 A 
ATOM      5  C   UNL     1       3.315   5.491  18.437  0.00  0.00    +0.000 A 
ATOM      6  C   UNL     1       1.183   3.963  18.852  0.00  0.00    +0.000 C 
ATOM      7  C   UNL     1       0.948   2.451  19.080  0.00  0.00    +0.000 C 
ATOM      8  N   UNL     1       1.534   1.608  18.018  0.00  0.00    +0.000 NA
ATOM      9  C   UNL     1       3.002   1.750  17.995  0.00  0.00    +0.000 C 
ATOM     10  H   UNL     1       1.181   1.939  17.119  0.00  0.00    +0.000 HD
ENDROOT
BRANCH   5  11
ATOM     11  C   UNL     1       2.698   6.818  18.810  0.00  0.00    +0.000 A 
ATOM     12  N   UNL     1       2.716   7.841  17.981  0.00  0.00    +0.000 NA
ATOM     13  C   UNL     1       2.085   8.935  18.547  0.00  0.00    +0.000 A 
ATOM     14  C   UNL     1       1.886  10.188  17.936  0.00  0.00    +0.000 A 
ATOM     15  C   UNL     1       1.211  11.197  18.631  0.00  0.00    +0.000 A 
ATOM     16  C   UNL     1       0.756  10.979  19.928  0.00  0.00    +0.000 A 
ATOM     17  C   UNL     1       0.948   9.748  20.557  0.00  0.00    +0.000 A 
ATOM     18  C   UNL     1       1.606   8.738  19.840  0.00  0.00    +0.000 A 
ATOM     19  S   UNL     1       1.946   7.133  20.325  0.00  0.00    +0.000 S 
ENDBRANCH   5  11
BRANCH   1  22
ATOM     20  C   UNL     1       6.792   6.012  18.690  0.00  0.00    +0.000 C 
ATOM     21  O   UNL     1       6.953   5.087  19.486  0.00  0.00    +0.000 OA
ATOM     22  N   UNL     1       5.665   6.217  17.905  0.00  0.00    +0.000 N 
ATOM     23  H   UNL     1       5.851   6.616  16.993  0.00  0.00    +0.000 HD
BRANCH  20  24
ATOM     24  C   UNL     1       7.894   7.021  18.447  0.00  0.00    +0.000 C 
BRANCH  24  25
ATOM     25  C   UNL     1       7.396   8.133  17.532  0.00  0.00    +0.000 C 
BRANCH  25  26
ATOM     26  N   UNL     1       8.439   9.140  17.307  0.00  0.00    +0.000 NA
ATOM     27  H   UNL     1       9.288   8.678  16.977  0.00  0.00    +0.000 HD
BRANCH  26  28
ATOM     28  C   UNL     1       8.740   9.842  18.566  0.00  0.00    +0.000 C 
BRANCH  28  29
ATOM     29  C   UNL     1       9.223  11.275  18.317  0.00  0.00    +0.000 C 
BRANCH  29  31
ATOM     30  C   UNL     1       9.341  11.028  20.657  0.00  0.00    +0.000 C 
ATOM     31  O   UNL     1       9.732  11.816  19.539  0.00  0.00    +0.000 OA
ENDBRANCH  29  31
ENDBRANCH  28  29
ENDBRANCH  26  28
ENDBRANCH  25  26
ENDBRANCH  24  25
ENDBRANCH  20  24
ENDBRANCH   1  22
TORSDOF 8
ENDMDL
MODEL 9
REMARK VINA RESULT:      -7.0      4.127      7.721
REMARK  Name = 
REMARK  9 active torsions:
REMARK  status: ('A' for Active; 'I' for Inactive)
REMARK    1  A    between atoms: C_1  and  O_2
REMARK    2  A    between atoms: O_2  and  C_3
REMARK    3  A    between atoms: C_3  and  C_4
REMARK    4  A    between atoms: C_4  and  N_5
REMARK    5  A    between atoms: N_5  and  C_6
REMARK    6  A    between atoms: C_6  and  C_7
REMARK    7  A    between atoms: C_7  and  C_8
REMARK    8  A    between atoms: N_10  and  C_11
REMARK    9  A    between atoms: C_15  and  C_16
REMARK                            x       y       z     vdW  Elec       q    Type
REMARK                         _______ _______ _______ _____ _____    ______ ____
ROOT
ATOM      1  C   UNL     1       2.019   6.682  20.486  0.00  0.00    +0.000 A 
ATOM      2  S   UNL     1       0.736   7.568  21.177  0.00  0.00    +0.000 S 
ATOM      3  C   UNL     1       0.924   8.822  20.051  0.00  0.00    +0.000 A 
ATOM      4  C   UNL     1       1.921   8.569  19.129  0.00  0.00    +0.000 A 
ATOM      5  C   UNL     1       2.577   7.310  19.386  0.00  0.00    +0.000 A 
ATOM      6  C   UNL     1       2.178   9.552  18.021  0.00  0.00    +0.000 C 
ATOM      7  C   UNL     1       1.516  10.916  18.326  0.00  0.00    +0.000 C 
ATOM      8  N   UNL     1       0.128  10.788  18.815  0.00  0.00    +0.000 NA
ATOM      9  C   UNL     1       0.096  10.071  20.104  0.00  0.00    +0.000 C 
ATOM     10  H   UNL     1      -0.397  10.228  18.141  0.00  0.00    +0.000 HD
ENDROOT
BRANCH   5  11
ATOM     11  C   UNL     1       3.680   6.736  18.529  0.00  0.00    +0.000 A 
ATOM     12  N   UNL     1       4.670   6.044  19.056  0.00  0.00    +0.000 NA
ATOM     13  C   UNL     1       5.544   5.622  18.070  0.00  0.00    +0.000 A 
ATOM     14  C   UNL     1       6.693   4.831  18.263  0.00  0.00    +0.000 A 
ATOM     15  C   UNL     1       7.474   4.467  17.161  0.00  0.00    +0.000 A 
ATOM     16  C   UNL     1       7.137   4.899  15.881  0.00  0.00    +0.000 A 
ATOM     17  C   UNL     1       6.007   5.690  15.667  0.00  0.00    +0.000 A 
ATOM     18  C   UNL     1       5.220   6.028  16.778  0.00  0.00    +0.000 A 
ATOM     19  S   UNL     1       3.772   6.938  16.824  0.00  0.00    +0.000 S 
ENDBRANCH   5  11
BRANCH   1  22
ATOM     20  C   UNL     1       1.652   4.375  21.034  0.00  0.00    +0.000 C 
ATOM     21  O   UNL     1       0.620   4.259  20.373  0.00  0.00    +0.000 OA
ATOM     22  N   UNL     1       2.408   5.532  21.159  0.00  0.00    +0.000 N 
ATOM     23  H   UNL     1       3.406   5.379  21.239  0.00  0.00    +0.000 HD
BRANCH  20  24
ATOM     24  C   UNL     1       2.241   3.182  21.756  0.00  0.00    +0.000 C 
BRANCH  24  25
ATOM     25  C   UNL     1       2.976   2.282  20.769  0.00  0.00    +0.000 C 
BRANCH  25  26
ATOM     26  N   UNL     1       3.923   3.051  19.955  0.00  0.00    +0.000 NA
ATOM     27  H   UNL     1       3.648   4.035  19.956  0.00  0.00    +0.000 HD
BRANCH  26  28
ATOM     28  C   UNL     1       3.912   2.557  18.569  0.00  0.00    +0.000 C 
BRANCH  28  29
ATOM     29  C   UNL     1       2.553   1.958  18.188  0.00  0.00    +0.000 C 
BRANCH  29  31
ATOM     30  C   UNL     1       1.697   4.002  17.388  0.00  0.00    +0.000 C 
ATOM     31  O   UNL     1       2.033   2.660  17.056  0.00  0.00    +0.000 OA
ENDBRANCH  29  31
ENDBRANCH  28  29
ENDBRANCH  26  28
ENDBRANCH  25  26
ENDBRANCH  24  25
ENDBRANCH  20  24
ENDBRANCH   1  22
TORSDOF 8
ENDMDL
