MODEL 1
REMARK VINA RESULT:      -8.4      0.000      0.000
REMARK  Name = 
REMARK  8 active torsions:
REMARK  status: ('A' for Active; 'I' for Inactive)
REMARK    1  A    between atoms: C_1  and  C_2
REMARK    2  A    between atoms: C_2  and  C_3
REMARK    3  A    between atoms: C_2  and  N_4
REMARK    4  A    between atoms: C_5  and  O_7
REMARK    5  A    between atoms: O_7  and  C_8
REMARK    6  A    between atoms: C_8  and  C_9
REMARK    7  A    between atoms: C_12  and  S_13
REMARK    8  A    between atoms: S_13  and  C_14
REMARK                            x       y       z     vdW  Elec       q    Type
REMARK                         _______ _______ _______ _____ _____    ______ ____
ROOT
ATOM      1  C   UNL     1       0.667   9.666  20.992  0.00  0.00    +0.000 A 
ATOM      2  C   UNL     1       0.725  10.171  19.688  0.00  0.00    +0.000 A 
ATOM      3  C   UNL     1       1.303   9.418  18.652  0.00  0.00    +0.000 A 
ATOM      4  C   UNL     1       1.877   8.162  18.897  0.00  0.00    +0.000 A 
ATOM      5  C   UNL     1       1.830   7.670  20.205  0.00  0.00    +0.000 A 
ATOM      6  C   UNL     1       1.230   8.409  21.240  0.00  0.00    +0.000 A 
ENDROOT
BRANCH   1   7
ATOM      7  C   UNL     1      -0.023  10.443  22.092  0.00  0.00    +0.000 C 
BRANCH   7   8
ATOM      8  O   UNL     1      -0.928  11.413  21.573  0.00  0.00    +0.000 OA
BRANCH   8  10
ATOM      9  N   UNL     1      -2.812  12.274  22.397  0.00  0.00    +0.000 N 
ATOM     10  C   UNL     1      -1.459  12.260  22.503  0.00  0.00    +0.000 C 
ATOM     11  O   UNL     1      -0.815  12.935  23.295  0.00  0.00    +0.000 OA
ATOM     12  H   UNL     1      -3.241  11.568  21.816  0.00  0.00    +0.000 HD
BRANCH   9  14
ATOM     13  C   UNL     1      -4.795  13.733  22.478  0.00  0.00    +0.000 C 
ATOM     14  C   UNL     1      -3.643  13.114  23.264  0.00  0.00    +0.000 C 
ATOM     15  C   UNL     1      -4.166  12.328  24.465  0.00  0.00    +0.000 C 
ENDBRANCH   9  14
ENDBRANCH   8  10
ENDBRANCH   7   8
ENDBRANCH   1   7
BRANCH   4  16
ATOM     16  S   UNL     1       2.453   7.099  17.557  0.00  0.00    +0.000 S 
BRANCH  16  17
ATOM     17  C   UNL     1       3.613   5.954  18.359  0.00  0.00    +0.000 A 
ATOM     18  C   UNL     1       5.031   6.140  18.274  0.00  0.00    +0.000 A 
ATOM     19  C   UNL     1       5.731   7.108  17.512  0.00  0.00    +0.000 A 
ATOM     20  C   UNL     1       7.128   7.177  17.537  0.00  0.00    +0.000 A 
ATOM     21  C   UNL     1       7.849   6.367  18.405  0.00  0.00    +0.000 A 
ATOM     22  C   UNL     1       7.180   5.387  19.125  0.00  0.00    +0.000 A 
ATOM     23  C   UNL     1       5.822   5.196  18.954  0.00  0.00    +0.000 A 
ATOM     24  N   UNL     1       5.343   4.007  19.288  0.00  0.00    +0.000 NA
ATOM     25  C   UNL     1       4.081   3.761  18.939  0.00  0.00    +0.000 A 
ATOM     26  C   UNL     1       3.784   2.643  18.188  0.00  0.00    +0.000 A 
ATOM     27  C   UNL     1       2.480   2.411  17.750  0.00  0.00    +0.000 A 
ATOM     28  C   UNL     1       1.452   3.168  18.294  0.00  0.00    +0.000 A 
ATOM     29  C   UNL     1       1.776   4.342  18.957  0.00  0.00    +0.000 A 
ATOM     30  C   UNL     1       3.120   4.742  18.894  0.00  0.00    +0.000 A 
ENDBRANCH  16  17
ENDBRANCH   4  16
TORSDOF 6
ENDMDL
MODEL 2
REMARK VINA RESULT:      -8.1      1.106      1.339
REMARK  Name = 
REMARK  8 active torsions:
REMARK  status: ('A' for Active; 'I' for Inactive)
REMARK    1  A    between atoms: C_1  and  C_2
REMARK    2  A    between atoms: C_2  and  C_3
REMARK    3  A    between atoms: C_2  and  N_4
REMARK    4  A    between atoms: C_5  and  O_7
REMARK    5  A    between atoms: O_7  and  C_8
REMARK    6  A    between atoms: C_8  and  C_9
REMARK    7  A    between atoms: C_12  and  S_13
REMARK    8  A    between atoms: S_13  and  C_14
REMARK                            x       y       z     vdW  Elec       q    Type
REMARK                         _______ _______ _______ _____ _____    ______ ____
ROOT
ATOM      1  C   UNL     1       1.077  10.283  19.953  0.00  0.00    +0.000 A 
ATOM      2  C   UNL     1       1.429  10.480  18.613  0.00  0.00    +0.000 A 
ATOM      3  C   UNL     1       1.893   9.411  17.828  0.00  0.00    +0.000 A 
ATOM      4  C   UNL     1       2.060   8.128  18.369  0.00  0.00    +0.000 A 
ATOM      5  C   UNL     1       1.722   7.942  19.713  0.00  0.00    +0.000 A 
ATOM      6  C   UNL     1       1.234   9.003  20.496  0.00  0.00    +0.000 A 
ENDROOT
BRANCH   1   7
ATOM      7  C   UNL     1       0.506  11.416  20.777  0.00  0.00    +0.000 C 
BRANCH   7   8
ATOM      8  O   UNL     1       0.366  11.060  22.149  0.00  0.00    +0.000 OA
BRANCH   8  10
ATOM      9  N   UNL     1      -0.864  12.854  22.640  0.00  0.00    +0.000 N 
ATOM     10  C   UNL     1      -0.781  11.502  22.744  0.00  0.00    +0.000 C 
ATOM     11  O   UNL     1      -1.599  10.796  23.317  0.00  0.00    +0.000 OA
ATOM     12  H   UNL     1      -0.215  13.314  22.018  0.00  0.00    +0.000 HD
BRANCH   9  14
ATOM     13  C   UNL     1      -1.501  14.625  24.228  0.00  0.00    +0.000 C 
ATOM     14  C   UNL     1      -1.990  13.601  23.209  0.00  0.00    +0.000 C 
ATOM     15  C   UNL     1      -2.819  14.275  22.118  0.00  0.00    +0.000 C 
ENDBRANCH   9  14
ENDBRANCH   8  10
ENDBRANCH   7   8
ENDBRANCH   1   7
BRANCH   4  16
ATOM     16  S   UNL     1       2.471   6.704  17.340  0.00  0.00    +0.000 S 
BRANCH  16  17
ATOM     17  C   UNL     1       3.671   5.766  18.329  0.00  0.00    +0.000 A 
ATOM     18  C   UNL     1       5.077   6.037  18.259  0.00  0.00    +0.000 A 
ATOM     19  C   UNL     1       5.740   6.934  17.388  0.00  0.00    +0.000 A 
ATOM     20  C   UNL     1       7.129   7.103  17.443  0.00  0.00    +0.000 A 
ATOM     21  C   UNL     1       7.866   6.475  18.438  0.00  0.00    +0.000 A 
ATOM     22  C   UNL     1       7.235   5.561  19.271  0.00  0.00    +0.000 A 
ATOM     23  C   UNL     1       5.900   5.254  19.089  0.00  0.00    +0.000 A 
ATOM     24  N   UNL     1       5.486   4.093  19.575  0.00  0.00    +0.000 NA
ATOM     25  C   UNL     1       4.258   3.713  19.229  0.00  0.00    +0.000 A 
ATOM     26  C   UNL     1       4.062   2.483  18.637  0.00  0.00    +0.000 A 
ATOM     27  C   UNL     1       2.794   2.103  18.198  0.00  0.00    +0.000 A 
ATOM     28  C   UNL     1       1.699   2.855  18.600  0.00  0.00    +0.000 A 
ATOM     29  C   UNL     1       1.921   4.130  19.098  0.00  0.00    +0.000 A 
ATOM     30  C   UNL     1       3.237   4.610  19.017  0.00  0.00    +0.000 A 
ENDBRANCH  16  17
ENDBRANCH   4  16
TORSDOF 6
ENDMDL
MODEL 3
REMARK VINA RESULT:      -8.1      2.334      2.808
REMARK  Name = 
REMARK  8 active torsions:
REMARK  status: ('A' for Active; 'I' for Inactive)
REMARK    1  A    between atoms: C_1  and  C_2
REMARK    2  A    between atoms: C_2  and  C_3
REMARK    3  A    between atoms: C_2  and  N_4
REMARK    4  A    between atoms: C_5  and  O_7
REMARK    5  A    between atoms: O_7  and  C_8
REMARK    6  A    between atoms: C_8  and  C_9
REMARK    7  A    between atoms: C_12  and  S_13
REMARK    8  A    between atoms: S_13  and  C_14
REMARK                            x       y       z     vdW  Elec       q    Type
REMARK                         _______ _______ _______ _____ _____    ______ ____
ROOT
ATOM      1  C   UNL     1       1.305  10.472  19.595  0.00  0.00    +0.000 A 
ATOM      2  C   UNL     1       1.804  10.373  18.291  0.00  0.00    +0.000 A 
ATOM      3  C   UNL     1       2.114   9.121  17.734  0.00  0.00    +0.000 A 
ATOM      4  C   UNL     1       1.978   7.939  18.477  0.00  0.00    +0.000 A 
ATOM      5  C   UNL     1       1.495   8.046  19.785  0.00  0.00    +0.000 A 
ATOM      6  C   UNL     1       1.159   9.294  20.338  0.00  0.00    +0.000 A 
ENDROOT
BRANCH   1   7
ATOM      7  C   UNL     1       0.899  11.812  20.169  0.00  0.00    +0.000 C 
BRANCH   7   8
ATOM      8  O   UNL     1      -0.512  12.001  20.135  0.00  0.00    +0.000 OA
BRANCH   8  10
ATOM      9  N   UNL     1      -1.961  11.283  18.600  0.00  0.00    +0.000 N 
ATOM     10  C   UNL     1      -1.032  12.229  18.893  0.00  0.00    +0.000 C 
ATOM     11  O   UNL     1      -0.692  13.129  18.137  0.00  0.00    +0.000 OA
ATOM     12  H   UNL     1      -2.269  10.685  19.353  0.00  0.00    +0.000 HD
BRANCH   9  14
ATOM     13  C   UNL     1      -2.354  10.006  16.532  0.00  0.00    +0.000 C 
ATOM     14  C   UNL     1      -2.672  11.274  17.318  0.00  0.00    +0.000 C 
ATOM     15  C   UNL     1      -4.178  11.427  17.515  0.00  0.00    +0.000 C 
ENDBRANCH   9  14
ENDBRANCH   8  10
ENDBRANCH   7   8
ENDBRANCH   1   7
BRANCH   4  16
ATOM     16  S   UNL     1       2.188   6.312  17.726  0.00  0.00    +0.000 S 
BRANCH  16  17
ATOM     17  C   UNL     1       3.561   5.564  18.652  0.00  0.00    +0.000 A 
ATOM     18  C   UNL     1       4.925   5.908  18.381  0.00  0.00    +0.000 A 
ATOM     19  C   UNL     1       5.415   6.740  17.344  0.00  0.00    +0.000 A 
ATOM     20  C   UNL     1       6.784   6.997  17.209  0.00  0.00    +0.000 A 
ATOM     21  C   UNL     1       7.677   6.529  18.165  0.00  0.00    +0.000 A 
ATOM     22  C   UNL     1       7.215   5.679  19.161  0.00  0.00    +0.000 A 
ATOM     23  C   UNL     1       5.894   5.274  19.179  0.00  0.00    +0.000 A 
ATOM     24  N   UNL     1       5.626   4.153  19.831  0.00  0.00    +0.000 NA
ATOM     25  C   UNL     1       4.396   3.664  19.682  0.00  0.00    +0.000 A 
ATOM     26  C   UNL     1       4.222   2.366  19.250  0.00  0.00    +0.000 A 
ATOM     27  C   UNL     1       2.943   1.863  19.014  0.00  0.00    +0.000 A 
ATOM     28  C   UNL     1       1.851   2.590  19.468  0.00  0.00    +0.000 A 
ATOM     29  C   UNL     1       2.036   3.923  19.799  0.00  0.00    +0.000 A 
ATOM     30  C   UNL     1       3.295   4.469  19.506  0.00  0.00    +0.000 A 
ENDBRANCH  16  17
ENDBRANCH   4  16
TORSDOF 6
ENDMDL
MODEL 4
REMARK VINA RESULT:      -8.0      2.763      4.542
REMARK  Name = 
REMARK  8 active torsions:
REMARK  status: ('A' for Active; 'I' for Inactive)
REMARK    1  A    between atoms: C_1  and  C_2
REMARK    2  A    between atoms: C_2  and  C_3
REMARK    3  A    between atoms: C_2  and  N_4
REMARK    4  A    between atoms: C_5  and  O_7
REMARK    5  A    between atoms: O_7  and  C_8
REMARK    6  A    between atoms: C_8  and  C_9
REMARK    7  A    between atoms: C_12  and  S_13
REMARK    8  A    between atoms: S_13  and  C_14
REMARK                            x       y       z     vdW  Elec       q    Type
REMARK                         _______ _______ _______ _____ _____    ______ ____
ROOT
ATOM      1  C   UNL     1      -0.208  10.079  19.105  0.00  0.00    +0.000 A 
ATOM      2  C   UNL     1       0.194   9.481  20.305  0.00  0.00    +0.000 A 
ATOM      3  C   UNL     1       1.299   8.615  20.341  0.00  0.00    +0.000 A 
ATOM      4  C   UNL     1       2.007   8.287  19.174  0.00  0.00    +0.000 A 
ATOM      5  C   UNL     1       1.590   8.875  17.976  0.00  0.00    +0.000 A 
ATOM      6  C   UNL     1       0.500   9.762  17.940  0.00  0.00    +0.000 A 
ENDROOT
BRANCH   1   7
ATOM      7  C   UNL     1      -1.351  11.070  19.080  0.00  0.00    +0.000 C 
BRANCH   7   8
ATOM      8  O   UNL     1      -1.689  11.461  17.752  0.00  0.00    +0.000 OA
BRANCH   8  10
ATOM      9  N   UNL     1      -3.863  11.750  18.150  0.00  0.00    +0.000 N 
ATOM     10  C   UNL     1      -2.953  11.127  17.359  0.00  0.00    +0.000 C 
ATOM     11  O   UNL     1      -3.231  10.355  16.451  0.00  0.00    +0.000 OA
ATOM     12  H   UNL     1      -3.526  12.477  18.764  0.00  0.00    +0.000 HD
BRANCH   9  14
ATOM     13  C   UNL     1      -6.024  11.510  19.307  0.00  0.00    +0.000 C 
ATOM     14  C   UNL     1      -5.305  11.558  17.963  0.00  0.00    +0.000 C 
ATOM     15  C   UNL     1      -5.899  12.641  17.067  0.00  0.00    +0.000 C 
ENDBRANCH   9  14
ENDBRANCH   8  10
ENDBRANCH   7   8
ENDBRANCH   1   7
BRANCH   4  16
ATOM     16  S   UNL     1       3.537   7.332  19.223  0.00  0.00    +0.000 S 
BRANCH  16  17
ATOM     17  C   UNL     1       3.140   5.801  18.330  0.00  0.00    +0.000 A 
ATOM     18  C   UNL     1       2.328   4.777  18.919  0.00  0.00    +0.000 A 
ATOM     19  C   UNL     1       1.827   4.728  20.243  0.00  0.00    +0.000 A 
ATOM     20  C   UNL     1       1.031   3.662  20.676  0.00  0.00    +0.000 A 
ATOM     21  C   UNL     1       0.624   2.687  19.775  0.00  0.00    +0.000 A 
ATOM     22  C   UNL     1       1.142   2.700  18.487  0.00  0.00    +0.000 A 
ATOM     23  C   UNL     1       2.077   3.648  18.118  0.00  0.00    +0.000 A 
ATOM     24  N   UNL     1       2.851   3.349  17.086  0.00  0.00    +0.000 NA
ATOM     25  C   UNL     1       3.874   4.170  16.858  0.00  0.00    +0.000 A 
ATOM     26  C   UNL     1       5.155   3.665  16.782  0.00  0.00    +0.000 A 
ATOM     27  C   UNL     1       6.245   4.519  16.622  0.00  0.00    +0.000 A 
ATOM     28  C   UNL     1       6.006   5.842  16.276  0.00  0.00    +0.000 A 
ATOM     29  C   UNL     1       4.730   6.352  16.460  0.00  0.00    +0.000 A 
ATOM     30  C   UNL     1       3.815   5.518  17.121  0.00  0.00    +0.000 A 
ENDBRANCH  16  17
ENDBRANCH   4  16
TORSDOF 6
ENDMDL
MODEL 5
REMARK VINA RESULT:      -8.0      0.562      1.049
REMARK  Name = 
REMARK  8 active torsions:
REMARK  status: ('A' for Active; 'I' for Inactive)
REMARK    1  A    between atoms: C_1  and  C_2
REMARK    2  A    between atoms: C_2  and  C_3
REMARK    3  A    between atoms: C_2  and  N_4
REMARK    4  A    between atoms: C_5  and  O_7
REMARK    5  A    between atoms: O_7  and  C_8
REMARK    6  A    between atoms: C_8  and  C_9
REMARK    7  A    between atoms: C_12  and  S_13
REMARK    8  A    between atoms: S_13  and  C_14
REMARK                            x       y       z     vdW  Elec       q    Type
REMARK                         _______ _______ _______ _____ _____    ______ ____
ROOT
ATOM      1  C   UNL     1       0.653   9.725  20.665  0.00  0.00    +0.000 A 
ATOM      2  C   UNL     1       1.351   8.551  20.969  0.00  0.00    +0.000 A 
ATOM      3  C   UNL     1       1.979   7.807  19.956  0.00  0.00    +0.000 A 
ATOM      4  C   UNL     1       1.891   8.188  18.609  0.00  0.00    +0.000 A 
ATOM      5  C   UNL     1       1.178   9.354  18.311  0.00  0.00    +0.000 A 
ATOM      6  C   UNL     1       0.569  10.116  19.323  0.00  0.00    +0.000 A 
ENDROOT
BRANCH   1   7
ATOM      7  C   UNL     1       0.042  10.568  21.763  0.00  0.00    +0.000 C 
BRANCH   7   8
ATOM      8  O   UNL     1      -0.266  11.885  21.316  0.00  0.00    +0.000 OA
BRANCH   8  10
ATOM      9  N   UNL     1      -2.065  12.518  22.471  0.00  0.00    +0.000 N 
ATOM     10  C   UNL     1      -0.737  12.726  22.284  0.00  0.00    +0.000 C 
ATOM     11  O   UNL     1      -0.073  13.567  22.874  0.00  0.00    +0.000 OA
ATOM     12  H   UNL     1      -2.474  11.700  22.042  0.00  0.00    +0.000 HD
BRANCH   9  14
ATOM     13  C   UNL     1      -3.529  14.476  22.766  0.00  0.00    +0.000 C 
ATOM     14  C   UNL     1      -2.837  13.298  23.443  0.00  0.00    +0.000 C 
ATOM     15  C   UNL     1      -3.848  12.425  24.182  0.00  0.00    +0.000 C 
ENDBRANCH   9  14
ENDBRANCH   8  10
ENDBRANCH   7   8
ENDBRANCH   1   7
BRANCH   4  16
ATOM     16  S   UNL     1       2.840   7.360  17.319  0.00  0.00    +0.000 S 
BRANCH  16  17
ATOM     17  C   UNL     1       3.873   6.165  18.217  0.00  0.00    +0.000 A 
ATOM     18  C   UNL     1       5.300   6.288  18.259  0.00  0.00    +0.000 A 
ATOM     19  C   UNL     1       6.106   7.222  17.564  0.00  0.00    +0.000 A 
ATOM     20  C   UNL     1       7.498   7.229  17.714  0.00  0.00    +0.000 A 
ATOM     21  C   UNL     1       8.101   6.388  18.640  0.00  0.00    +0.000 A 
ATOM     22  C   UNL     1       7.328   5.440  19.295  0.00  0.00    +0.000 A 
ATOM     23  C   UNL     1       5.984   5.309  19.003  0.00  0.00    +0.000 A 
ATOM     24  N   UNL     1       5.424   4.144  19.290  0.00  0.00    +0.000 NA
ATOM     25  C   UNL     1       4.189   3.953  18.831  0.00  0.00    +0.000 A 
ATOM     26  C   UNL     1       3.910   2.849  18.053  0.00  0.00    +0.000 A 
ATOM     27  C   UNL     1       2.642   2.675  17.500  0.00  0.00    +0.000 A 
ATOM     28  C   UNL     1       1.604   3.478  17.953  0.00  0.00    +0.000 A 
ATOM     29  C   UNL     1       1.920   4.637  18.645  0.00  0.00    +0.000 A 
ATOM     30  C   UNL     1       3.280   4.977  18.703  0.00  0.00    +0.000 A 
ENDBRANCH  16  17
ENDBRANCH   4  16
TORSDOF 6
ENDMDL
MODEL 6
REMARK VINA RESULT:      -8.0      1.368      1.700
REMARK  Name = 
REMARK  8 active torsions:
REMARK  status: ('A' for Active; 'I' for Inactive)
REMARK    1  A    between atoms: C_1  and  C_2
REMARK    2  A    between atoms: C_2  and  C_3
REMARK    3  A    between atoms: C_2  and  N_4
REMARK    4  A    between atoms: C_5  and  O_7
REMARK    5  A    between atoms: O_7  and  C_8
REMARK    6  A    between atoms: C_8  and  C_9
REMARK    7  A    between atoms: C_12  and  S_13
REMARK    8  A    between atoms: S_13  and  C_14
REMARK                            x       y       z     vdW  Elec       q    Type
REMARK                         _______ _______ _______ _____ _____    ______ ____
ROOT
ATOM      1  C   UNL     1       0.436   9.326  21.090  0.00  0.00    +0.000 A 
ATOM      2  C   UNL     1       0.401   9.915  19.821  0.00  0.00    +0.000 A 
ATOM      3  C   UNL     1       1.114   9.352  18.749  0.00  0.00    +0.000 A 
ATOM      4  C   UNL     1       1.914   8.213  18.924  0.00  0.00    +0.000 A 
ATOM      5  C   UNL     1       1.957   7.639  20.198  0.00  0.00    +0.000 A 
ATOM      6  C   UNL     1       1.225   8.184  21.268  0.00  0.00    +0.000 A 
ENDROOT
BRANCH   1   7
ATOM      7  C   UNL     1      -0.392   9.888  22.226  0.00  0.00    +0.000 C 
BRANCH   7   8
ATOM      8  O   UNL     1       0.104  11.145  22.676  0.00  0.00    +0.000 OA
BRANCH   8  10
ATOM      9  N   UNL     1      -0.317  13.059  21.612  0.00  0.00    +0.000 N 
ATOM     10  C   UNL     1      -0.770  12.187  22.549  0.00  0.00    +0.000 C 
ATOM     11  O   UNL     1      -1.794  12.336  23.203  0.00  0.00    +0.000 OA
ATOM     12  H   UNL     1       0.454  12.761  21.032  0.00  0.00    +0.000 HD
BRANCH   9  14
ATOM     13  C   UNL     1      -0.684  15.412  22.241  0.00  0.00    +0.000 C 
ATOM     14  C   UNL     1      -1.052  14.284  21.283  0.00  0.00    +0.000 C 
ATOM     15  C   UNL     1      -0.814  14.703  19.834  0.00  0.00    +0.000 C 
ENDBRANCH   9  14
ENDBRANCH   8  10
ENDBRANCH   7   8
ENDBRANCH   1   7
BRANCH   4  16
ATOM     16  S   UNL     1       2.683   7.365  17.530  0.00  0.00    +0.000 S 
BRANCH  16  17
ATOM     17  C   UNL     1       3.785   6.142  18.299  0.00  0.00    +0.000 A 
ATOM     18  C   UNL     1       5.210   6.283  18.255  0.00  0.00    +0.000 A 
ATOM     19  C   UNL     1       5.959   7.261  17.557  0.00  0.00    +0.000 A 
ATOM     20  C   UNL     1       7.358   7.281  17.617  0.00  0.00    +0.000 A 
ATOM     21  C   UNL     1       8.030   6.405  18.460  0.00  0.00    +0.000 A 
ATOM     22  C   UNL     1       7.311   5.415  19.116  0.00  0.00    +0.000 A 
ATOM     23  C   UNL     1       5.952   5.280  18.905  0.00  0.00    +0.000 A 
ATOM     24  N   UNL     1       5.425   4.094  19.170  0.00  0.00    +0.000 NA
ATOM     25  C   UNL     1       4.164   3.909  18.782  0.00  0.00    +0.000 A 
ATOM     26  C   UNL     1       3.847   2.839  17.970  0.00  0.00    +0.000 A 
ATOM     27  C   UNL     1       2.548   2.675  17.492  0.00  0.00    +0.000 A 
ATOM     28  C   UNL     1       1.533   3.440  18.050  0.00  0.00    +0.000 A 
ATOM     29  C   UNL     1       1.881   4.568  18.777  0.00  0.00    +0.000 A 
ATOM     30  C   UNL     1       3.238   4.924  18.764  0.00  0.00    +0.000 A 
ENDBRANCH  16  17
ENDBRANCH   4  16
TORSDOF 6
ENDMDL
MODEL 7
REMARK VINA RESULT:      -8.0      1.344      1.614
REMARK  Name = 
REMARK  8 active torsions:
REMARK  status: ('A' for Active; 'I' for Inactive)
REMARK    1  A    between atoms: C_1  and  C_2
REMARK    2  A    between atoms: C_2  and  C_3
REMARK    3  A    between atoms: C_2  and  N_4
REMARK    4  A    between atoms: C_5  and  O_7
REMARK    5  A    between atoms: O_7  and  C_8
REMARK    6  A    between atoms: C_8  and  C_9
REMARK    7  A    between atoms: C_12  and  S_13
REMARK    8  A    between atoms: S_13  and  C_14
REMARK                            x       y       z     vdW  Elec       q    Type
REMARK                         _______ _______ _______ _____ _____    ______ ____
ROOT
ATOM      1  C   UNL     1       0.811   9.882  20.625  0.00  0.00    +0.000 A 
ATOM      2  C   UNL     1       0.918  10.298  19.293  0.00  0.00    +0.000 A 
ATOM      3  C   UNL     1       1.482   9.455  18.321  0.00  0.00    +0.000 A 
ATOM      4  C   UNL     1       1.994   8.193  18.658  0.00  0.00    +0.000 A 
ATOM      5  C   UNL     1       1.899   7.791  19.994  0.00  0.00    +0.000 A 
ATOM      6  C   UNL     1       1.313   8.621  20.966  0.00  0.00    +0.000 A 
ENDROOT
BRANCH   1   7
ATOM      7  C   UNL     1       0.136  10.759  21.657  0.00  0.00    +0.000 C 
BRANCH   7   8
ATOM      8  O   UNL     1      -1.149  11.196  21.226  0.00  0.00    +0.000 OA
BRANCH   8  10
ATOM      9  N   UNL     1      -0.865  13.053  22.427  0.00  0.00    +0.000 N 
ATOM     10  C   UNL     1      -1.338  12.548  21.259  0.00  0.00    +0.000 C 
ATOM     11  O   UNL     1      -1.882  13.209  20.384  0.00  0.00    +0.000 OA
ATOM     12  H   UNL     1      -0.302  12.444  23.004  0.00  0.00    +0.000 HD
BRANCH   9  14
ATOM     13  C   UNL     1      -1.317  14.696  24.205  0.00  0.00    +0.000 C 
ATOM     14  C   UNL     1      -0.953  14.483  22.740  0.00  0.00    +0.000 C 
ATOM     15  C   UNL     1       0.344  15.210  22.391  0.00  0.00    +0.000 C 
ENDBRANCH   9  14
ENDBRANCH   8  10
ENDBRANCH   7   8
ENDBRANCH   1   7
BRANCH   4  16
ATOM     16  S   UNL     1       2.547   7.022  17.403  0.00  0.00    +0.000 S 
BRANCH  16  17
ATOM     17  C   UNL     1       3.683   5.916  18.290  0.00  0.00    +0.000 A 
ATOM     18  C   UNL     1       5.103   6.103  18.243  0.00  0.00    +0.000 A 
ATOM     19  C   UNL     1       5.824   7.039  17.462  0.00  0.00    +0.000 A 
ATOM     20  C   UNL     1       7.220   7.114  17.529  0.00  0.00    +0.000 A 
ATOM     21  C   UNL     1       7.914   6.344  18.454  0.00  0.00    +0.000 A 
ATOM     22  C   UNL     1       7.224   5.394  19.194  0.00  0.00    +0.000 A 
ATOM     23  C   UNL     1       5.873   5.191  18.988  0.00  0.00    +0.000 A 
ATOM     24  N   UNL     1       5.386   4.016  19.358  0.00  0.00    +0.000 NA
ATOM     25  C   UNL     1       4.136   3.751  18.980  0.00  0.00    +0.000 A 
ATOM     26  C   UNL     1       3.865   2.601  18.269  0.00  0.00    +0.000 A 
ATOM     27  C   UNL     1       2.577   2.346  17.800  0.00  0.00    +0.000 A 
ATOM     28  C   UNL     1       1.531   3.123  18.278  0.00  0.00    +0.000 A 
ATOM     29  C   UNL     1       1.831   4.325  18.899  0.00  0.00    +0.000 A 
ATOM     30  C   UNL     1       3.175   4.727  18.862  0.00  0.00    +0.000 A 
ENDBRANCH  16  17
ENDBRANCH   4  16
TORSDOF 6
ENDMDL
MODEL 8
REMARK VINA RESULT:      -7.9      2.017      2.664
REMARK  Name = 
REMARK  8 active torsions:
REMARK  status: ('A' for Active; 'I' for Inactive)
REMARK    1  A    between atoms: C_1  and  C_2
REMARK    2  A    between atoms: C_2  and  C_3
REMARK    3  A    between atoms: C_2  and  N_4
REMARK    4  A    between atoms: C_5  and  O_7
REMARK    5  A    between atoms: O_7  and  C_8
REMARK    6  A    between atoms: C_8  and  C_9
REMARK    7  A    between atoms: C_12  and  S_13
REMARK    8  A    between atoms: S_13  and  C_14
REMARK                            x       y       z     vdW  Elec       q    Type
REMARK                         _______ _______ _______ _____ _____    ______ ____
ROOT
ATOM      1  C   UNL     1       0.849   9.939  20.415  0.00  0.00    +0.000 A 
ATOM      2  C   UNL     1       0.967  10.232  19.052  0.00  0.00    +0.000 A 
ATOM      3  C   UNL     1       1.480   9.281  18.155  0.00  0.00    +0.000 A 
ATOM      4  C   UNL     1       1.930   8.028  18.599  0.00  0.00    +0.000 A 
ATOM      5  C   UNL     1       1.825   7.748  19.965  0.00  0.00    +0.000 A 
ATOM      6  C   UNL     1       1.288   8.687  20.863  0.00  0.00    +0.000 A 
ENDROOT
BRANCH   1   7
ATOM      7  C   UNL     1       0.226  10.934  21.370  0.00  0.00    +0.000 C 
BRANCH   7   8
ATOM      8  O   UNL     1      -0.372  12.029  20.682  0.00  0.00    +0.000 OA
BRANCH   8  10
ATOM      9  N   UNL     1       0.369  13.856  19.643  0.00  0.00    +0.000 N 
ATOM     10  C   UNL     1       0.265  13.226  20.841  0.00  0.00    +0.000 C 
ATOM     11  O   UNL     1       0.709  13.657  21.897  0.00  0.00    +0.000 OA
ATOM     12  H   UNL     1      -0.164  13.482  18.872  0.00  0.00    +0.000 HD
BRANCH   9  14
ATOM     13  C   UNL     1       2.228  15.070  18.576  0.00  0.00    +0.000 C 
ATOM     14  C   UNL     1       1.029  15.160  19.514  0.00  0.00    +0.000 C 
ATOM     15  C   UNL     1       0.051  16.234  19.045  0.00  0.00    +0.000 C 
ENDBRANCH   9  14
ENDBRANCH   8  10
ENDBRANCH   7   8
ENDBRANCH   1   7
BRANCH   4  16
ATOM     16  S   UNL     1       2.414   6.726  17.448  0.00  0.00    +0.000 S 
BRANCH  16  17
ATOM     17  C   UNL     1       3.637   5.746  18.367  0.00  0.00    +0.000 A 
ATOM     18  C   UNL     1       5.041   6.018  18.274  0.00  0.00    +0.000 A 
ATOM     19  C   UNL     1       5.684   6.951  17.425  0.00  0.00    +0.000 A 
ATOM     20  C   UNL     1       7.074   7.117  17.454  0.00  0.00    +0.000 A 
ATOM     21  C   UNL     1       7.835   6.447  18.403  0.00  0.00    +0.000 A 
ATOM     22  C   UNL     1       7.223   5.499  19.211  0.00  0.00    +0.000 A 
ATOM     23  C   UNL     1       5.883   5.201  19.050  0.00  0.00    +0.000 A 
ATOM     24  N   UNL     1       5.479   4.021  19.496  0.00  0.00    +0.000 NA
ATOM     25  C   UNL     1       4.242   3.657  19.165  0.00  0.00    +0.000 A 
ATOM     26  C   UNL     1       4.030   2.453  18.526  0.00  0.00    +0.000 A 
ATOM     27  C   UNL     1       2.751   2.092  18.103  0.00  0.00    +0.000 A 
ATOM     28  C   UNL     1       1.667   2.827  18.563  0.00  0.00    +0.000 A 
ATOM     29  C   UNL     1       1.903   4.080  19.109  0.00  0.00    +0.000 A 
ATOM     30  C   UNL     1       3.218   4.562  19.016  0.00  0.00    +0.000 A 
ENDBRANCH  16  17
ENDBRANCH   4  16
TORSDOF 6
ENDMDL
MODEL 9
REMARK VINA RESULT:      -7.8      4.729      8.081
REMARK  Name = 
REMARK  8 active torsions:
REMARK  status: ('A' for Active; 'I' for Inactive)
REMARK    1  A    between atoms: C_1  and  C_2
REMARK    2  A    between atoms: C_2  and  C_3
REMARK    3  A    between atoms: C_2  and  N_4
REMARK    4  A    between atoms: C_5  and  O_7
REMARK    5  A    between atoms: O_7  and  C_8
REMARK    6  A    between atoms: C_8  and  C_9
REMARK    7  A    between atoms: C_12  and  S_13
REMARK    8  A    between atoms: S_13  and  C_14
REMARK                            x       y       z     vdW  Elec       q    Type
REMARK                         _______ _______ _______ _____ _____    ______ ____
ROOT
ATOM      1  C   UNL     1       7.470   7.017  18.050  0.00  0.00    +0.000 A 
ATOM      2  C   UNL     1       6.639   7.414  16.996  0.00  0.00    +0.000 A 
ATOM      3  C   UNL     1       5.595   6.584  16.553  0.00  0.00    +0.000 A 
ATOM      4  C   UNL     1       5.380   5.319  17.119  0.00  0.00    +0.000 A 
ATOM      5  C   UNL     1       6.225   4.921  18.160  0.00  0.00    +0.000 A 
ATOM      6  C   UNL     1       7.255   5.759  18.624  0.00  0.00    +0.000 A 
ENDROOT
BRANCH   1   7
ATOM      7  C   UNL     1       8.545   7.942  18.577  0.00  0.00    +0.000 C 
BRANCH   7   8
ATOM      8  O   UNL     1       8.388   9.273  18.094  0.00  0.00    +0.000 OA
BRANCH   8  10
ATOM      9  N   UNL     1       9.732  11.042  17.910  0.00  0.00    +0.000 N 
ATOM     10  C   UNL     1       9.091  10.221  18.781  0.00  0.00    +0.000 C 
ATOM     11  O   UNL     1       9.164  10.304  20.000  0.00  0.00    +0.000 OA
ATOM     12  H   UNL     1       9.478  10.975  16.935  0.00  0.00    +0.000 HD
BRANCH   9  14
ATOM     13  C   UNL     1      11.988  11.653  18.685  0.00  0.00    +0.000 C 
ATOM     14  C   UNL     1      10.578  12.145  18.374  0.00  0.00    +0.000 C 
ATOM     15  C   UNL     1      10.613  13.285  17.359  0.00  0.00    +0.000 C 
ENDBRANCH   9  14
ENDBRANCH   8  10
ENDBRANCH   7   8
ENDBRANCH   1   7
BRANCH   4  16
ATOM     16  S   UNL     1       3.938   4.319  16.700  0.00  0.00    +0.000 S 
BRANCH  16  17
ATOM     17  C   UNL     1       3.029   4.163  18.264  0.00  0.00    +0.000 A 
ATOM     18  C   UNL     1       2.574   5.314  18.986  0.00  0.00    +0.000 A 
ATOM     19  C   UNL     1       2.833   6.675  18.692  0.00  0.00    +0.000 A 
ATOM     20  C   UNL     1       2.307   7.700  19.487  0.00  0.00    +0.000 A 
ATOM     21  C   UNL     1       1.424   7.398  20.516  0.00  0.00    +0.000 A 
ATOM     22  C   UNL     1       1.195   6.068  20.840  0.00  0.00    +0.000 A 
ATOM     23  C   UNL     1       1.865   5.059  20.174  0.00  0.00    +0.000 A 
ATOM     24  N   UNL     1       1.965   3.897  20.803  0.00  0.00    +0.000 NA
ATOM     25  C   UNL     1       2.774   2.996  20.250  0.00  0.00    +0.000 A 
ATOM     26  C   UNL     1       3.790   2.437  20.997  0.00  0.00    +0.000 A 
ATOM     27  C   UNL     1       4.693   1.550  20.412  0.00  0.00    +0.000 A 
ATOM     28  C   UNL     1       4.402   1.039  19.155  0.00  0.00    +0.000 A 
ATOM     29  C   UNL     1       3.447   1.684  18.385  0.00  0.00    +0.000 A 
ATOM     30  C   UNL     1       2.954   2.897  18.890  0.00  0.00    +0.000 A 
ENDBRANCH  16  17
ENDBRANCH   4  16
TORSDOF 6
ENDMDL
