MODEL 1
REMARK VINA RESULT:      -7.0      0.000      0.000
REMARK  Name = 
REMARK  7 active torsions:
REMARK  status: ('A' for Active; 'I' for Inactive)
REMARK    1  A    between atoms: C_2  and  O_3
REMARK    2  A    between atoms: C_2  and  C_4
REMARK    3  A    between atoms: C_4  and  N_5
REMARK    4  A    between atoms: N_7  and  C_8
REMARK    5  A    between atoms: C_8  and  C_9
REMARK    6  A    between atoms: C_12  and  O_13
REMARK    7  A    between atoms: C_21  and  O_22
REMARK                            x       y       z     vdW  Elec       q    Type
REMARK                         _______ _______ _______ _____ _____    ______ ____
ROOT
ATOM      1  N   UNL     1       3.153   6.765  18.405  0.00  0.00    +0.000 N 
ATOM      2  C   UNL     1       4.466   6.933  17.751  0.00  0.00    +0.000 C 
ATOM      3  N   UNL     1       5.123   5.697  17.370  0.00  0.00    +0.000 NA
ATOM      4  S   UNL     1       5.347   4.660  18.669  0.00  0.00    +0.000 S 
ATOM      5  O   UNL     1       5.617   3.343  18.128  0.00  0.00    +0.000 OA
ATOM      6  O   UNL     1       6.225   5.257  19.648  0.00  0.00    +0.000 OA
ATOM      7  C   UNL     1       3.791   4.628  19.449  0.00  0.00    +0.000 A 
ATOM      8  C   UNL     1       3.574   3.566  20.343  0.00  0.00    +0.000 A 
ATOM      9  C   UNL     1       2.424   3.555  21.099  0.00  0.00    +0.000 A 
ATOM     10  C   UNL     1       1.495   4.568  20.949  0.00  0.00    +0.000 A 
ATOM     11  C   UNL     1       1.731   5.616  20.040  0.00  0.00    +0.000 A 
ATOM     12  C   UNL     1       2.894   5.682  19.248  0.00  0.00    +0.000 A 
ENDROOT
BRANCH   9  13
ATOM     13  O   UNL     1       2.187   2.588  22.025  0.00  0.00    +0.000 OA
ATOM     14  H   UNL     1       1.253   2.320  21.970  0.00  0.00    +0.000 HD
ENDBRANCH   9  13
BRANCH   1  15
ATOM     15  C   UNL     1       2.014   7.460  17.734  0.00  0.00    +0.000 C 
BRANCH  15  17
ATOM     16  O   UNL     1       1.447   9.085  19.460  0.00  0.00    +0.000 OA
ATOM     17  C   UNL     1       1.787   8.859  18.310  0.00  0.00    +0.000 C 
BRANCH  17  18
ATOM     18  O   UNL     1       2.034   9.845  17.410  0.00  0.00    +0.000 OA
ATOM     19  H   UNL     1       2.403   9.461  16.583  0.00  0.00    +0.000 HD
ENDBRANCH  17  18
ENDBRANCH  15  17
ENDBRANCH   1  15
BRANCH   3  20
ATOM     20  C   UNL     1       6.347   5.904  16.529  0.00  0.00    +0.000 C 
BRANCH  20  21
ATOM     21  C   UNL     1       6.293   5.276  15.147  0.00  0.00    +0.000 A 
ATOM     22  C   UNL     1       5.205   4.463  14.784  0.00  0.00    +0.000 A 
ATOM     23  C   UNL     1       5.279   3.630  13.666  0.00  0.00    +0.000 A 
ATOM     24  C   UNL     1       6.419   3.654  12.873  0.00  0.00    +0.000 A 
ATOM     25  C   UNL     1       7.454   4.541  13.143  0.00  0.00    +0.000 A 
ATOM     26  C   UNL     1       7.392   5.355  14.277  0.00  0.00    +0.000 A 
BRANCH  24  27
ATOM     27  O   UNL     1       6.573   2.791  11.830  0.00  0.00    +0.000 OA
ATOM     28  H   UNL     1       7.336   2.220  12.022  0.00  0.00    +0.000 HD
ENDBRANCH  24  27
ENDBRANCH  20  21
ENDBRANCH   3  20
TORSDOF 7
ENDMDL
MODEL 2
REMARK VINA RESULT:      -6.6      5.853      8.899
REMARK  Name = 
REMARK  7 active torsions:
REMARK  status: ('A' for Active; 'I' for Inactive)
REMARK    1  A    between atoms: C_2  and  O_3
REMARK    2  A    between atoms: C_2  and  C_4
REMARK    3  A    between atoms: C_4  and  N_5
REMARK    4  A    between atoms: N_7  and  C_8
REMARK    5  A    between atoms: C_8  and  C_9
REMARK    6  A    between atoms: C_12  and  O_13
REMARK    7  A    between atoms: C_21  and  O_22
REMARK                            x       y       z     vdW  Elec       q    Type
REMARK                         _______ _______ _______ _____ _____    ______ ____
ROOT
ATOM      1  N   UNL     1      -2.578  12.359  19.707  0.00  0.00    +0.000 N 
ATOM      2  C   UNL     1      -1.128  12.232  19.456  0.00  0.00    +0.000 C 
ATOM      3  N   UNL     1      -0.407  11.433  20.428  0.00  0.00    +0.000 NA
ATOM      4  S   UNL     1      -0.589  12.005  21.995  0.00  0.00    +0.000 S 
ATOM      5  O   UNL     1      -0.191  10.939  22.893  0.00  0.00    +0.000 OA
ATOM      6  O   UNL     1      -0.028  13.330  22.118  0.00  0.00    +0.000 OA
ATOM      7  C   UNL     1      -2.305  12.248  22.152  0.00  0.00    +0.000 A 
ATOM      8  C   UNL     1      -2.790  12.369  23.465  0.00  0.00    +0.000 A 
ATOM      9  C   UNL     1      -4.112  12.702  23.659  0.00  0.00    +0.000 A 
ATOM     10  C   UNL     1      -4.941  12.885  22.568  0.00  0.00    +0.000 A 
ATOM     11  C   UNL     1      -4.434  12.749  21.262  0.00  0.00    +0.000 A 
ATOM     12  C   UNL     1      -3.089  12.418  21.005  0.00  0.00    +0.000 A 
ENDROOT
BRANCH   9  13
ATOM     13  O   UNL     1      -4.624  12.895  24.904  0.00  0.00    +0.000 OA
ATOM     14  H   UNL     1      -4.817  13.841  25.024  0.00  0.00    +0.000 HD
ENDBRANCH   9  13
BRANCH   1  15
ATOM     15  C   UNL     1      -3.459  11.900  18.593  0.00  0.00    +0.000 C 
BRANCH  15  17
ATOM     16  O   UNL     1      -2.643   9.740  17.811  0.00  0.00    +0.000 OA
ATOM     17  C   UNL     1      -2.726  10.947  17.648  0.00  0.00    +0.000 C 
BRANCH  17  18
ATOM     18  O   UNL     1      -2.190  11.579  16.573  0.00  0.00    +0.000 OA
ATOM     19  H   UNL     1      -1.261  11.285  16.438  0.00  0.00    +0.000 HD
ENDBRANCH  17  18
ENDBRANCH  15  17
ENDBRANCH   1  15
BRANCH   3  20
ATOM     20  C   UNL     1       1.013  11.151  20.037  0.00  0.00    +0.000 C 
BRANCH  20  21
ATOM     21  C   UNL     1       1.275   9.742  19.533  0.00  0.00    +0.000 A 
ATOM     22  C   UNL     1       1.350   8.671  20.441  0.00  0.00    +0.000 A 
ATOM     23  C   UNL     1       1.896   7.446  20.053  0.00  0.00    +0.000 A 
ATOM     24  C   UNL     1       2.311   7.270  18.740  0.00  0.00    +0.000 A 
ATOM     25  C   UNL     1       2.129   8.273  17.796  0.00  0.00    +0.000 A 
ATOM     26  C   UNL     1       1.609   9.509  18.190  0.00  0.00    +0.000 A 
BRANCH  24  27
ATOM     27  O   UNL     1       2.936   6.125  18.343  0.00  0.00    +0.000 OA
ATOM     28  H   UNL     1       3.860   6.168  18.640  0.00  0.00    +0.000 HD
ENDBRANCH  24  27
ENDBRANCH  20  21
ENDBRANCH   3  20
TORSDOF 7
ENDMDL
MODEL 3
REMARK VINA RESULT:      -6.4      2.182      6.986
REMARK  Name = 
REMARK  7 active torsions:
REMARK  status: ('A' for Active; 'I' for Inactive)
REMARK    1  A    between atoms: C_2  and  O_3
REMARK    2  A    between atoms: C_2  and  C_4
REMARK    3  A    between atoms: C_4  and  N_5
REMARK    4  A    between atoms: N_7  and  C_8
REMARK    5  A    between atoms: C_8  and  C_9
REMARK    6  A    between atoms: C_12  and  O_13
REMARK    7  A    between atoms: C_21  and  O_22
REMARK                            x       y       z     vdW  Elec       q    Type
REMARK                         _______ _______ _______ _____ _____    ______ ____
ROOT
ATOM      1  N   UNL     1       3.911   3.699  17.309  0.00  0.00    +0.000 N 
ATOM      2  C   UNL     1       3.635   4.418  18.569  0.00  0.00    +0.000 C 
ATOM      3  N   UNL     1       3.759   5.861  18.489  0.00  0.00    +0.000 NA
ATOM      4  S   UNL     1       5.275   6.350  17.964  0.00  0.00    +0.000 S 
ATOM      5  O   UNL     1       5.161   7.730  17.537  0.00  0.00    +0.000 OA
ATOM      6  O   UNL     1       6.292   5.944  18.906  0.00  0.00    +0.000 OA
ATOM      7  C   UNL     1       5.568   5.361  16.562  0.00  0.00    +0.000 A 
ATOM      8  C   UNL     1       6.590   5.801  15.703  0.00  0.00    +0.000 A 
ATOM      9  C   UNL     1       6.970   4.996  14.653  0.00  0.00    +0.000 A 
ATOM     10  C   UNL     1       6.328   3.789  14.446  0.00  0.00    +0.000 A 
ATOM     11  C   UNL     1       5.301   3.374  15.315  0.00  0.00    +0.000 A 
ATOM     12  C   UNL     1       4.878   4.153  16.409  0.00  0.00    +0.000 A 
ENDROOT
BRANCH   9  13
ATOM     13  O   UNL     1       7.992   5.338  13.825  0.00  0.00    +0.000 OA
ATOM     14  H   UNL     1       8.590   5.946  14.293  0.00  0.00    +0.000 HD
ENDBRANCH   9  13
BRANCH   1  15
ATOM     15  C   UNL     1       2.802   2.831  16.815  0.00  0.00    +0.000 C 
BRANCH  15  17
ATOM     16  O   UNL     1       0.935   2.360  18.310  0.00  0.00    +0.000 OA
ATOM     17  C   UNL     1       2.082   2.125  17.965  0.00  0.00    +0.000 C 
BRANCH  17  18
ATOM     18  O   UNL     1       2.844   1.171  18.558  0.00  0.00    +0.000 OA
ATOM     19  H   UNL     1       3.452   0.767  17.897  0.00  0.00    +0.000 HD
ENDBRANCH  17  18
ENDBRANCH  15  17
ENDBRANCH   1  15
BRANCH   3  20
ATOM     20  C   UNL     1       3.274   6.573  19.717  0.00  0.00    +0.000 C 
BRANCH  20  21
ATOM     21  C   UNL     1       2.202   7.621  19.473  0.00  0.00    +0.000 A 
ATOM     22  C   UNL     1       2.022   8.160  18.187  0.00  0.00    +0.000 A 
ATOM     23  C   UNL     1       1.281   9.329  18.001  0.00  0.00    +0.000 A 
ATOM     24  C   UNL     1       0.668   9.927  19.094  0.00  0.00    +0.000 A 
ATOM     25  C   UNL     1       0.730   9.342  20.353  0.00  0.00    +0.000 A 
ATOM     26  C   UNL     1       1.493   8.188  20.544  0.00  0.00    +0.000 A 
BRANCH  24  27
ATOM     27  O   UNL     1       0.018  11.119  18.974  0.00  0.00    +0.000 OA
ATOM     28  H   UNL     1       0.272  11.678  19.727  0.00  0.00    +0.000 HD
ENDBRANCH  24  27
ENDBRANCH  20  21
ENDBRANCH   3  20
TORSDOF 7
ENDMDL
MODEL 4
REMARK VINA RESULT:      -6.4      4.691      7.811
REMARK  Name = 
REMARK  7 active torsions:
REMARK  status: ('A' for Active; 'I' for Inactive)
REMARK    1  A    between atoms: C_2  and  O_3
REMARK    2  A    between atoms: C_2  and  C_4
REMARK    3  A    between atoms: C_4  and  N_5
REMARK    4  A    between atoms: N_7  and  C_8
REMARK    5  A    between atoms: C_8  and  C_9
REMARK    6  A    between atoms: C_12  and  O_13
REMARK    7  A    between atoms: C_21  and  O_22
REMARK                            x       y       z     vdW  Elec       q    Type
REMARK                         _______ _______ _______ _____ _____    ______ ____
ROOT
ATOM      1  N   UNL     1      -1.334  10.605  18.222  0.00  0.00    +0.000 N 
ATOM      2  C   UNL     1       0.053  10.153  17.990  0.00  0.00    +0.000 C 
ATOM      3  N   UNL     1       0.784   9.782  19.187  0.00  0.00    +0.000 NA
ATOM      4  S   UNL     1       0.851  11.024  20.313  0.00  0.00    +0.000 S 
ATOM      5  O   UNL     1       1.223  10.436  21.584  0.00  0.00    +0.000 OA
ATOM      6  O   UNL     1       1.572  12.154  19.776  0.00  0.00    +0.000 OA
ATOM      7  C   UNL     1      -0.796  11.577  20.420  0.00  0.00    +0.000 A 
ATOM      8  C   UNL     1      -1.109  12.357  21.547  0.00  0.00    +0.000 A 
ATOM      9  C   UNL     1      -2.352  12.944  21.626  0.00  0.00    +0.000 A 
ATOM     10  C   UNL     1      -3.274  12.737  20.617  0.00  0.00    +0.000 A 
ATOM     11  C   UNL     1      -2.940  11.944  19.503  0.00  0.00    +0.000 A 
ATOM     12  C   UNL     1      -1.681  11.327  19.366  0.00  0.00    +0.000 A 
ENDROOT
BRANCH   9  13
ATOM     13  O   UNL     1      -2.692  13.759  22.660  0.00  0.00    +0.000 OA
ATOM     14  H   UNL     1      -2.998  14.611  22.304  0.00  0.00    +0.000 HD
ENDBRANCH   9  13
BRANCH   1  15
ATOM     15  C   UNL     1      -2.385   9.833  17.496  0.00  0.00    +0.000 C 
BRANCH  15  17
ATOM     16  O   UNL     1      -2.918   9.661  15.124  0.00  0.00    +0.000 OA
ATOM     17  C   UNL     1      -2.585  10.354  16.072  0.00  0.00    +0.000 C 
BRANCH  17  18
ATOM     18  O   UNL     1      -2.383  11.692  15.966  0.00  0.00    +0.000 OA
ATOM     19  H   UNL     1      -2.230  12.081  16.857  0.00  0.00    +0.000 HD
ENDBRANCH  17  18
ENDBRANCH  15  17
ENDBRANCH   1  15
BRANCH   3  20
ATOM     20  C   UNL     1       2.107   9.135  18.905  0.00  0.00    +0.000 C 
BRANCH  20  21
ATOM     21  C   UNL     1       2.178   7.650  19.220  0.00  0.00    +0.000 A 
ATOM     22  C   UNL     1       2.489   6.728  18.206  0.00  0.00    +0.000 A 
ATOM     23  C   UNL     1       2.251   5.364  18.386  0.00  0.00    +0.000 A 
ATOM     24  C   UNL     1       1.759   4.914  19.605  0.00  0.00    +0.000 A 
ATOM     25  C   UNL     1       1.564   5.793  20.662  0.00  0.00    +0.000 A 
ATOM     26  C   UNL     1       1.775   7.162  20.473  0.00  0.00    +0.000 A 
BRANCH  24  27
ATOM     27  O   UNL     1       1.422   3.606  19.791  0.00  0.00    +0.000 OA
ATOM     28  H   UNL     1       0.505   3.486  19.494  0.00  0.00    +0.000 HD
ENDBRANCH  24  27
ENDBRANCH  20  21
ENDBRANCH   3  20
TORSDOF 7
ENDMDL
MODEL 5
REMARK VINA RESULT:      -6.4      2.603      5.041
REMARK  Name = 
REMARK  7 active torsions:
REMARK  status: ('A' for Active; 'I' for Inactive)
REMARK    1  A    between atoms: C_2  and  O_3
REMARK    2  A    between atoms: C_2  and  C_4
REMARK    3  A    between atoms: C_4  and  N_5
REMARK    4  A    between atoms: N_7  and  C_8
REMARK    5  A    between atoms: C_8  and  C_9
REMARK    6  A    between atoms: C_12  and  O_13
REMARK    7  A    between atoms: C_21  and  O_22
REMARK                            x       y       z     vdW  Elec       q    Type
REMARK                         _______ _______ _______ _____ _____    ______ ____
ROOT
ATOM      1  N   UNL     1       2.042   6.452  19.911  0.00  0.00    +0.000 N 
ATOM      2  C   UNL     1       2.535   6.347  18.523  0.00  0.00    +0.000 C 
ATOM      3  N   UNL     1       3.130   7.558  17.992  0.00  0.00    +0.000 NA
ATOM      4  S   UNL     1       2.084   8.868  18.046  0.00  0.00    +0.000 S 
ATOM      5  O   UNL     1       2.884  10.067  17.888  0.00  0.00    +0.000 OA
ATOM      6  O   UNL     1       0.930   8.628  17.212  0.00  0.00    +0.000 OA
ATOM      7  C   UNL     1       1.457   8.832  19.669  0.00  0.00    +0.000 A 
ATOM      8  C   UNL     1       0.844  10.015  20.116  0.00  0.00    +0.000 A 
ATOM      9  C   UNL     1       0.203  10.014  21.335  0.00  0.00    +0.000 A 
ATOM     10  C   UNL     1       0.195   8.866  22.105  0.00  0.00    +0.000 A 
ATOM     11  C   UNL     1       0.824   7.696  21.639  0.00  0.00    +0.000 A 
ATOM     12  C   UNL     1       1.486   7.638  20.397  0.00  0.00    +0.000 A 
ENDROOT
BRANCH   9  13
ATOM     13  O   UNL     1      -0.460  11.109  21.794  0.00  0.00    +0.000 OA
ATOM     14  H   UNL     1      -1.017  11.464  21.080  0.00  0.00    +0.000 HD
ENDBRANCH   9  13
BRANCH   1  15
ATOM     15  C   UNL     1       2.627   5.471  20.871  0.00  0.00    +0.000 C 
BRANCH  15  17
ATOM     16  O   UNL     1       0.782   3.977  20.316  0.00  0.00    +0.000 OA
ATOM     17  C   UNL     1       1.740   4.234  21.027  0.00  0.00    +0.000 C 
BRANCH  17  18
ATOM     18  O   UNL     1       2.145   3.419  22.034  0.00  0.00    +0.000 OA
ATOM     19  H   UNL     1       2.896   2.859  21.732  0.00  0.00    +0.000 HD
ENDBRANCH  17  18
ENDBRANCH  15  17
ENDBRANCH   1  15
BRANCH   3  20
ATOM     20  C   UNL     1       3.804   7.363  16.666  0.00  0.00    +0.000 C 
BRANCH  20  21
ATOM     21  C   UNL     1       5.095   6.563  16.712  0.00  0.00    +0.000 A 
ATOM     22  C   UNL     1       5.127   5.245  16.225  0.00  0.00    +0.000 A 
ATOM     23  C   UNL     1       6.187   4.394  16.540  0.00  0.00    +0.000 A 
ATOM     24  C   UNL     1       7.250   4.879  17.292  0.00  0.00    +0.000 A 
ATOM     25  C   UNL     1       7.298   6.214  17.675  0.00  0.00    +0.000 A 
ATOM     26  C   UNL     1       6.224   7.058  17.384  0.00  0.00    +0.000 A 
BRANCH  24  27
ATOM     27  O   UNL     1       8.258   4.059  17.702  0.00  0.00    +0.000 OA
ATOM     28  H   UNL     1       7.918   3.149  17.720  0.00  0.00    +0.000 HD
ENDBRANCH  24  27
ENDBRANCH  20  21
ENDBRANCH   3  20
TORSDOF 7
ENDMDL
MODEL 6
REMARK VINA RESULT:      -6.4      4.495      7.803
REMARK  Name = 
REMARK  7 active torsions:
REMARK  status: ('A' for Active; 'I' for Inactive)
REMARK    1  A    between atoms: C_2  and  O_3
REMARK    2  A    between atoms: C_2  and  C_4
REMARK    3  A    between atoms: C_4  and  N_5
REMARK    4  A    between atoms: N_7  and  C_8
REMARK    5  A    between atoms: C_8  and  C_9
REMARK    6  A    between atoms: C_12  and  O_13
REMARK    7  A    between atoms: C_21  and  O_22
REMARK                            x       y       z     vdW  Elec       q    Type
REMARK                         _______ _______ _______ _____ _____    ______ ____
ROOT
ATOM      1  N   UNL     1      -1.369  10.656  18.306  0.00  0.00    +0.000 N 
ATOM      2  C   UNL     1       0.010  10.161  18.122  0.00  0.00    +0.000 C 
ATOM      3  N   UNL     1       0.703   9.810  19.346  0.00  0.00    +0.000 NA
ATOM      4  S   UNL     1       0.777  11.084  20.434  0.00  0.00    +0.000 S 
ATOM      5  O   UNL     1       1.104  10.527  21.731  0.00  0.00    +0.000 OA
ATOM      6  O   UNL     1       1.540  12.178  19.880  0.00  0.00    +0.000 OA
ATOM      7  C   UNL     1      -0.857  11.682  20.485  0.00  0.00    +0.000 A 
ATOM      8  C   UNL     1      -1.174  12.505  21.580  0.00  0.00    +0.000 A 
ATOM      9  C   UNL     1      -2.403  13.126  21.612  0.00  0.00    +0.000 A 
ATOM     10  C   UNL     1      -3.307  12.912  20.588  0.00  0.00    +0.000 A 
ATOM     11  C   UNL     1      -2.968  12.076  19.507  0.00  0.00    +0.000 A 
ATOM     12  C   UNL     1      -1.724  11.423  19.419  0.00  0.00    +0.000 A 
ENDROOT
BRANCH   9  13
ATOM     13  O   UNL     1      -2.745  13.982  22.611  0.00  0.00    +0.000 OA
ATOM     14  H   UNL     1      -2.968  14.846  22.226  0.00  0.00    +0.000 HD
ENDBRANCH   9  13
BRANCH   1  15
ATOM     15  C   UNL     1      -2.424   9.890  17.580  0.00  0.00    +0.000 C 
BRANCH  15  17
ATOM     16  O   UNL     1      -2.874   9.637  15.198  0.00  0.00    +0.000 OA
ATOM     17  C   UNL     1      -2.567  10.360  16.131  0.00  0.00    +0.000 C 
BRANCH  17  18
ATOM     18  O   UNL     1      -2.345  11.691  15.985  0.00  0.00    +0.000 OA
ATOM     19  H   UNL     1      -3.070  12.202  16.411  0.00  0.00    +0.000 HD
ENDBRANCH  17  18
ENDBRANCH  15  17
ENDBRANCH   1  15
BRANCH   3  20
ATOM     20  C   UNL     1       2.014   9.120  19.116  0.00  0.00    +0.000 C 
BRANCH  20  21
ATOM     21  C   UNL     1       1.971   7.604  19.215  0.00  0.00    +0.000 A 
ATOM     22  C   UNL     1       1.649   6.986  20.436  0.00  0.00    +0.000 A 
ATOM     23  C   UNL     1       1.909   5.630  20.639  0.00  0.00    +0.000 A 
ATOM     24  C   UNL     1       2.437   4.875  19.599  0.00  0.00    +0.000 A 
ATOM     25  C   UNL     1       2.645   5.438  18.346  0.00  0.00    +0.000 A 
ATOM     26  C   UNL     1       2.410   6.801  18.151  0.00  0.00    +0.000 A 
BRANCH  24  27
ATOM     27  O   UNL     1       2.795   3.573  19.782  0.00  0.00    +0.000 OA
ATOM     28  H   UNL     1       2.551   3.318  20.687  0.00  0.00    +0.000 HD
ENDBRANCH  24  27
ENDBRANCH  20  21
ENDBRANCH   3  20
TORSDOF 7
ENDMDL
MODEL 7
REMARK VINA RESULT:      -6.3      5.944      9.314
REMARK  Name = 
REMARK  7 active torsions:
REMARK  status: ('A' for Active; 'I' for Inactive)
REMARK    1  A    between atoms: C_2  and  O_3
REMARK    2  A    between atoms: C_2  and  C_4
REMARK    3  A    between atoms: C_4  and  N_5
REMARK    4  A    between atoms: N_7  and  C_8
REMARK    5  A    between atoms: C_8  and  C_9
REMARK    6  A    between atoms: C_12  and  O_13
REMARK    7  A    between atoms: C_21  and  O_22
REMARK                            x       y       z     vdW  Elec       q    Type
REMARK                         _______ _______ _______ _____ _____    ______ ____
ROOT
ATOM      1  N   UNL     1      -2.895  11.284  17.955  0.00  0.00    +0.000 N 
ATOM      2  C   UNL     1      -1.426  11.319  18.103  0.00  0.00    +0.000 C 
ATOM      3  N   UNL     1      -0.948  11.254  19.471  0.00  0.00    +0.000 NA
ATOM      4  S   UNL     1      -1.570  12.482  20.430  0.00  0.00    +0.000 S 
ATOM      5  O   UNL     1      -1.368  12.094  21.812  0.00  0.00    +0.000 OA
ATOM      6  O   UNL     1      -1.134  13.771  19.947  0.00  0.00    +0.000 OA
ATOM      7  C   UNL     1      -3.277  12.450  20.090  0.00  0.00    +0.000 A 
ATOM      8  C   UNL     1      -4.099  13.114  21.016  0.00  0.00    +0.000 A 
ATOM      9  C   UNL     1      -5.441  13.250  20.739  0.00  0.00    +0.000 A 
ATOM     10  C   UNL     1      -5.959  12.712  19.575  0.00  0.00    +0.000 A 
ATOM     11  C   UNL     1      -5.116  12.044  18.667  0.00  0.00    +0.000 A 
ATOM     12  C   UNL     1      -3.735  11.883  18.896  0.00  0.00    +0.000 A 
ENDROOT
BRANCH   9  13
ATOM     13  O   UNL     1      -6.275  13.935  21.565  0.00  0.00    +0.000 OA
ATOM     14  H   UNL     1      -5.923  14.832  21.698  0.00  0.00    +0.000 HD
ENDBRANCH   9  13
BRANCH   1  15
ATOM     15  C   UNL     1      -3.423  10.181  17.100  0.00  0.00    +0.000 C 
BRANCH  15  17
ATOM     16  O   UNL     1      -2.900   9.626  14.784  0.00  0.00    +0.000 OA
ATOM     17  C   UNL     1      -3.210  10.467  15.612  0.00  0.00    +0.000 C 
BRANCH  17  18
ATOM     18  O   UNL     1      -3.433  11.766  15.288  0.00  0.00    +0.000 OA
ATOM     19  H   UNL     1      -4.193  11.833  14.666  0.00  0.00    +0.000 HD
ENDBRANCH  17  18
ENDBRANCH  15  17
ENDBRANCH   1  15
BRANCH   3  20
ATOM     20  C   UNL     1       0.538  11.082  19.578  0.00  0.00    +0.000 C 
BRANCH  20  21
ATOM     21  C   UNL     1       1.040   9.666  19.355  0.00  0.00    +0.000 A 
ATOM     22  C   UNL     1       1.112   8.764  20.431  0.00  0.00    +0.000 A 
ATOM     23  C   UNL     1       1.854   7.586  20.326  0.00  0.00    +0.000 A 
ATOM     24  C   UNL     1       2.475   7.278  19.122  0.00  0.00    +0.000 A 
ATOM     25  C   UNL     1       2.312   8.093  18.009  0.00  0.00    +0.000 A 
ATOM     26  C   UNL     1       1.593   9.286  18.122  0.00  0.00    +0.000 A 
BRANCH  24  27
ATOM     27  O   UNL     1       3.286   6.189  19.005  0.00  0.00    +0.000 OA
ATOM     28  H   UNL     1       2.915   5.477  19.551  0.00  0.00    +0.000 HD
ENDBRANCH  24  27
ENDBRANCH  20  21
ENDBRANCH   3  20
TORSDOF 7
ENDMDL
MODEL 8
REMARK VINA RESULT:      -6.3      5.816     10.524
REMARK  Name = 
REMARK  7 active torsions:
REMARK  status: ('A' for Active; 'I' for Inactive)
REMARK    1  A    between atoms: C_2  and  O_3
REMARK    2  A    between atoms: C_2  and  C_4
REMARK    3  A    between atoms: C_4  and  N_5
REMARK    4  A    between atoms: N_7  and  C_8
REMARK    5  A    between atoms: C_8  and  C_9
REMARK    6  A    between atoms: C_12  and  O_13
REMARK    7  A    between atoms: C_21  and  O_22
REMARK                            x       y       z     vdW  Elec       q    Type
REMARK                         _______ _______ _______ _____ _____    ______ ____
ROOT
ATOM      1  N   UNL     1      -0.776  10.722  19.441  0.00  0.00    +0.000 N 
ATOM      2  C   UNL     1      -1.413  10.840  20.768  0.00  0.00    +0.000 C 
ATOM      3  N   UNL     1      -0.514  10.672  21.894  0.00  0.00    +0.000 NA
ATOM      4  S   UNL     1       0.293   9.202  21.862  0.00  0.00    +0.000 S 
ATOM      5  O   UNL     1       1.425   9.311  22.762  0.00  0.00    +0.000 OA
ATOM      6  O   UNL     1      -0.643   8.109  21.973  0.00  0.00    +0.000 OA
ATOM      7  C   UNL     1       0.892   9.093  20.232  0.00  0.00    +0.000 A 
ATOM      8  C   UNL     1       1.913   8.151  20.015  0.00  0.00    +0.000 A 
ATOM      9  C   UNL     1       2.335   7.911  18.727  0.00  0.00    +0.000 A 
ATOM     10  C   UNL     1       1.772   8.614  17.678  0.00  0.00    +0.000 A 
ATOM     11  C   UNL     1       0.758   9.559  17.922  0.00  0.00    +0.000 A 
ATOM     12  C   UNL     1       0.281   9.838  19.217  0.00  0.00    +0.000 A 
ENDROOT
BRANCH   9  13
ATOM     13  O   UNL     1       3.274   6.968  18.447  0.00  0.00    +0.000 OA
ATOM     14  H   UNL     1       2.889   6.086  18.589  0.00  0.00    +0.000 HD
ENDBRANCH   9  13
BRANCH   1  15
ATOM     15  C   UNL     1      -0.941  11.907  18.548  0.00  0.00    +0.000 C 
BRANCH  15  17
ATOM     16  O   UNL     1      -3.340  11.769  18.141  0.00  0.00    +0.000 OA
ATOM     17  C   UNL     1      -2.205  11.800  17.694  0.00  0.00    +0.000 C 
BRANCH  17  18
ATOM     18  O   UNL     1      -1.941  11.774  16.363  0.00  0.00    +0.000 OA
ATOM     19  H   UNL     1      -2.778  11.858  15.852  0.00  0.00    +0.000 HD
ENDBRANCH  17  18
ENDBRANCH  15  17
ENDBRANCH   1  15
BRANCH   3  20
ATOM     20  C   UNL     1      -1.142  11.001  23.216  0.00  0.00    +0.000 C 
BRANCH  20  21
ATOM     21  C   UNL     1      -1.900  12.317  23.259  0.00  0.00    +0.000 A 
ATOM     22  C   UNL     1      -1.201  13.536  23.230  0.00  0.00    +0.000 A 
ATOM     23  C   UNL     1      -1.833  14.729  23.584  0.00  0.00    +0.000 A 
ATOM     24  C   UNL     1      -3.184  14.713  23.910  0.00  0.00    +0.000 A 
ATOM     25  C   UNL     1      -3.922  13.540  23.823  0.00  0.00    +0.000 A 
ATOM     26  C   UNL     1      -3.284  12.341  23.496  0.00  0.00    +0.000 A 
BRANCH  24  27
ATOM     27  O   UNL     1      -3.816  15.836  24.354  0.00  0.00    +0.000 OA
ATOM     28  H   UNL     1      -4.458  16.107  23.677  0.00  0.00    +0.000 HD
ENDBRANCH  24  27
ENDBRANCH  20  21
ENDBRANCH   3  20
TORSDOF 7
ENDMDL
MODEL 9
REMARK VINA RESULT:      -6.2      6.103      9.365
REMARK  Name = 
REMARK  7 active torsions:
REMARK  status: ('A' for Active; 'I' for Inactive)
REMARK    1  A    between atoms: C_2  and  O_3
REMARK    2  A    between atoms: C_2  and  C_4
REMARK    3  A    between atoms: C_4  and  N_5
REMARK    4  A    between atoms: N_7  and  C_8
REMARK    5  A    between atoms: C_8  and  C_9
REMARK    6  A    between atoms: C_12  and  O_13
REMARK    7  A    between atoms: C_21  and  O_22
REMARK                            x       y       z     vdW  Elec       q    Type
REMARK                         _______ _______ _______ _____ _____    ______ ____
ROOT
ATOM      1  N   UNL     1      -3.077  11.948  18.935  0.00  0.00    +0.000 N 
ATOM      2  C   UNL     1      -1.685  11.813  18.458  0.00  0.00    +0.000 C 
ATOM      3  N   UNL     1      -0.712  11.506  19.488  0.00  0.00    +0.000 NA
ATOM      4  S   UNL     1      -0.702  12.639  20.725  0.00  0.00    +0.000 S 
ATOM      5  O   UNL     1      -0.022  12.039  21.855  0.00  0.00    +0.000 OA
ATOM      6  O   UNL     1      -0.309  13.933  20.221  0.00  0.00    +0.000 OA
ATOM      7  C   UNL     1      -2.385  12.828  21.129  0.00  0.00    +0.000 A 
ATOM      8  C   UNL     1      -2.654  13.431  22.369  0.00  0.00    +0.000 A 
ATOM      9  C   UNL     1      -3.957  13.740  22.691  0.00  0.00    +0.000 A 
ATOM     10  C   UNL     1      -4.974  13.429  21.808  0.00  0.00    +0.000 A 
ATOM     11  C   UNL     1      -4.680  12.816  20.575  0.00  0.00    +0.000 A 
ATOM     12  C   UNL     1      -3.365  12.487  20.190  0.00  0.00    +0.000 A 
ENDROOT
BRANCH   9  13
ATOM     13  O   UNL     1      -4.274  14.380  23.848  0.00  0.00    +0.000 OA
ATOM     14  H   UNL     1      -4.145  15.336  23.726  0.00  0.00    +0.000 HD
ENDBRANCH   9  13
BRANCH   1  15
ATOM     15  C   UNL     1      -4.064  11.037  18.285  0.00  0.00    +0.000 C 
BRANCH  15  17
ATOM     16  O   UNL     1      -4.022  10.844  15.855  0.00  0.00    +0.000 OA
ATOM     17  C   UNL     1      -4.367  11.465  16.848  0.00  0.00    +0.000 C 
BRANCH  17  18
ATOM     18  O   UNL     1      -5.096  12.608  16.781  0.00  0.00    +0.000 OA
ATOM     19  H   UNL     1      -5.974  12.425  16.377  0.00  0.00    +0.000 HD
ENDBRANCH  17  18
ENDBRANCH  15  17
ENDBRANCH   1  15
BRANCH   3  20
ATOM     20  C   UNL     1       0.647  11.172  18.948  0.00  0.00    +0.000 C 
BRANCH  20  21
ATOM     21  C   UNL     1       1.067   9.721  19.115  0.00  0.00    +0.000 A 
ATOM     22  C   UNL     1       0.959   9.094  20.369  0.00  0.00    +0.000 A 
ATOM     23  C   UNL     1       1.621   7.892  20.624  0.00  0.00    +0.000 A 
ATOM     24  C   UNL     1       2.344   7.283  19.606  0.00  0.00    +0.000 A 
ATOM     25  C   UNL     1       2.359   7.821  18.325  0.00  0.00    +0.000 A 
ATOM     26  C   UNL     1       1.720   9.038  18.076  0.00  0.00    +0.000 A 
BRANCH  24  27
ATOM     27  O   UNL     1       3.083   6.162  19.838  0.00  0.00    +0.000 OA
ATOM     28  H   UNL     1       2.694   5.697  20.597  0.00  0.00    +0.000 HD
ENDBRANCH  24  27
ENDBRANCH  20  21
ENDBRANCH   3  20
TORSDOF 7
ENDMDL
