MODEL 1
REMARK VINA RESULT:      -6.7      0.000      0.000
REMARK  Name = 
REMARK  6 active torsions:
REMARK  status: ('A' for Active; 'I' for Inactive)
REMARK    1  A    between atoms: C_1  and  O_2
REMARK    2  A    between atoms: O_2  and  C_3
REMARK    3  A    between atoms: C_3  and  C_4
REMARK    4  A    between atoms: C_4  and  O_5
REMARK    5  A    between atoms: O_5  and  C_6
REMARK    6  A    between atoms: C_12  and  C_13
REMARK                            x       y       z     vdW  Elec       q    Type
REMARK                         _______ _______ _______ _____ _____    ______ ____
ROOT
ATOM      1  C   UNL     1      -3.324  13.341  23.387  0.00  0.00    +0.000 A 
ATOM      2  C   UNL     1      -3.185  14.224  24.394  0.00  0.00    +0.000 A 
ATOM      3  C   UNL     1      -3.813  15.544  24.377  0.00  0.00    +0.000 A 
ATOM      4  O   UNL     1      -3.720  16.247  25.376  0.00  0.00    +0.000 OA
ATOM      5  N   UNL     1      -4.527  15.859  23.237  0.00  0.00    +0.000 N 
ATOM      6  C   UNL     1      -4.666  14.955  22.151  0.00  0.00    +0.000 A 
ATOM      7  C   UNL     1      -4.060  13.713  22.176  0.00  0.00    +0.000 A 
ATOM      8  C   UNL     1      -5.600  15.461  21.048  0.00  0.00    +0.000 C 
ATOM      9  C   UNL     1      -7.065  15.497  21.510  0.00  0.00    +0.000 C 
ATOM     10  O   UNL     1      -7.415  16.726  22.156  0.00  0.00    +0.000 OA
ATOM     11  C   UNL     1      -6.806  16.895  23.436  0.00  0.00    +0.000 C 
ATOM     12  C   UNL     1      -5.297  17.122  23.310  0.00  0.00    +0.000 C 
ENDROOT
BRANCH   7  13
ATOM     13  C   UNL     1      -4.599  12.663  21.203  0.00  0.00    +0.000 C 
ATOM     14  O   UNL     1      -5.638  12.107  21.606  0.00  0.00    +0.000 OA
ATOM     15  N   UNL     1      -4.153  12.344  19.915  0.00  0.00    +0.000 N 
ATOM     16  C   UNL     1      -5.207  11.734  19.087  0.00  0.00    +0.000 C 
ATOM     17  C   UNL     1      -5.103  12.217  17.642  0.00  0.00    +0.000 C 
ATOM     18  C   UNL     1      -3.914  11.476  17.111  0.00  0.00    +0.000 A 
ATOM     19  C   UNL     1      -4.043  10.682  15.961  0.00  0.00    +0.000 A 
ATOM     20  C   UNL     1      -3.062   9.753  15.659  0.00  0.00    +0.000 A 
ATOM     21  C   UNL     1      -1.938   9.654  16.495  0.00  0.00    +0.000 A 
ATOM     22  C   UNL     1      -1.785  10.501  17.615  0.00  0.00    +0.000 A 
ATOM     23  C   UNL     1      -2.782  11.424  17.960  0.00  0.00    +0.000 A 
ATOM     24  C   UNL     1      -2.794  12.312  19.254  0.00  0.00    +0.000 C 
ENDBRANCH   7  13
BRANCH   1  25
ATOM     25  O   UNL     1      -2.906  12.022  23.470  0.00  0.00    +0.000 OA
BRANCH  25  26
ATOM     26  C   UNL     1      -1.551  11.835  23.041  0.00  0.00    +0.000 C 
BRANCH  26  27
ATOM     27  C   UNL     1      -1.114  10.390  23.109  0.00  0.00    +0.000 C 
BRANCH  27  29
ATOM     28  C   UNL     1       0.852   9.281  22.400  0.00  0.00    +0.000 C 
ATOM     29  O   UNL     1       0.315  10.401  23.082  0.00  0.00    +0.000 OA
ENDBRANCH  27  29
ENDBRANCH  26  27
ENDBRANCH  25  26
ENDBRANCH   1  25
TORSDOF 5
ENDMDL
MODEL 2
REMARK VINA RESULT:      -6.4      4.330      6.727
REMARK  Name = 
REMARK  6 active torsions:
REMARK  status: ('A' for Active; 'I' for Inactive)
REMARK    1  A    between atoms: C_1  and  O_2
REMARK    2  A    between atoms: O_2  and  C_3
REMARK    3  A    between atoms: C_3  and  C_4
REMARK    4  A    between atoms: C_4  and  O_5
REMARK    5  A    between atoms: O_5  and  C_6
REMARK    6  A    between atoms: C_12  and  C_13
REMARK                            x       y       z     vdW  Elec       q    Type
REMARK                         _______ _______ _______ _____ _____    ______ ____
ROOT
ATOM      1  C   UNL     1      -0.415  12.628  21.642  0.00  0.00    +0.000 A 
ATOM      2  C   UNL     1      -0.384  13.836  22.236  0.00  0.00    +0.000 A 
ATOM      3  C   UNL     1       0.616  14.851  21.905  0.00  0.00    +0.000 A 
ATOM      4  O   UNL     1       0.514  15.959  22.417  0.00  0.00    +0.000 OA
ATOM      5  N   UNL     1       1.566  14.482  20.973  0.00  0.00    +0.000 N 
ATOM      6  C   UNL     1       1.569  13.204  20.354  0.00  0.00    +0.000 A 
ATOM      7  C   UNL     1       0.624  12.251  20.682  0.00  0.00    +0.000 A 
ATOM      8  C   UNL     1       2.635  13.053  19.264  0.00  0.00    +0.000 C 
ATOM      9  C   UNL     1       2.316  13.911  18.029  0.00  0.00    +0.000 C 
ATOM     10  O   UNL     1       2.829  15.244  18.129  0.00  0.00    +0.000 OA
ATOM     11  C   UNL     1       2.155  16.046  19.099  0.00  0.00    +0.000 C 
ATOM     12  C   UNL     1       2.460  15.574  20.523  0.00  0.00    +0.000 C 
ENDROOT
BRANCH   7  13
ATOM     13  C   UNL     1       0.430  11.102  19.690  0.00  0.00    +0.000 C 
ATOM     14  O   UNL     1      -0.380  11.368  18.783  0.00  0.00    +0.000 OA
ATOM     15  N   UNL     1       1.109   9.881  19.612  0.00  0.00    +0.000 N 
ATOM     16  C   UNL     1       1.076   9.300  18.260  0.00  0.00    +0.000 C 
ATOM     17  C   UNL     1       2.405   8.625  17.931  0.00  0.00    +0.000 C 
ATOM     18  C   UNL     1       2.365   7.364  18.739  0.00  0.00    +0.000 A 
ATOM     19  C   UNL     1       2.529   6.123  18.105  0.00  0.00    +0.000 A 
ATOM     20  C   UNL     1       2.172   4.963  18.772  0.00  0.00    +0.000 A 
ATOM     21  C   UNL     1       1.687   5.056  20.087  0.00  0.00    +0.000 A 
ATOM     22  C   UNL     1       1.586   6.303  20.741  0.00  0.00    +0.000 A 
ATOM     23  C   UNL     1       1.907   7.494  20.074  0.00  0.00    +0.000 A 
ATOM     24  C   UNL     1       1.698   8.942  20.640  0.00  0.00    +0.000 C 
ENDBRANCH   7  13
BRANCH   1  25
ATOM     25  O   UNL     1      -1.463  11.734  21.797  0.00  0.00    +0.000 OA
BRANCH  25  26
ATOM     26  C   UNL     1      -1.770  11.461  23.170  0.00  0.00    +0.000 C 
BRANCH  26  27
ATOM     27  C   UNL     1      -3.085  12.068  23.604  0.00  0.00    +0.000 C 
BRANCH  27  29
ATOM     28  C   UNL     1      -5.105  12.867  22.667  0.00  0.00    +0.000 C 
ATOM     29  O   UNL     1      -3.823  12.324  22.406  0.00  0.00    +0.000 OA
ENDBRANCH  27  29
ENDBRANCH  26  27
ENDBRANCH  25  26
ENDBRANCH   1  25
TORSDOF 5
ENDMDL
MODEL 3
REMARK VINA RESULT:      -6.4      7.251     11.672
REMARK  Name = 
REMARK  6 active torsions:
REMARK  status: ('A' for Active; 'I' for Inactive)
REMARK    1  A    between atoms: C_1  and  O_2
REMARK    2  A    between atoms: O_2  and  C_3
REMARK    3  A    between atoms: C_3  and  C_4
REMARK    4  A    between atoms: C_4  and  O_5
REMARK    5  A    between atoms: O_5  and  C_6
REMARK    6  A    between atoms: C_12  and  C_13
REMARK                            x       y       z     vdW  Elec       q    Type
REMARK                         _______ _______ _______ _____ _____    ______ ____
ROOT
ATOM      1  C   UNL     1       5.311   5.247  19.355  0.00  0.00    +0.000 A 
ATOM      2  C   UNL     1       5.638   3.971  19.635  0.00  0.00    +0.000 A 
ATOM      3  C   UNL     1       4.638   2.913  19.768  0.00  0.00    +0.000 A 
ATOM      4  O   UNL     1       5.025   1.760  19.923  0.00  0.00    +0.000 OA
ATOM      5  N   UNL     1       3.321   3.306  19.637  0.00  0.00    +0.000 N 
ATOM      6  C   UNL     1       2.950   4.650  19.370  0.00  0.00    +0.000 A 
ATOM      7  C   UNL     1       3.904   5.643  19.254  0.00  0.00    +0.000 A 
ATOM      8  C   UNL     1       1.447   4.838  19.141  0.00  0.00    +0.000 C 
ATOM      9  C   UNL     1       0.985   4.201  17.821  0.00  0.00    +0.000 C 
ATOM     10  O   UNL     1       0.633   2.821  17.962  0.00  0.00    +0.000 OA
ATOM     11  C   UNL     1       1.751   1.966  18.206  0.00  0.00    +0.000 C 
ATOM     12  C   UNL     1       2.337   2.199  19.601  0.00  0.00    +0.000 C 
ENDROOT
BRANCH   7  13
ATOM     13  C   UNL     1       3.476   6.933  18.553  0.00  0.00    +0.000 C 
ATOM     14  O   UNL     1       4.107   7.153  17.502  0.00  0.00    +0.000 OA
ATOM     15  N   UNL     1       2.427   7.803  18.871  0.00  0.00    +0.000 N 
ATOM     16  C   UNL     1       1.962   8.578  17.709  0.00  0.00    +0.000 C 
ATOM     17  C   UNL     1       0.446   8.749  17.747  0.00  0.00    +0.000 C 
ATOM     18  C   UNL     1       0.236   9.771  18.822  0.00  0.00    +0.000 A 
ATOM     19  C   UNL     1      -0.471  10.948  18.538  0.00  0.00    +0.000 A 
ATOM     20  C   UNL     1      -0.388  12.023  19.407  0.00  0.00    +0.000 A 
ATOM     21  C   UNL     1       0.378  11.893  20.577  0.00  0.00    +0.000 A 
ATOM     22  C   UNL     1       1.036  10.683  20.888  0.00  0.00    +0.000 A 
ATOM     23  C   UNL     1       0.995   9.594  20.006  0.00  0.00    +0.000 A 
ATOM     24  C   UNL     1       1.798   8.257  20.169  0.00  0.00    +0.000 C 
ENDBRANCH   7  13
BRANCH   1  25
ATOM     25  O   UNL     1       6.247   6.216  19.031  0.00  0.00    +0.000 OA
BRANCH  25  26
ATOM     26  C   UNL     1       7.249   5.747  18.120  0.00  0.00    +0.000 C 
BRANCH  26  27
ATOM     27  C   UNL     1       7.466   6.691  16.959  0.00  0.00    +0.000 C 
BRANCH  27  29
ATOM     28  C   UNL     1       6.960   4.579  16.021  0.00  0.00    +0.000 C 
ATOM     29  O   UNL     1       7.454   5.885  15.779  0.00  0.00    +0.000 OA
ENDBRANCH  27  29
ENDBRANCH  26  27
ENDBRANCH  25  26
ENDBRANCH   1  25
TORSDOF 5
ENDMDL
MODEL 4
REMARK VINA RESULT:      -6.3      4.277      7.254
REMARK  Name = 
REMARK  6 active torsions:
REMARK  status: ('A' for Active; 'I' for Inactive)
REMARK    1  A    between atoms: C_1  and  O_2
REMARK    2  A    between atoms: O_2  and  C_3
REMARK    3  A    between atoms: C_3  and  C_4
REMARK    4  A    between atoms: C_4  and  O_5
REMARK    5  A    between atoms: O_5  and  C_6
REMARK    6  A    between atoms: C_12  and  C_13
REMARK                            x       y       z     vdW  Elec       q    Type
REMARK                         _______ _______ _______ _____ _____    ______ ____
ROOT
ATOM      1  C   UNL     1      -1.753  12.083  19.720  0.00  0.00    +0.000 A 
ATOM      2  C   UNL     1      -2.015  13.341  20.124  0.00  0.00    +0.000 A 
ATOM      3  C   UNL     1      -0.969  14.349  20.288  0.00  0.00    +0.000 A 
ATOM      4  O   UNL     1      -1.303  15.496  20.562  0.00  0.00    +0.000 OA
ATOM      5  N   UNL     1       0.323  13.925  20.049  0.00  0.00    +0.000 N 
ATOM      6  C   UNL     1       0.626  12.597  19.648  0.00  0.00    +0.000 A 
ATOM      7  C   UNL     1      -0.371  11.651  19.504  0.00  0.00    +0.000 A 
ATOM      8  C   UNL     1       2.106  12.379  19.317  0.00  0.00    +0.000 C 
ATOM      9  C   UNL     1       2.519  13.111  18.031  0.00  0.00    +0.000 C 
ATOM     10  O   UNL     1       2.931  14.462  18.267  0.00  0.00    +0.000 OA
ATOM     11  C   UNL     1       1.862  15.329  18.647  0.00  0.00    +0.000 C 
ATOM     12  C   UNL     1       1.345  14.997  20.049  0.00  0.00    +0.000 C 
ENDROOT
BRANCH   7  13
ATOM     13  C   UNL     1      -0.032  10.412  18.673  0.00  0.00    +0.000 C 
ATOM     14  O   UNL     1      -0.580  10.406  17.555  0.00  0.00    +0.000 OA
ATOM     15  N   UNL     1       0.873   9.382  18.955  0.00  0.00    +0.000 N 
ATOM     16  C   UNL     1       1.353   8.702  17.740  0.00  0.00    +0.000 C 
ATOM     17  C   UNL     1       2.828   8.334  17.876  0.00  0.00    +0.000 C 
ATOM     18  C   UNL     1       2.811   7.169  18.819  0.00  0.00    +0.000 A 
ATOM     19  C   UNL     1       3.400   5.954  18.436  0.00  0.00    +0.000 A 
ATOM     20  C   UNL     1       3.107   4.800  19.144  0.00  0.00    +0.000 A 
ATOM     21  C   UNL     1       2.253   4.883  20.256  0.00  0.00    +0.000 A 
ATOM     22  C   UNL     1       1.715   6.121  20.673  0.00  0.00    +0.000 A 
ATOM     23  C   UNL     1       1.969   7.295  19.950  0.00  0.00    +0.000 A 
ATOM     24  C   UNL     1       1.316   8.695  20.226  0.00  0.00    +0.000 C 
ENDBRANCH   7  13
BRANCH   1  25
ATOM     25  O   UNL     1      -2.742  11.178  19.370  0.00  0.00    +0.000 OA
BRANCH  25  26
ATOM     26  C   UNL     1      -3.726  11.734  18.488  0.00  0.00    +0.000 C 
BRANCH  26  27
ATOM     27  C   UNL     1      -4.140  10.772  17.399  0.00  0.00    +0.000 C 
BRANCH  27  29
ATOM     28  C   UNL     1      -3.229  10.664  15.218  0.00  0.00    +0.000 C 
ATOM     29  O   UNL     1      -3.933  11.455  16.160  0.00  0.00    +0.000 OA
ENDBRANCH  27  29
ENDBRANCH  26  27
ENDBRANCH  25  26
ENDBRANCH   1  25
TORSDOF 5
ENDMDL
MODEL 5
REMARK VINA RESULT:      -6.2      1.903      2.663
REMARK  Name = 
REMARK  6 active torsions:
REMARK  status: ('A' for Active; 'I' for Inactive)
REMARK    1  A    between atoms: C_1  and  O_2
REMARK    2  A    between atoms: O_2  and  C_3
REMARK    3  A    between atoms: C_3  and  C_4
REMARK    4  A    between atoms: C_4  and  O_5
REMARK    5  A    between atoms: O_5  and  C_6
REMARK    6  A    between atoms: C_12  and  C_13
REMARK                            x       y       z     vdW  Elec       q    Type
REMARK                         _______ _______ _______ _____ _____    ______ ____
ROOT
ATOM      1  C   UNL     1      -1.113  13.557  23.019  0.00  0.00    +0.000 A 
ATOM      2  C   UNL     1      -1.750  13.866  24.165  0.00  0.00    +0.000 A 
ATOM      3  C   UNL     1      -2.659  15.006  24.276  0.00  0.00    +0.000 A 
ATOM      4  O   UNL     1      -3.277  15.159  25.324  0.00  0.00    +0.000 OA
ATOM      5  N   UNL     1      -2.795  15.784  23.144  0.00  0.00    +0.000 N 
ATOM      6  C   UNL     1      -2.112  15.493  21.933  0.00  0.00    +0.000 A 
ATOM      7  C   UNL     1      -1.249  14.418  21.843  0.00  0.00    +0.000 A 
ATOM      8  C   UNL     1      -2.505  16.412  20.772  0.00  0.00    +0.000 C 
ATOM      9  C   UNL     1      -3.943  16.152  20.297  0.00  0.00    +0.000 C 
ATOM     10  O   UNL     1      -4.915  16.913  21.023  0.00  0.00    +0.000 OA
ATOM     11  C   UNL     1      -5.080  16.490  22.377  0.00  0.00    +0.000 C 
ATOM     12  C   UNL     1      -3.848  16.824  23.221  0.00  0.00    +0.000 C 
ENDROOT
BRANCH   7  13
ATOM     13  C   UNL     1      -0.906  13.926  20.436  0.00  0.00    +0.000 C 
ATOM     14  O   UNL     1       0.102  14.476  19.955  0.00  0.00    +0.000 OA
ATOM     15  N   UNL     1      -1.492  12.892  19.696  0.00  0.00    +0.000 N 
ATOM     16  C   UNL     1      -0.582  12.336  18.682  0.00  0.00    +0.000 C 
ATOM     17  C   UNL     1      -0.761  10.824  18.568  0.00  0.00    +0.000 C 
ATOM     18  C   UNL     1      -2.061  10.681  17.836  0.00  0.00    +0.000 A 
ATOM     19  C   UNL     1      -2.113   9.941  16.645  0.00  0.00    +0.000 A 
ATOM     20  C   UNL     1      -3.205  10.075  15.804  0.00  0.00    +0.000 A 
ATOM     21  C   UNL     1      -4.257  10.925  16.186  0.00  0.00    +0.000 A 
ATOM     22  C   UNL     1      -4.226  11.617  17.416  0.00  0.00    +0.000 A 
ATOM     23  C   UNL     1      -3.114  11.525  18.266  0.00  0.00    +0.000 A 
ATOM     24  C   UNL     1      -2.900  12.354  19.580  0.00  0.00    +0.000 C 
ENDBRANCH   7  13
BRANCH   1  25
ATOM     25  O   UNL     1      -0.408  12.377  22.839  0.00  0.00    +0.000 OA
BRANCH  25  26
ATOM     26  C   UNL     1      -1.256  11.228  22.722  0.00  0.00    +0.000 C 
BRANCH  26  27
ATOM     27  C   UNL     1      -0.634   9.983  23.312  0.00  0.00    +0.000 C 
BRANCH  27  29
ATOM     28  C   UNL     1       1.060   9.300  21.809  0.00  0.00    +0.000 C 
ATOM     29  O   UNL     1       0.756  10.034  22.982  0.00  0.00    +0.000 OA
ENDBRANCH  27  29
ENDBRANCH  26  27
ENDBRANCH  25  26
ENDBRANCH   1  25
TORSDOF 5
ENDMDL
MODEL 6
REMARK VINA RESULT:      -6.2      1.885      2.683
REMARK  Name = 
REMARK  6 active torsions:
REMARK  status: ('A' for Active; 'I' for Inactive)
REMARK    1  A    between atoms: C_1  and  O_2
REMARK    2  A    between atoms: O_2  and  C_3
REMARK    3  A    between atoms: C_3  and  C_4
REMARK    4  A    between atoms: C_4  and  O_5
REMARK    5  A    between atoms: O_5  and  C_6
REMARK    6  A    between atoms: C_12  and  C_13
REMARK                            x       y       z     vdW  Elec       q    Type
REMARK                         _______ _______ _______ _____ _____    ______ ____
ROOT
ATOM      1  C   UNL     1      -2.041  12.231  22.745  0.00  0.00    +0.000 A 
ATOM      2  C   UNL     1      -2.787  12.098  23.858  0.00  0.00    +0.000 A 
ATOM      3  C   UNL     1      -4.077  12.766  24.026  0.00  0.00    +0.000 A 
ATOM      4  O   UNL     1      -4.740  12.512  25.025  0.00  0.00    +0.000 OA
ATOM      5  N   UNL     1      -4.472  13.588  22.988  0.00  0.00    +0.000 N 
ATOM      6  C   UNL     1      -3.688  13.765  21.817  0.00  0.00    +0.000 A 
ATOM      7  C   UNL     1      -2.468  13.135  21.675  0.00  0.00    +0.000 A 
ATOM      8  C   UNL     1      -4.373  14.620  20.746  0.00  0.00    +0.000 C 
ATOM      9  C   UNL     1      -5.574  13.895  20.116  0.00  0.00    +0.000 C 
ATOM     10  O   UNL     1      -6.791  14.105  20.840  0.00  0.00    +0.000 OA
ATOM     11  C   UNL     1      -6.821  13.457  22.112  0.00  0.00    +0.000 C 
ATOM     12  C   UNL     1      -5.852  14.115  23.097  0.00  0.00    +0.000 C 
ENDROOT
BRANCH   7  13
ATOM     13  C   UNL     1      -1.909  13.026  20.255  0.00  0.00    +0.000 C 
ATOM     14  O   UNL     1      -0.956  13.799  20.041  0.00  0.00    +0.000 OA
ATOM     15  N   UNL     1      -2.247  12.122  19.242  0.00  0.00    +0.000 N 
ATOM     16  C   UNL     1      -1.161  11.936  18.264  0.00  0.00    +0.000 C 
ATOM     17  C   UNL     1      -1.089  10.480  17.811  0.00  0.00    +0.000 C 
ATOM     18  C   UNL     1      -2.268  10.340  16.897  0.00  0.00    +0.000 A 
ATOM     19  C   UNL     1      -2.081   9.891  15.580  0.00  0.00    +0.000 A 
ATOM     20  C   UNL     1      -3.089  10.070  14.648  0.00  0.00    +0.000 A 
ATOM     21  C   UNL     1      -4.294  10.665  15.055  0.00  0.00    +0.000 A 
ATOM     22  C   UNL     1      -4.499  11.056  16.397  0.00  0.00    +0.000 A 
ATOM     23  C   UNL     1      -3.479  10.918  17.349  0.00  0.00    +0.000 A 
ATOM     24  C   UNL     1      -3.533  11.445  18.826  0.00  0.00    +0.000 C 
ENDBRANCH   7  13
BRANCH   1  25
ATOM     25  O   UNL     1      -0.920  11.458  22.487  0.00  0.00    +0.000 OA
BRANCH  25  26
ATOM     26  C   UNL     1      -0.884  10.248  23.255  0.00  0.00    +0.000 C 
BRANCH  26  27
ATOM     27  C   UNL     1       0.269   9.349  22.869  0.00  0.00    +0.000 C 
BRANCH  27  29
ATOM     28  C   UNL     1       0.900   9.059  20.608  0.00  0.00    +0.000 C 
ATOM     29  O   UNL     1      -0.071   8.782  21.602  0.00  0.00    +0.000 OA
ENDBRANCH  27  29
ENDBRANCH  26  27
ENDBRANCH  25  26
ENDBRANCH   1  25
TORSDOF 5
ENDMDL
MODEL 7
REMARK VINA RESULT:      -6.1      4.182      6.364
REMARK  Name = 
REMARK  6 active torsions:
REMARK  status: ('A' for Active; 'I' for Inactive)
REMARK    1  A    between atoms: C_1  and  O_2
REMARK    2  A    between atoms: O_2  and  C_3
REMARK    3  A    between atoms: C_3  and  C_4
REMARK    4  A    between atoms: C_4  and  O_5
REMARK    5  A    between atoms: O_5  and  C_6
REMARK    6  A    between atoms: C_12  and  C_13
REMARK                            x       y       z     vdW  Elec       q    Type
REMARK                         _______ _______ _______ _____ _____    ______ ____
ROOT
ATOM      1  C   UNL     1      -2.559  12.098  19.413  0.00  0.00    +0.000 A 
ATOM      2  C   UNL     1      -3.861  12.386  19.605  0.00  0.00    +0.000 A 
ATOM      3  C   UNL     1      -4.404  12.741  20.915  0.00  0.00    +0.000 A 
ATOM      4  O   UNL     1      -5.577  13.087  20.986  0.00  0.00    +0.000 OA
ATOM      5  N   UNL     1      -3.508  12.721  21.966  0.00  0.00    +0.000 N 
ATOM      6  C   UNL     1      -2.137  12.395  21.792  0.00  0.00    +0.000 A 
ATOM      7  C   UNL     1      -1.638  12.053  20.550  0.00  0.00    +0.000 A 
ATOM      8  C   UNL     1      -1.302  12.556  23.067  0.00  0.00    +0.000 C 
ATOM      9  C   UNL     1      -1.143  14.032  23.465  0.00  0.00    +0.000 C 
ATOM     10  O   UNL     1      -2.212  14.503  24.292  0.00  0.00    +0.000 OA
ATOM     11  C   UNL     1      -3.458  14.623  23.604  0.00  0.00    +0.000 C 
ATOM     12  C   UNL     1      -4.032  13.251  23.247  0.00  0.00    +0.000 C 
ENDROOT
BRANCH   7  13
ATOM     13  C   UNL     1      -0.122  12.143  20.367  0.00  0.00    +0.000 C 
ATOM     14  O   UNL     1       0.477  11.107  20.713  0.00  0.00    +0.000 OA
ATOM     15  N   UNL     1       0.635  13.160  19.775  0.00  0.00    +0.000 N 
ATOM     16  C   UNL     1       1.931  12.678  19.268  0.00  0.00    +0.000 C 
ATOM     17  C   UNL     1       2.287  13.371  17.955  0.00  0.00    +0.000 C 
ATOM     18  C   UNL     1       2.689  14.749  18.386  0.00  0.00    +0.000 A 
ATOM     19  C   UNL     1       3.950  15.251  18.030  0.00  0.00    +0.000 A 
ATOM     20  C   UNL     1       4.453  16.363  18.685  0.00  0.00    +0.000 A 
ATOM     21  C   UNL     1       3.666  16.986  19.668  0.00  0.00    +0.000 A 
ATOM     22  C   UNL     1       2.371  16.513  19.975  0.00  0.00    +0.000 A 
ATOM     23  C   UNL     1       1.857  15.368  19.351  0.00  0.00    +0.000 A 
ATOM     24  C   UNL     1       0.502  14.664  19.710  0.00  0.00    +0.000 C 
ENDBRANCH   7  13
BRANCH   1  25
ATOM     25  O   UNL     1      -1.992  11.954  18.156  0.00  0.00    +0.000 OA
BRANCH  25  26
ATOM     26  C   UNL     1      -2.866  11.318  17.215  0.00  0.00    +0.000 C 
BRANCH  26  27
ATOM     27  C   UNL     1      -2.596   9.837  17.080  0.00  0.00    +0.000 C 
BRANCH  27  29
ATOM     28  C   UNL     1      -3.304  10.557  14.940  0.00  0.00    +0.000 C 
ATOM     29  O   UNL     1      -2.641   9.547  15.681  0.00  0.00    +0.000 OA
ENDBRANCH  27  29
ENDBRANCH  26  27
ENDBRANCH  25  26
ENDBRANCH   1  25
TORSDOF 5
ENDMDL
MODEL 8
REMARK VINA RESULT:      -6.1      3.785      5.083
REMARK  Name = 
REMARK  6 active torsions:
REMARK  status: ('A' for Active; 'I' for Inactive)
REMARK    1  A    between atoms: C_1  and  O_2
REMARK    2  A    between atoms: O_2  and  C_3
REMARK    3  A    between atoms: C_3  and  C_4
REMARK    4  A    between atoms: C_4  and  O_5
REMARK    5  A    between atoms: O_5  and  C_6
REMARK    6  A    between atoms: C_12  and  C_13
REMARK                            x       y       z     vdW  Elec       q    Type
REMARK                         _______ _______ _______ _____ _____    ______ ____
ROOT
ATOM      1  C   UNL     1      -1.539  12.945  23.052  0.00  0.00    +0.000 A 
ATOM      2  C   UNL     1      -2.668  12.234  23.239  0.00  0.00    +0.000 A 
ATOM      3  C   UNL     1      -3.959  12.864  23.511  0.00  0.00    +0.000 A 
ATOM      4  O   UNL     1      -4.954  12.152  23.569  0.00  0.00    +0.000 OA
ATOM      5  N   UNL     1      -3.950  14.241  23.614  0.00  0.00    +0.000 N 
ATOM      6  C   UNL     1      -2.767  15.010  23.448  0.00  0.00    +0.000 A 
ATOM      7  C   UNL     1      -1.552  14.402  23.199  0.00  0.00    +0.000 A 
ATOM      8  C   UNL     1      -3.010  16.522  23.480  0.00  0.00    +0.000 C 
ATOM      9  C   UNL     1      -3.779  17.005  22.240  0.00  0.00    +0.000 C 
ATOM     10  O   UNL     1      -5.199  16.931  22.403  0.00  0.00    +0.000 OA
ATOM     11  C   UNL     1      -5.704  15.596  22.433  0.00  0.00    +0.000 C 
ATOM     12  C   UNL     1      -5.287  14.871  23.715  0.00  0.00    +0.000 C 
ENDROOT
BRANCH   7  13
ATOM     13  C   UNL     1      -0.447  15.284  22.614  0.00  0.00    +0.000 C 
ATOM     14  O   UNL     1       0.359  15.693  23.470  0.00  0.00    +0.000 OA
ATOM     15  N   UNL     1      -0.174  15.581  21.274  0.00  0.00    +0.000 N 
ATOM     16  C   UNL     1       1.233  15.957  21.053  0.00  0.00    +0.000 C 
ATOM     17  C   UNL     1       1.737  15.399  19.725  0.00  0.00    +0.000 C 
ATOM     18  C   UNL     1       1.085  16.282  18.705  0.00  0.00    +0.000 A 
ATOM     19  C   UNL     1       1.873  16.965  17.766  0.00  0.00    +0.000 A 
ATOM     20  C   UNL     1       1.326  18.016  17.050  0.00  0.00    +0.000 A 
ATOM     21  C   UNL     1      -0.023  18.350  17.255  0.00  0.00    +0.000 A 
ATOM     22  C   UNL     1      -0.827  17.616  18.155  0.00  0.00    +0.000 A 
ATOM     23  C   UNL     1      -0.286  16.572  18.917  0.00  0.00    +0.000 A 
ATOM     24  C   UNL     1      -1.035  15.785  20.049  0.00  0.00    +0.000 C 
ENDBRANCH   7  13
BRANCH   1  25
ATOM     25  O   UNL     1      -0.355  12.383  22.601  0.00  0.00    +0.000 OA
BRANCH  25  26
ATOM     26  C   UNL     1      -0.478  11.776  21.309  0.00  0.00    +0.000 C 
BRANCH  26  27
ATOM     27  C   UNL     1       0.794  11.093  20.863  0.00  0.00    +0.000 C 
BRANCH  27  29
ATOM     28  C   UNL     1       0.881   9.037  22.030  0.00  0.00    +0.000 C 
ATOM     29  O   UNL     1       1.294  10.392  22.004  0.00  0.00    +0.000 OA
ENDBRANCH  27  29
ENDBRANCH  26  27
ENDBRANCH  25  26
ENDBRANCH   1  25
TORSDOF 5
ENDMDL
MODEL 9
REMARK VINA RESULT:      -6.0      4.130      6.788
REMARK  Name = 
REMARK  6 active torsions:
REMARK  status: ('A' for Active; 'I' for Inactive)
REMARK    1  A    between atoms: C_1  and  O_2
REMARK    2  A    between atoms: O_2  and  C_3
REMARK    3  A    between atoms: C_3  and  C_4
REMARK    4  A    between atoms: C_4  and  O_5
REMARK    5  A    between atoms: O_5  and  C_6
REMARK    6  A    between atoms: C_12  and  C_13
REMARK                            x       y       z     vdW  Elec       q    Type
REMARK                         _______ _______ _______ _____ _____    ______ ____
ROOT
ATOM      1  C   UNL     1      -1.648  12.949  20.574  0.00  0.00    +0.000 A 
ATOM      2  C   UNL     1      -1.748  14.209  21.038  0.00  0.00    +0.000 A 
ATOM      3  C   UNL     1      -0.630  15.150  21.008  0.00  0.00    +0.000 A 
ATOM      4  O   UNL     1      -0.832  16.307  21.356  0.00  0.00    +0.000 OA
ATOM      5  N   UNL     1       0.562  14.657  20.515  0.00  0.00    +0.000 N 
ATOM      6  C   UNL     1       0.699  13.324  20.045  0.00  0.00    +0.000 A 
ATOM      7  C   UNL     1      -0.363  12.442  20.087  0.00  0.00    +0.000 A 
ATOM      8  C   UNL     1       2.070  13.029  19.429  0.00  0.00    +0.000 C 
ATOM      9  C   UNL     1       2.270  13.768  18.096  0.00  0.00    +0.000 C 
ATOM     10  O   UNL     1       2.803  15.086  18.266  0.00  0.00    +0.000 OA
ATOM     11  C   UNL     1       1.884  16.004  18.859  0.00  0.00    +0.000 C 
ATOM     12  C   UNL     1       1.630  15.668  20.330  0.00  0.00    +0.000 C 
ENDROOT
BRANCH   7  13
ATOM     13  C   UNL     1      -0.270  11.207  19.189  0.00  0.00    +0.000 C 
ATOM     14  O   UNL     1      -1.010  11.268  18.190  0.00  0.00    +0.000 OA
ATOM     15  N   UNL     1       0.595  10.111  19.285  0.00  0.00    +0.000 N 
ATOM     16  C   UNL     1       0.798   9.434  17.994  0.00  0.00    +0.000 C 
ATOM     17  C   UNL     1       2.243   8.964  17.853  0.00  0.00    +0.000 C 
ATOM     18  C   UNL     1       2.315   7.777  18.764  0.00  0.00    +0.000 A 
ATOM     19  C   UNL     1       2.736   6.536  18.263  0.00  0.00    +0.000 A 
ATOM     20  C   UNL     1       2.495   5.385  18.995  0.00  0.00    +0.000 A 
ATOM     21  C   UNL     1       1.865   5.495  20.245  0.00  0.00    +0.000 A 
ATOM     22  C   UNL     1       1.501   6.754  20.772  0.00  0.00    +0.000 A 
ATOM     23  C   UNL     1       1.702   7.928  20.033  0.00  0.00    +0.000 A 
ATOM     24  C   UNL     1       1.211   9.360  20.444  0.00  0.00    +0.000 C 
ENDBRANCH   7  13
BRANCH   1  25
ATOM     25  O   UNL     1      -2.741  12.111  20.412  0.00  0.00    +0.000 OA
BRANCH  25  26
ATOM     26  C   UNL     1      -3.930  12.808  20.019  0.00  0.00    +0.000 C 
BRANCH  26  27
ATOM     27  C   UNL     1      -4.831  11.972  19.140  0.00  0.00    +0.000 C 
BRANCH  27  29
ATOM     28  C   UNL     1      -6.014  12.621  17.197  0.00  0.00    +0.000 C 
ATOM     29  O   UNL     1      -5.785  12.872  18.572  0.00  0.00    +0.000 OA
ENDBRANCH  27  29
ENDBRANCH  26  27
ENDBRANCH  25  26
ENDBRANCH   1  25
TORSDOF 5
ENDMDL
