MODEL 1
REMARK VINA RESULT:      -8.3      0.000      0.000
REMARK  Name = 
REMARK  6 active torsions:
REMARK  status: ('A' for Active; 'I' for Inactive)
REMARK    1  A    between atoms: C_2  and  C_14
REMARK    2  A    between atoms: N_3  and  C_4
REMARK    3  A    between atoms: C_4  and  C_5
REMARK    4  A    between atoms: C_5  and  C_6
REMARK    5  A    between atoms: C_6  and  C_7
REMARK    6  A    between atoms: C_19  and  O_20
REMARK                            x       y       z     vdW  Elec       q    Type
REMARK                         _______ _______ _______ _____ _____    ______ ____
ROOT
ATOM      1  O   UNL     1       6.555   6.653  15.931  0.00  0.00    +0.000 OA
ATOM      2  C   UNL     1       6.506   6.660  17.159  0.00  0.00    +0.000 C 
ATOM      3  N   UNL     1       7.263   7.514  17.922  0.00  0.00    +0.000 N 
ATOM      4  H   UNL     1       7.156   7.494  18.937  0.00  0.00    +0.000 HD
ENDROOT
BRANCH   2   5
ATOM      5  C   UNL     1       5.620   5.713  17.914  0.00  0.00    +0.000 A 
ATOM      6  C   UNL     1       4.341   5.614  17.507  0.00  0.00    +0.000 A 
ATOM      7  C   UNL     1       3.423   4.684  18.148  0.00  0.00    +0.000 A 
ATOM      8  C   UNL     1       2.090   4.542  17.747  0.00  0.00    +0.000 A 
ATOM      9  C   UNL     1       1.263   3.605  18.380  0.00  0.00    +0.000 A 
ATOM     10  C   UNL     1       1.772   2.817  19.411  0.00  0.00    +0.000 A 
ATOM     11  C   UNL     1       3.090   2.952  19.824  0.00  0.00    +0.000 A 
ATOM     12  C   UNL     1       3.897   3.888  19.185  0.00  0.00    +0.000 A 
ATOM     13  O   UNL     1       5.224   4.001  19.628  0.00  0.00    +0.000 OA
ATOM     14  C   UNL     1       6.113   4.896  19.046  0.00  0.00    +0.000 A 
ATOM     15  O   UNL     1       7.264   4.989  19.465  0.00  0.00    +0.000 OA
BRANCH  10  16
ATOM     16  O   UNL     1       1.004   1.888  20.046  0.00  0.00    +0.000 OA
ATOM     17  H   UNL     1       0.298   1.594  19.446  0.00  0.00    +0.000 HD
ENDBRANCH  10  16
ENDBRANCH   2   5
BRANCH   3  18
ATOM     18  C   UNL     1       8.198   8.461  17.354  0.00  0.00    +0.000 C 
BRANCH  18  19
ATOM     19  C   UNL     1       8.180   9.798  18.091  0.00  0.00    +0.000 C 
BRANCH  19  20
ATOM     20  C   UNL     1       9.238   9.819  19.196  0.00  0.00    +0.000 C 
BRANCH  20  21
ATOM     21  C   UNL     1      10.052  11.089  19.189  0.00  0.00    +0.000 A 
ATOM     22  C   UNL     1      10.301  11.777  20.385  0.00  0.00    +0.000 A 
ATOM     23  C   UNL     1      11.053  12.955  20.383  0.00  0.00    +0.000 A 
ATOM     24  C   UNL     1      11.568  13.452  19.186  0.00  0.00    +0.000 A 
ATOM     25  C   UNL     1      11.330  12.769  17.996  0.00  0.00    +0.000 A 
ATOM     26 CL   UNL     1      11.965  13.382  16.519  0.00  0.00    +0.000 Cl
ATOM     27  C   UNL     1      10.579  11.592  17.992  0.00  0.00    +0.000 A 
ENDBRANCH  20  21
ENDBRANCH  19  20
ENDBRANCH  18  19
ENDBRANCH   3  18
TORSDOF 6
ENDMDL
MODEL 2
REMARK VINA RESULT:      -8.3      1.286      1.459
REMARK  Name = 
REMARK  6 active torsions:
REMARK  status: ('A' for Active; 'I' for Inactive)
REMARK    1  A    between atoms: C_2  and  C_14
REMARK    2  A    between atoms: N_3  and  C_4
REMARK    3  A    between atoms: C_4  and  C_5
REMARK    4  A    between atoms: C_5  and  C_6
REMARK    5  A    between atoms: C_6  and  C_7
REMARK    6  A    between atoms: C_19  and  O_20
REMARK                            x       y       z     vdW  Elec       q    Type
REMARK                         _______ _______ _______ _____ _____    ______ ____
ROOT
ATOM      1  O   UNL     1       5.967   7.392  16.121  0.00  0.00    +0.000 OA
ATOM      2  C   UNL     1       6.286   6.851  17.177  0.00  0.00    +0.000 C 
ATOM      3  N   UNL     1       7.384   7.240  17.904  0.00  0.00    +0.000 N 
ATOM      4  H   UNL     1       7.581   6.773  18.789  0.00  0.00    +0.000 HD
ENDROOT
BRANCH   2   5
ATOM      5  C   UNL     1       5.498   5.705  17.740  0.00  0.00    +0.000 A 
ATOM      6  C   UNL     1       4.169   5.716  17.536  0.00  0.00    +0.000 A 
ATOM      7  C   UNL     1       3.331   4.621  18.002  0.00  0.00    +0.000 A 
ATOM      8  C   UNL     1       1.947   4.589  17.800  0.00  0.00    +0.000 A 
ATOM      9  C   UNL     1       1.199   3.491  18.241  0.00  0.00    +0.000 A 
ATOM     10  C   UNL     1       1.837   2.431  18.884  0.00  0.00    +0.000 A 
ATOM     11  C   UNL     1       3.208   2.452  19.098  0.00  0.00    +0.000 A 
ATOM     12  C   UNL     1       3.935   3.551  18.654  0.00  0.00    +0.000 A 
ATOM     13  O   UNL     1       5.320   3.542  18.888  0.00  0.00    +0.000 OA
ATOM     14  C   UNL     1       6.136   4.586  18.472  0.00  0.00    +0.000 A 
ATOM     15  O   UNL     1       7.341   4.563  18.705  0.00  0.00    +0.000 OA
BRANCH  10  16
ATOM     16  O   UNL     1       1.146   1.340  19.320  0.00  0.00    +0.000 OA
ATOM     17  H   UNL     1       1.388   0.572  18.779  0.00  0.00    +0.000 HD
ENDBRANCH  10  16
ENDBRANCH   2   5
BRANCH   3  18
ATOM     18  C   UNL     1       8.274   8.301  17.482  0.00  0.00    +0.000 C 
BRANCH  18  19
ATOM     19  C   UNL     1       7.947   9.628  18.161  0.00  0.00    +0.000 C 
BRANCH  19  20
ATOM     20  C   UNL     1       9.151  10.137  18.957  0.00  0.00    +0.000 C 
BRANCH  20  21
ATOM     21  C   UNL     1       9.704  11.426  18.403  0.00  0.00    +0.000 A 
ATOM     22  C   UNL     1      10.998  11.469  17.866  0.00  0.00    +0.000 A 
ATOM     23  C   UNL     1      11.515  12.661  17.353  0.00  0.00    +0.000 A 
ATOM     24  C   UNL     1      10.740  13.820  17.366  0.00  0.00    +0.000 A 
ATOM     25  C   UNL     1       9.450  13.782  17.891  0.00  0.00    +0.000 A 
ATOM     26 CL   UNL     1       8.493  15.212  17.907  0.00  0.00    +0.000 Cl
ATOM     27  C   UNL     1       8.929  12.594  18.406  0.00  0.00    +0.000 A 
ENDBRANCH  20  21
ENDBRANCH  19  20
ENDBRANCH  18  19
ENDBRANCH   3  18
TORSDOF 6
ENDMDL
MODEL 3
REMARK VINA RESULT:      -8.1      0.986      1.837
REMARK  Name = 
REMARK  6 active torsions:
REMARK  status: ('A' for Active; 'I' for Inactive)
REMARK    1  A    between atoms: C_2  and  C_14
REMARK    2  A    between atoms: N_3  and  C_4
REMARK    3  A    between atoms: C_4  and  C_5
REMARK    4  A    between atoms: C_5  and  C_6
REMARK    5  A    between atoms: C_6  and  C_7
REMARK    6  A    between atoms: C_19  and  O_20
REMARK                            x       y       z     vdW  Elec       q    Type
REMARK                         _______ _______ _______ _____ _____    ______ ____
ROOT
ATOM      1  O   UNL     1       7.741   5.872  19.094  0.00  0.00    +0.000 OA
ATOM      2  C   UNL     1       6.909   6.252  18.273  0.00  0.00    +0.000 C 
ATOM      3  N   UNL     1       7.134   7.315  17.433  0.00  0.00    +0.000 N 
ATOM      4  H   UNL     1       6.418   7.565  16.751  0.00  0.00    +0.000 HD
ENDROOT
BRANCH   2   5
ATOM      5  C   UNL     1       5.572   5.585  18.144  0.00  0.00    +0.000 A 
ATOM      6  C   UNL     1       5.272   4.634  19.048  0.00  0.00    +0.000 A 
ATOM      7  C   UNL     1       3.979   3.968  19.032  0.00  0.00    +0.000 A 
ATOM      8  C   UNL     1       3.623   2.985  19.961  0.00  0.00    +0.000 A 
ATOM      9  C   UNL     1       2.350   2.404  19.916  0.00  0.00    +0.000 A 
ATOM     10  C   UNL     1       1.438   2.808  18.942  0.00  0.00    +0.000 A 
ATOM     11  C   UNL     1       1.779   3.777  18.009  0.00  0.00    +0.000 A 
ATOM     12  C   UNL     1       3.048   4.343  18.069  0.00  0.00    +0.000 A 
ATOM     13  O   UNL     1       3.362   5.319  17.109  0.00  0.00    +0.000 OA
ATOM     14  C   UNL     1       4.598   5.953  17.092  0.00  0.00    +0.000 A 
ATOM     15  O   UNL     1       4.854   6.790  16.231  0.00  0.00    +0.000 OA
BRANCH  10  16
ATOM     16  O   UNL     1       0.186   2.275  18.870  0.00  0.00    +0.000 OA
ATOM     17  H   UNL     1      -0.458   2.990  18.745  0.00  0.00    +0.000 HD
ENDBRANCH  10  16
ENDBRANCH   2   5
BRANCH   3  18
ATOM     18  C   UNL     1       8.354   8.094  17.455  0.00  0.00    +0.000 C 
BRANCH  18  19
ATOM     19  C   UNL     1       8.133   9.490  18.032  0.00  0.00    +0.000 C 
BRANCH  19  20
ATOM     20  C   UNL     1       8.991   9.699  19.281  0.00  0.00    +0.000 C 
BRANCH  20  21
ATOM     21  C   UNL     1       9.801  10.970  19.216  0.00  0.00    +0.000 A 
ATOM     22  C   UNL     1      10.173  11.634  20.394  0.00  0.00    +0.000 A 
ATOM     23  C   UNL     1      10.921  12.812  20.338  0.00  0.00    +0.000 A 
ATOM     24  C   UNL     1      11.311  13.334  19.106  0.00  0.00    +0.000 A 
ATOM     25  C   UNL     1      10.950  12.676  17.932  0.00  0.00    +0.000 A 
ATOM     26 CL   UNL     1      11.430  13.320  16.410  0.00  0.00    +0.000 Cl
ATOM     27  C   UNL     1      10.202  11.498  17.982  0.00  0.00    +0.000 A 
ENDBRANCH  20  21
ENDBRANCH  19  20
ENDBRANCH  18  19
ENDBRANCH   3  18
TORSDOF 6
ENDMDL
MODEL 4
REMARK VINA RESULT:      -8.1      1.407      1.591
REMARK  Name = 
REMARK  6 active torsions:
REMARK  status: ('A' for Active; 'I' for Inactive)
REMARK    1  A    between atoms: C_2  and  C_14
REMARK    2  A    between atoms: N_3  and  C_4
REMARK    3  A    between atoms: C_4  and  C_5
REMARK    4  A    between atoms: C_5  and  C_6
REMARK    5  A    between atoms: C_6  and  C_7
REMARK    6  A    between atoms: C_19  and  O_20
REMARK                            x       y       z     vdW  Elec       q    Type
REMARK                         _______ _______ _______ _____ _____    ______ ____
ROOT
ATOM      1  O   UNL     1       5.515   7.162  15.595  0.00  0.00    +0.000 OA
ATOM      2  C   UNL     1       5.703   6.669  16.705  0.00  0.00    +0.000 C 
ATOM      3  N   UNL     1       6.781   7.004  17.487  0.00  0.00    +0.000 N 
ATOM      4  H   UNL     1       6.868   6.584  18.413  0.00  0.00    +0.000 HD
ENDROOT
BRANCH   2   5
ATOM      5  C   UNL     1       4.768   5.646  17.278  0.00  0.00    +0.000 A 
ATOM      6  C   UNL     1       3.921   6.058  18.238  0.00  0.00    +0.000 A 
ATOM      7  C   UNL     1       2.945   5.147  18.816  0.00  0.00    +0.000 A 
ATOM      8  C   UNL     1       2.038   5.539  19.807  0.00  0.00    +0.000 A 
ATOM      9  C   UNL     1       1.099   4.625  20.300  0.00  0.00    +0.000 A 
ATOM     10  C   UNL     1       1.070   3.324  19.802  0.00  0.00    +0.000 A 
ATOM     11  C   UNL     1       1.967   2.918  18.824  0.00  0.00    +0.000 A 
ATOM     12  C   UNL     1       2.894   3.839  18.346  0.00  0.00    +0.000 A 
ATOM     13  O   UNL     1       3.789   3.395  17.359  0.00  0.00    +0.000 OA
ATOM     14  C   UNL     1       4.743   4.241  16.808  0.00  0.00    +0.000 A 
ATOM     15  O   UNL     1       5.527   3.824  15.959  0.00  0.00    +0.000 OA
BRANCH  10  16
ATOM     16  O   UNL     1       0.166   2.408  20.249  0.00  0.00    +0.000 OA
ATOM     17  H   UNL     1       0.623   1.747  20.794  0.00  0.00    +0.000 HD
ENDBRANCH  10  16
ENDBRANCH   2   5
BRANCH   3  18
ATOM     18  C   UNL     1       7.799   7.943  17.067  0.00  0.00    +0.000 C 
BRANCH  18  19
ATOM     19  C   UNL     1       8.440   8.662  18.252  0.00  0.00    +0.000 C 
BRANCH  19  20
ATOM     20  C   UNL     1       8.200  10.170  18.161  0.00  0.00    +0.000 C 
BRANCH  20  21
ATOM     21  C   UNL     1       9.363  10.970  18.691  0.00  0.00    +0.000 A 
ATOM     22  C   UNL     1       9.613  11.030  20.070  0.00  0.00    +0.000 A 
ATOM     23  C   UNL     1      10.689  11.771  20.565  0.00  0.00    +0.000 A 
ATOM     24  C   UNL     1      11.529  12.454  19.687  0.00  0.00    +0.000 A 
ATOM     25  C   UNL     1      11.291  12.392  18.316  0.00  0.00    +0.000 A 
ATOM     26 CL   UNL     1      12.328  13.235  17.231  0.00  0.00    +0.000 Cl
ATOM     27  C   UNL     1      10.217  11.654  17.815  0.00  0.00    +0.000 A 
ENDBRANCH  20  21
ENDBRANCH  19  20
ENDBRANCH  18  19
ENDBRANCH   3  18
TORSDOF 6
ENDMDL
MODEL 5
REMARK VINA RESULT:      -8.0      1.596      2.338
REMARK  Name = 
REMARK  6 active torsions:
REMARK  status: ('A' for Active; 'I' for Inactive)
REMARK    1  A    between atoms: C_2  and  C_14
REMARK    2  A    between atoms: N_3  and  C_4
REMARK    3  A    between atoms: C_4  and  C_5
REMARK    4  A    between atoms: C_5  and  C_6
REMARK    5  A    between atoms: C_6  and  C_7
REMARK    6  A    between atoms: C_19  and  O_20
REMARK                            x       y       z     vdW  Elec       q    Type
REMARK                         _______ _______ _______ _____ _____    ______ ____
ROOT
ATOM      1  O   UNL     1       8.194   6.445  18.894  0.00  0.00    +0.000 OA
ATOM      2  C   UNL     1       7.334   6.696  18.052  0.00  0.00    +0.000 C 
ATOM      3  N   UNL     1       7.390   7.809  17.250  0.00  0.00    +0.000 N 
ATOM      4  H   UNL     1       6.662   7.949  16.549  0.00  0.00    +0.000 HD
ENDROOT
BRANCH   2   5
ATOM      5  C   UNL     1       6.143   5.805  17.858  0.00  0.00    +0.000 A 
ATOM      6  C   UNL     1       5.912   4.876  18.803  0.00  0.00    +0.000 A 
ATOM      7  C   UNL     1       4.752   4.000  18.723  0.00  0.00    +0.000 A 
ATOM      8  C   UNL     1       4.469   3.031  19.691  0.00  0.00    +0.000 A 
ATOM      9  C   UNL     1       3.319   2.240  19.577  0.00  0.00    +0.000 A 
ATOM     10  C   UNL     1       2.457   2.422  18.496  0.00  0.00    +0.000 A 
ATOM     11  C   UNL     1       2.728   3.375  17.524  0.00  0.00    +0.000 A 
ATOM     12  C   UNL     1       3.876   4.150  17.653  0.00  0.00    +0.000 A 
ATOM     13  O   UNL     1       4.122   5.103  16.652  0.00  0.00    +0.000 OA
ATOM     14  C   UNL     1       5.234   5.935  16.696  0.00  0.00    +0.000 A 
ATOM     15  O   UNL     1       5.437   6.749  15.798  0.00  0.00    +0.000 OA
BRANCH  10  16
ATOM     16  O   UNL     1       1.323   1.680  18.354  0.00  0.00    +0.000 OA
ATOM     17  H   UNL     1       1.566   0.759  18.169  0.00  0.00    +0.000 HD
ENDBRANCH  10  16
ENDBRANCH   2   5
BRANCH   3  18
ATOM     18  C   UNL     1       8.448   8.792  17.338  0.00  0.00    +0.000 C 
BRANCH  18  19
ATOM     19  C   UNL     1       8.094   9.933  18.289  0.00  0.00    +0.000 C 
BRANCH  19  20
ATOM     20  C   UNL     1       9.334  10.401  19.053  0.00  0.00    +0.000 C 
BRANCH  20  21
ATOM     21  C   UNL     1       9.930  11.657  18.468  0.00  0.00    +0.000 A 
ATOM     22  C   UNL     1      11.227  11.643  17.933  0.00  0.00    +0.000 A 
ATOM     23  C   UNL     1      11.784  12.803  17.391  0.00  0.00    +0.000 A 
ATOM     24  C   UNL     1      11.048  13.987  17.372  0.00  0.00    +0.000 A 
ATOM     25  C   UNL     1       9.756  14.006  17.894  0.00  0.00    +0.000 A 
ATOM     26 CL   UNL     1       8.847  15.467  17.870  0.00  0.00    +0.000 Cl
ATOM     27  C   UNL     1       9.195  12.849  18.437  0.00  0.00    +0.000 A 
ENDBRANCH  20  21
ENDBRANCH  19  20
ENDBRANCH  18  19
ENDBRANCH   3  18
TORSDOF 6
ENDMDL
MODEL 6
REMARK VINA RESULT:      -7.9      6.230      9.167
REMARK  Name = 
REMARK  6 active torsions:
REMARK  status: ('A' for Active; 'I' for Inactive)
REMARK    1  A    between atoms: C_2  and  C_14
REMARK    2  A    between atoms: N_3  and  C_4
REMARK    3  A    between atoms: C_4  and  C_5
REMARK    4  A    between atoms: C_5  and  C_6
REMARK    5  A    between atoms: C_6  and  C_7
REMARK    6  A    between atoms: C_19  and  O_20
REMARK                            x       y       z     vdW  Elec       q    Type
REMARK                         _______ _______ _______ _____ _____    ______ ____
ROOT
ATOM      1  O   UNL     1       1.415   7.872  21.521  0.00  0.00    +0.000 OA
ATOM      2  C   UNL     1       1.682   8.002  20.328  0.00  0.00    +0.000 C 
ATOM      3  N   UNL     1       1.373   9.140  19.623  0.00  0.00    +0.000 N 
ATOM      4  H   UNL     1       1.646   9.202  18.643  0.00  0.00    +0.000 HD
ENDROOT
BRANCH   2   5
ATOM      5  C   UNL     1       2.353   6.909  19.550  0.00  0.00    +0.000 A 
ATOM      6  C   UNL     1       3.117   7.280  18.507  0.00  0.00    +0.000 A 
ATOM      7  C   UNL     1       3.845   6.292  17.726  0.00  0.00    +0.000 A 
ATOM      8  C   UNL     1       4.660   6.637  16.642  0.00  0.00    +0.000 A 
ATOM      9  C   UNL     1       5.364   5.644  15.949  0.00  0.00    +0.000 A 
ATOM     10  C   UNL     1       5.250   4.311  16.343  0.00  0.00    +0.000 A 
ATOM     11  C   UNL     1       4.441   3.953  17.411  0.00  0.00    +0.000 A 
ATOM     12  C   UNL     1       3.748   4.952  18.087  0.00  0.00    +0.000 A 
ATOM     13  O   UNL     1       2.936   4.556  19.162  0.00  0.00    +0.000 OA
ATOM     14  C   UNL     1       2.214   5.479  19.908  0.00  0.00    +0.000 A 
ATOM     15  O   UNL     1       1.497   5.105  20.833  0.00  0.00    +0.000 OA
BRANCH  10  16
ATOM     16  O   UNL     1       5.926   3.317  15.702  0.00  0.00    +0.000 OA
ATOM     17  H   UNL     1       6.831   3.615  15.514  0.00  0.00    +0.000 HD
ENDBRANCH  10  16
ENDBRANCH   2   5
BRANCH   3  18
ATOM     18  C   UNL     1       0.688  10.271  20.212  0.00  0.00    +0.000 C 
BRANCH  18  19
ATOM     19  C   UNL     1      -0.724  10.439  19.656  0.00  0.00    +0.000 C 
BRANCH  19  20
ATOM     20  C   UNL     1      -0.772  10.043  18.179  0.00  0.00    +0.000 C 
BRANCH  20  21
ATOM     21  C   UNL     1      -2.064  10.452  17.516  0.00  0.00    +0.000 A 
ATOM     22  C   UNL     1      -3.025  11.184  18.228  0.00  0.00    +0.000 A 
ATOM     23  C   UNL     1      -4.224  11.563  17.618  0.00  0.00    +0.000 A 
ATOM     24  C   UNL     1      -4.470  11.220  16.290  0.00  0.00    +0.000 A 
ATOM     25  C   UNL     1      -3.516  10.498  15.575  0.00  0.00    +0.000 A 
ATOM     26 CL   UNL     1      -3.820  10.074  13.935  0.00  0.00    +0.000 Cl
ATOM     27  C   UNL     1      -2.317  10.117  16.179  0.00  0.00    +0.000 A 
ENDBRANCH  20  21
ENDBRANCH  19  20
ENDBRANCH  18  19
ENDBRANCH   3  18
TORSDOF 6
ENDMDL
MODEL 7
REMARK VINA RESULT:      -7.9      1.800      2.109
REMARK  Name = 
REMARK  6 active torsions:
REMARK  status: ('A' for Active; 'I' for Inactive)
REMARK    1  A    between atoms: C_2  and  C_14
REMARK    2  A    between atoms: N_3  and  C_4
REMARK    3  A    between atoms: C_4  and  C_5
REMARK    4  A    between atoms: C_5  and  C_6
REMARK    5  A    between atoms: C_6  and  C_7
REMARK    6  A    between atoms: C_19  and  O_20
REMARK                            x       y       z     vdW  Elec       q    Type
REMARK                         _______ _______ _______ _____ _____    ______ ____
ROOT
ATOM      1  O   UNL     1       6.113   7.536  16.221  0.00  0.00    +0.000 OA
ATOM      2  C   UNL     1       6.405   6.982  17.279  0.00  0.00    +0.000 C 
ATOM      3  N   UNL     1       7.457   7.392  18.060  0.00  0.00    +0.000 N 
ATOM      4  H   UNL     1       7.632   6.912  18.943  0.00  0.00    +0.000 HD
ENDROOT
BRANCH   2   5
ATOM      5  C   UNL     1       5.634   5.797  17.782  0.00  0.00    +0.000 A 
ATOM      6  C   UNL     1       4.295   5.839  17.657  0.00  0.00    +0.000 A 
ATOM      7  C   UNL     1       3.471   4.714  18.071  0.00  0.00    +0.000 A 
ATOM      8  C   UNL     1       2.077   4.712  17.946  0.00  0.00    +0.000 A 
ATOM      9  C   UNL     1       1.339   3.586  18.331  0.00  0.00    +0.000 A 
ATOM     10  C   UNL     1       1.998   2.467  18.841  0.00  0.00    +0.000 A 
ATOM     11  C   UNL     1       3.378   2.457  18.978  0.00  0.00    +0.000 A 
ATOM     12  C   UNL     1       4.095   3.585  18.591  0.00  0.00    +0.000 A 
ATOM     13  O   UNL     1       5.490   3.543  18.744  0.00  0.00    +0.000 OA
ATOM     14  C   UNL     1       6.296   4.613  18.375  0.00  0.00    +0.000 A 
ATOM     15  O   UNL     1       7.512   4.558  18.537  0.00  0.00    +0.000 OA
BRANCH  10  16
ATOM     16  O   UNL     1       1.317   1.349  19.218  0.00  0.00    +0.000 OA
ATOM     17  H   UNL     1       1.944   0.614  19.320  0.00  0.00    +0.000 HD
ENDBRANCH  10  16
ENDBRANCH   2   5
BRANCH   3  18
ATOM     18  C   UNL     1       8.326   8.491  17.699  0.00  0.00    +0.000 C 
BRANCH  18  19
ATOM     19  C   UNL     1       8.648   9.384  18.895  0.00  0.00    +0.000 C 
BRANCH  19  20
ATOM     20  C   UNL     1       9.544  10.550  18.471  0.00  0.00    +0.000 C 
BRANCH  20  21
ATOM     21  C   UNL     1       9.661  11.604  19.543  0.00  0.00    +0.000 A 
ATOM     22  C   UNL     1      10.294  12.825  19.270  0.00  0.00    +0.000 A 
ATOM     23  C   UNL     1      10.406  13.804  20.260  0.00  0.00    +0.000 A 
ATOM     24  C   UNL     1       9.880  13.575  21.530  0.00  0.00    +0.000 A 
ATOM     25  C   UNL     1       9.243  12.367  21.806  0.00  0.00    +0.000 A 
ATOM     26 CL   UNL     1       8.593  12.084  23.374  0.00  0.00    +0.000 Cl
ATOM     27  C   UNL     1       9.129  11.385  20.821  0.00  0.00    +0.000 A 
ENDBRANCH  20  21
ENDBRANCH  19  20
ENDBRANCH  18  19
ENDBRANCH   3  18
TORSDOF 6
ENDMDL
MODEL 8
REMARK VINA RESULT:      -7.9      4.125      6.203
REMARK  Name = 
REMARK  6 active torsions:
REMARK  status: ('A' for Active; 'I' for Inactive)
REMARK    1  A    between atoms: C_2  and  C_14
REMARK    2  A    between atoms: N_3  and  C_4
REMARK    3  A    between atoms: C_4  and  C_5
REMARK    4  A    between atoms: C_5  and  C_6
REMARK    5  A    between atoms: C_6  and  C_7
REMARK    6  A    between atoms: C_19  and  O_20
REMARK                            x       y       z     vdW  Elec       q    Type
REMARK                         _______ _______ _______ _____ _____    ______ ____
ROOT
ATOM      1  O   UNL     1       1.895   4.170  17.444  0.00  0.00    +0.000 OA
ATOM      2  C   UNL     1       2.717   4.990  17.848  0.00  0.00    +0.000 C 
ATOM      3  N   UNL     1       4.043   4.940  17.494  0.00  0.00    +0.000 N 
ATOM      4  H   UNL     1       4.673   5.665  17.837  0.00  0.00    +0.000 HD
ENDROOT
BRANCH   2   5
ATOM      5  C   UNL     1       2.327   6.098  18.780  0.00  0.00    +0.000 A 
ATOM      6  C   UNL     1       2.148   7.318  18.241  0.00  0.00    +0.000 A 
ATOM      7  C   UNL     1       1.720   8.442  19.060  0.00  0.00    +0.000 A 
ATOM      8  C   UNL     1       1.510   9.722  18.535  0.00  0.00    +0.000 A 
ATOM      9  C   UNL     1       1.065  10.757  19.368  0.00  0.00    +0.000 A 
ATOM     10  C   UNL     1       0.833  10.508  20.720  0.00  0.00    +0.000 A 
ATOM     11  C   UNL     1       1.044   9.245  21.255  0.00  0.00    +0.000 A 
ATOM     12  C   UNL     1       1.487   8.229  20.414  0.00  0.00    +0.000 A 
ATOM     13  O   UNL     1       1.692   6.964  20.988  0.00  0.00    +0.000 OA
ATOM     14  C   UNL     1       2.120   5.882  20.230  0.00  0.00    +0.000 A 
ATOM     15  O   UNL     1       2.310   4.790  20.760  0.00  0.00    +0.000 OA
BRANCH  10  16
ATOM     16  O   UNL     1       0.391  11.485  21.560  0.00  0.00    +0.000 OA
ATOM     17  H   UNL     1       0.906  12.294  21.408  0.00  0.00    +0.000 HD
ENDBRANCH  10  16
ENDBRANCH   2   5
BRANCH   3  18
ATOM     18  C   UNL     1       4.593   3.911  16.637  0.00  0.00    +0.000 C 
BRANCH  18  19
ATOM     19  C   UNL     1       5.205   4.492  15.365  0.00  0.00    +0.000 C 
BRANCH  19  20
ATOM     20  C   UNL     1       6.731   4.529  15.470  0.00  0.00    +0.000 C 
BRANCH  20  21
ATOM     21  C   UNL     1       7.205   5.293  16.681  0.00  0.00    +0.000 A 
ATOM     22  C   UNL     1       7.590   4.610  17.843  0.00  0.00    +0.000 A 
ATOM     23  C   UNL     1       8.029   5.314  18.967  0.00  0.00    +0.000 A 
ATOM     24  C   UNL     1       8.094   6.706  18.938  0.00  0.00    +0.000 A 
ATOM     25  C   UNL     1       7.720   7.390  17.783  0.00  0.00    +0.000 A 
ATOM     26 CL   UNL     1       7.801   9.109  17.746  0.00  0.00    +0.000 Cl
ATOM     27  C   UNL     1       7.281   6.692  16.657  0.00  0.00    +0.000 A 
ENDBRANCH  20  21
ENDBRANCH  19  20
ENDBRANCH  18  19
ENDBRANCH   3  18
TORSDOF 6
ENDMDL
MODEL 9
REMARK VINA RESULT:      -7.9      5.930      8.915
REMARK  Name = 
REMARK  6 active torsions:
REMARK  status: ('A' for Active; 'I' for Inactive)
REMARK    1  A    between atoms: C_2  and  C_14
REMARK    2  A    between atoms: N_3  and  C_4
REMARK    3  A    between atoms: C_4  and  C_5
REMARK    4  A    between atoms: C_5  and  C_6
REMARK    5  A    between atoms: C_6  and  C_7
REMARK    6  A    between atoms: C_19  and  O_20
REMARK                            x       y       z     vdW  Elec       q    Type
REMARK                         _______ _______ _______ _____ _____    ______ ____
ROOT
ATOM      1  O   UNL     1       2.263   5.936  18.833  0.00  0.00    +0.000 OA
ATOM      2  C   UNL     1       2.572   7.106  18.620  0.00  0.00    +0.000 C 
ATOM      3  N   UNL     1       3.625   7.455  17.811  0.00  0.00    +0.000 N 
ATOM      4  H   UNL     1       3.814   8.444  17.646  0.00  0.00    +0.000 HD
ENDROOT
BRANCH   2   5
ATOM      5  C   UNL     1       1.822   8.242  19.250  0.00  0.00    +0.000 A 
ATOM      6  C   UNL     1       1.354   8.051  20.497  0.00  0.00    +0.000 A 
ATOM      7  C   UNL     1       0.659   9.115  21.206  0.00  0.00    +0.000 A 
ATOM      8  C   UNL     1       0.168   8.960  22.507  0.00  0.00    +0.000 A 
ATOM      9  C   UNL     1      -0.463  10.032  23.151  0.00  0.00    +0.000 A 
ATOM     10  C   UNL     1      -0.601  11.253  22.491  0.00  0.00    +0.000 A 
ATOM     11  C   UNL     1      -0.125  11.419  21.198  0.00  0.00    +0.000 A 
ATOM     12  C   UNL     1       0.498  10.343  20.574  0.00  0.00    +0.000 A 
ATOM     13  O   UNL     1       0.966  10.544  19.265  0.00  0.00    +0.000 OA
ATOM     14  C   UNL     1       1.613   9.536  18.560  0.00  0.00    +0.000 A 
ATOM     15  O   UNL     1       1.997   9.731  17.410  0.00  0.00    +0.000 OA
BRANCH  10  16
ATOM     16  O   UNL     1      -1.199  12.323  23.086  0.00  0.00    +0.000 OA
ATOM     17  H   UNL     1      -1.746  12.787  22.432  0.00  0.00    +0.000 HD
ENDBRANCH  10  16
ENDBRANCH   2   5
BRANCH   3  18
ATOM     18  C   UNL     1       4.475   6.482  17.159  0.00  0.00    +0.000 C 
BRANCH  18  19
ATOM     19  C   UNL     1       5.518   5.903  18.112  0.00  0.00    +0.000 C 
BRANCH  19  20
ATOM     20  C   UNL     1       5.684   4.400  17.879  0.00  0.00    +0.000 C 
BRANCH  20  21
ATOM     21  C   UNL     1       4.465   3.616  18.297  0.00  0.00    +0.000 A 
ATOM     22  C   UNL     1       3.643   3.017  17.331  0.00  0.00    +0.000 A 
ATOM     23  C   UNL     1       2.513   2.291  17.713  0.00  0.00    +0.000 A 
ATOM     24  C   UNL     1       2.196   2.151  19.064  0.00  0.00    +0.000 A 
ATOM     25  C   UNL     1       3.013   2.737  20.028  0.00  0.00    +0.000 A 
ATOM     26 CL   UNL     1       2.623   2.565  21.695  0.00  0.00    +0.000 Cl
ATOM     27  C   UNL     1       4.144   3.464  19.652  0.00  0.00    +0.000 A 
ENDBRANCH  20  21
ENDBRANCH  19  20
ENDBRANCH  18  19
ENDBRANCH   3  18
TORSDOF 6
ENDMDL
