MODEL 1
REMARK VINA RESULT:      -9.3      0.000      0.000
REMARK  Name = 
REMARK  6 active torsions:
REMARK  status: ('A' for Active; 'I' for Inactive)
REMARK    1  A    between atoms: C_6  and  N_7
REMARK    2  A    between atoms: C_12  and  N_13
REMARK    3  A    between atoms: C_15  and  C_16
REMARK    4  A    between atoms: N_18  and  C_19
REMARK    5  A    between atoms: C_19  and  C_20
REMARK    6  A    between atoms: C_25  and  O_26
REMARK                            x       y       z     vdW  Elec       q    Type
REMARK                         _______ _______ _______ _____ _____    ______ ____
ROOT
ATOM      1  N   UNL     1       8.916   8.875  19.020  0.00  0.00    +0.000 N 
ATOM      2  C   UNL     1       8.083   8.351  18.047  0.00  0.00    +0.000 C 
ATOM      3  O   UNL     1       7.713   8.963  17.050  0.00  0.00    +0.000 OA
ATOM      4  N   UNL     1       7.705   7.039  18.224  0.00  0.00    +0.000 N 
ATOM      5  C   UNL     1       8.132   6.098  19.248  0.00  0.00    +0.000 C 
ATOM      6  C   UNL     1       7.320   4.818  18.978  0.00  0.00    +0.000 C 
ATOM      7  C   UNL     1       7.114   4.900  17.462  0.00  0.00    +0.000 C 
ATOM      8  C   UNL     1       6.847   6.387  17.217  0.00  0.00    +0.000 C 
ATOM      9  H   UNL     1       9.432   8.245  19.610  0.00  0.00    +0.000 HD
ENDROOT
BRANCH   1  15
ATOM     10  N   UNL     1      11.612  12.600  16.694  0.00  0.00    +0.000 N 
ATOM     11  C   UNL     1      10.768  13.174  17.604  0.00  0.00    +0.000 C 
ATOM     12  O   UNL     1      10.620  14.373  17.781  0.00  0.00    +0.000 OA
ATOM     13  N   UNL     1      10.108  12.211  18.399  0.00  0.00    +0.000 N 
ATOM     14  C   UNL     1       9.778  10.931  18.000  0.00  0.00    +0.000 A 
ATOM     15  C   UNL     1       9.283  10.217  19.062  0.00  0.00    +0.000 A 
ATOM     16  C   UNL     1       9.215  11.125  20.165  0.00  0.00    +0.000 A 
ATOM     17  C   UNL     1       8.813  11.012  21.516  0.00  0.00    +0.000 A 
ATOM     18  C   UNL     1       8.942  12.111  22.379  0.00  0.00    +0.000 A 
ATOM     19  C   UNL     1       9.449  13.320  21.918  0.00  0.00    +0.000 A 
ATOM     20  C   UNL     1       9.835  13.468  20.586  0.00  0.00    +0.000 A 
ATOM     21  C   UNL     1       9.713  12.361  19.725  0.00  0.00    +0.000 A 
ATOM     22  H   UNL     1      12.227  13.222  16.191  0.00  0.00    +0.000 HD
ATOM     23  H   UNL     1      11.917  11.638  16.801  0.00  0.00    +0.000 HD
ENDBRANCH   1  15
BRANCH   8  24
ATOM     24  C   UNL     1       5.352   6.785  17.398  0.00  0.00    +0.000 C 
ATOM     25  O   UNL     1       4.980   7.949  17.519  0.00  0.00    +0.000 OA
ATOM     26  N   UNL     1       4.459   5.732  17.419  0.00  0.00    +0.000 N 
ATOM     27  H   UNL     1       4.758   4.796  17.190  0.00  0.00    +0.000 HD
BRANCH  26  28
ATOM     28  C   UNL     1       3.034   5.944  17.586  0.00  0.00    +0.000 C 
BRANCH  28  29
ATOM     29  C   UNL     1       2.371   4.883  18.435  0.00  0.00    +0.000 A 
ATOM     30  C   UNL     1       1.678   3.802  17.862  0.00  0.00    +0.000 A 
ATOM     31  C   UNL     1       1.114   2.808  18.662  0.00  0.00    +0.000 A 
ATOM     32  C   UNL     1       1.249   2.861  20.048  0.00  0.00    +0.000 A 
ATOM     33  C   UNL     1       1.961   3.905  20.634  0.00  0.00    +0.000 A 
ATOM     34  C   UNL     1       2.519   4.899  19.828  0.00  0.00    +0.000 A 
BRANCH  34  35
ATOM     35  O   UNL     1       3.242   5.910  20.400  0.00  0.00    +0.000 OA
ATOM     36  H   UNL     1       2.682   6.369  21.048  0.00  0.00    +0.000 HD
ENDBRANCH  34  35
ENDBRANCH  28  29
ENDBRANCH  26  28
ENDBRANCH   8  24
BRANCH   6  37
ATOM     37  N   UNL     1       6.033   4.780  19.680  0.00  0.00    +0.000 NA
ATOM     38  H   UNL     1       6.160   5.005  20.673  0.00  0.00    +0.000 HD
ATOM     39  H   UNL     1       5.671   3.827  19.688  0.00  0.00    +0.000 HD
ENDBRANCH   6  37
TORSDOF 6
ENDMDL
MODEL 2
REMARK VINA RESULT:      -9.2      0.824      1.162
REMARK  Name = 
REMARK  6 active torsions:
REMARK  status: ('A' for Active; 'I' for Inactive)
REMARK    1  A    between atoms: C_6  and  N_7
REMARK    2  A    between atoms: C_12  and  N_13
REMARK    3  A    between atoms: C_15  and  C_16
REMARK    4  A    between atoms: N_18  and  C_19
REMARK    5  A    between atoms: C_19  and  C_20
REMARK    6  A    between atoms: C_25  and  O_26
REMARK                            x       y       z     vdW  Elec       q    Type
REMARK                         _______ _______ _______ _____ _____    ______ ____
ROOT
ATOM      1  N   UNL     1       8.910   8.846  18.994  0.00  0.00    +0.000 N 
ATOM      2  C   UNL     1       8.058   8.326  18.036  0.00  0.00    +0.000 C 
ATOM      3  O   UNL     1       7.662   8.944  17.052  0.00  0.00    +0.000 OA
ATOM      4  N   UNL     1       7.690   7.010  18.211  0.00  0.00    +0.000 N 
ATOM      5  C   UNL     1       8.145   6.064  19.218  0.00  0.00    +0.000 C 
ATOM      6  C   UNL     1       7.333   4.782  18.956  0.00  0.00    +0.000 C 
ATOM      7  C   UNL     1       7.093   4.875  17.446  0.00  0.00    +0.000 C 
ATOM      8  C   UNL     1       6.813   6.362  17.219  0.00  0.00    +0.000 C 
ATOM      9  H   UNL     1       9.442   8.214  19.568  0.00  0.00    +0.000 HD
ENDROOT
BRANCH   1  15
ATOM     10  N   UNL     1      11.591  12.587  16.674  0.00  0.00    +0.000 N 
ATOM     11  C   UNL     1      10.745  13.156  17.586  0.00  0.00    +0.000 C 
ATOM     12  O   UNL     1      10.592  14.354  17.765  0.00  0.00    +0.000 OA
ATOM     13  N   UNL     1      10.088  12.189  18.379  0.00  0.00    +0.000 N 
ATOM     14  C   UNL     1       9.764  10.908  17.978  0.00  0.00    +0.000 A 
ATOM     15  C   UNL     1       9.272  10.190  19.039  0.00  0.00    +0.000 A 
ATOM     16  C   UNL     1       9.200  11.096  20.144  0.00  0.00    +0.000 A 
ATOM     17  C   UNL     1       8.799  10.979  21.494  0.00  0.00    +0.000 A 
ATOM     18  C   UNL     1       8.923  12.077  22.358  0.00  0.00    +0.000 A 
ATOM     19  C   UNL     1       9.426  13.289  21.900  0.00  0.00    +0.000 A 
ATOM     20  C   UNL     1       9.811  13.440  20.568  0.00  0.00    +0.000 A 
ATOM     21  C   UNL     1       9.693  12.335  19.705  0.00  0.00    +0.000 A 
ATOM     22  H   UNL     1      12.203  13.212  16.173  0.00  0.00    +0.000 HD
ATOM     23  H   UNL     1      11.900  11.626  16.780  0.00  0.00    +0.000 HD
ENDBRANCH   1  15
BRANCH   8  24
ATOM     24  C   UNL     1       5.321   6.751  17.437  0.00  0.00    +0.000 C 
ATOM     25  O   UNL     1       4.944   7.913  17.563  0.00  0.00    +0.000 OA
ATOM     26  N   UNL     1       4.435   5.693  17.486  0.00  0.00    +0.000 N 
ATOM     27  H   UNL     1       4.734   4.758  17.253  0.00  0.00    +0.000 HD
BRANCH  26  28
ATOM     28  C   UNL     1       3.014   5.897  17.689  0.00  0.00    +0.000 C 
BRANCH  28  29
ATOM     29  C   UNL     1       2.395   4.880  18.622  0.00  0.00    +0.000 A 
ATOM     30  C   UNL     1       2.088   5.192  19.957  0.00  0.00    +0.000 A 
ATOM     31  C   UNL     1       1.473   4.254  20.788  0.00  0.00    +0.000 A 
ATOM     32  C   UNL     1       1.132   2.995  20.295  0.00  0.00    +0.000 A 
ATOM     33  C   UNL     1       1.398   2.678  18.965  0.00  0.00    +0.000 A 
ATOM     34  C   UNL     1       2.017   3.620  18.140  0.00  0.00    +0.000 A 
BRANCH  34  35
ATOM     35  O   UNL     1       2.252   3.320  16.826  0.00  0.00    +0.000 OA
ATOM     36  H   UNL     1       2.547   2.396  16.763  0.00  0.00    +0.000 HD
ENDBRANCH  34  35
ENDBRANCH  28  29
ENDBRANCH  26  28
ENDBRANCH   8  24
BRANCH   6  37
ATOM     37  N   UNL     1       6.062   4.733  19.687  0.00  0.00    +0.000 NA
ATOM     38  H   UNL     1       5.960   5.561  20.285  0.00  0.00    +0.000 HD
ATOM     39  H   UNL     1       6.072   3.954  20.346  0.00  0.00    +0.000 HD
ENDBRANCH   6  37
TORSDOF 6
ENDMDL
MODEL 3
REMARK VINA RESULT:      -8.8      5.657      9.939
REMARK  Name = 
REMARK  6 active torsions:
REMARK  status: ('A' for Active; 'I' for Inactive)
REMARK    1  A    between atoms: C_6  and  N_7
REMARK    2  A    between atoms: C_12  and  N_13
REMARK    3  A    between atoms: C_15  and  C_16
REMARK    4  A    between atoms: N_18  and  C_19
REMARK    5  A    between atoms: C_19  and  C_20
REMARK    6  A    between atoms: C_25  and  O_26
REMARK                            x       y       z     vdW  Elec       q    Type
REMARK                         _______ _______ _______ _____ _____    ______ ____
ROOT
ATOM      1  N   UNL     1       1.992   7.566  19.037  0.00  0.00    +0.000 N 
ATOM      2  C   UNL     1       1.668   8.769  18.437  0.00  0.00    +0.000 C 
ATOM      3  O   UNL     1       1.877   9.033  17.257  0.00  0.00    +0.000 OA
ATOM      4  N   UNL     1       1.027   9.686  19.240  0.00  0.00    +0.000 N 
ATOM      5  C   UNL     1       0.565   9.531  20.611  0.00  0.00    +0.000 C 
ATOM      6  C   UNL     1      -0.003  10.908  20.999  0.00  0.00    +0.000 C 
ATOM      7  C   UNL     1      -0.484  11.434  19.643  0.00  0.00    +0.000 C 
ATOM      8  C   UNL     1       0.611  10.983  18.675  0.00  0.00    +0.000 C 
ATOM      9  H   UNL     1       1.513   7.296  19.879  0.00  0.00    +0.000 HD
ENDROOT
BRANCH   1  15
ATOM     10  N   UNL     1       5.717   6.660  15.592  0.00  0.00    +0.000 N 
ATOM     11  C   UNL     1       5.514   5.524  16.325  0.00  0.00    +0.000 C 
ATOM     12  O   UNL     1       6.159   4.492  16.234  0.00  0.00    +0.000 OA
ATOM     13  N   UNL     1       4.398   5.637  17.185  0.00  0.00    +0.000 N 
ATOM     14  C   UNL     1       3.941   6.808  17.755  0.00  0.00    +0.000 A 
ATOM     15  C   UNL     1       2.755   6.584  18.409  0.00  0.00    +0.000 A 
ATOM     16  C   UNL     1       2.501   5.179  18.320  0.00  0.00    +0.000 A 
ATOM     17  C   UNL     1       1.463   4.332  18.769  0.00  0.00    +0.000 A 
ATOM     18  C   UNL     1       1.484   2.967  18.443  0.00  0.00    +0.000 A 
ATOM     19  C   UNL     1       2.523   2.432  17.692  0.00  0.00    +0.000 A 
ATOM     20  C   UNL     1       3.571   3.239  17.252  0.00  0.00    +0.000 A 
ATOM     21  C   UNL     1       3.544   4.609  17.574  0.00  0.00    +0.000 A 
ATOM     22  H   UNL     1       6.400   6.606  14.853  0.00  0.00    +0.000 HD
ATOM     23  H   UNL     1       4.981   7.352  15.489  0.00  0.00    +0.000 HD
ENDBRANCH   1  15
BRANCH   8  24
ATOM     24  C   UNL     1       1.808  11.977  18.587  0.00  0.00    +0.000 C 
ATOM     25  O   UNL     1       2.841  11.727  17.972  0.00  0.00    +0.000 OA
ATOM     26  N   UNL     1       1.633  13.171  19.257  0.00  0.00    +0.000 N 
ATOM     27  H   UNL     1       0.737  13.419  19.647  0.00  0.00    +0.000 HD
BRANCH  26  28
ATOM     28  C   UNL     1       2.661  14.194  19.272  0.00  0.00    +0.000 C 
BRANCH  28  29
ATOM     29  C   UNL     1       2.283  15.428  18.484  0.00  0.00    +0.000 A 
ATOM     30  C   UNL     1       1.145  16.189  18.802  0.00  0.00    +0.000 A 
ATOM     31  C   UNL     1       0.839  17.351  18.092  0.00  0.00    +0.000 A 
ATOM     32  C   UNL     1       1.677  17.789  17.067  0.00  0.00    +0.000 A 
ATOM     33  C   UNL     1       2.828  17.068  16.759  0.00  0.00    +0.000 A 
ATOM     34  C   UNL     1       3.125  15.903  17.470  0.00  0.00    +0.000 A 
BRANCH  34  35
ATOM     35  O   UNL     1       4.270  15.210  17.188  0.00  0.00    +0.000 OA
ATOM     36  H   UNL     1       4.541  15.409  16.276  0.00  0.00    +0.000 HD
ENDBRANCH  34  35
ENDBRANCH  28  29
ENDBRANCH  26  28
ENDBRANCH   8  24
BRANCH   6  37
ATOM     37  N   UNL     1       0.995  11.810  21.587  0.00  0.00    +0.000 NA
ATOM     38  H   UNL     1       1.897  11.705  21.110  0.00  0.00    +0.000 HD
ATOM     39  H   UNL     1       1.189  11.530  22.548  0.00  0.00    +0.000 HD
ENDBRANCH   6  37
TORSDOF 6
ENDMDL
MODEL 4
REMARK VINA RESULT:      -8.7      5.860      9.982
REMARK  Name = 
REMARK  6 active torsions:
REMARK  status: ('A' for Active; 'I' for Inactive)
REMARK    1  A    between atoms: C_6  and  N_7
REMARK    2  A    between atoms: C_12  and  N_13
REMARK    3  A    between atoms: C_15  and  C_16
REMARK    4  A    between atoms: N_18  and  C_19
REMARK    5  A    between atoms: C_19  and  C_20
REMARK    6  A    between atoms: C_25  and  O_26
REMARK                            x       y       z     vdW  Elec       q    Type
REMARK                         _______ _______ _______ _____ _____    ______ ____
ROOT
ATOM      1  N   UNL     1       1.963   7.657  19.006  0.00  0.00    +0.000 N 
ATOM      2  C   UNL     1       1.649   8.865  18.408  0.00  0.00    +0.000 C 
ATOM      3  O   UNL     1       1.855   9.126  17.227  0.00  0.00    +0.000 OA
ATOM      4  N   UNL     1       1.025   9.790  19.215  0.00  0.00    +0.000 N 
ATOM      5  C   UNL     1       0.570   9.640  20.589  0.00  0.00    +0.000 C 
ATOM      6  C   UNL     1       0.021  11.024  20.980  0.00  0.00    +0.000 C 
ATOM      7  C   UNL     1      -0.462  11.557  19.627  0.00  0.00    +0.000 C 
ATOM      8  C   UNL     1       0.622  11.091  18.652  0.00  0.00    +0.000 C 
ATOM      9  H   UNL     1       1.485   7.394  19.851  0.00  0.00    +0.000 HD
ENDROOT
BRANCH   1  15
ATOM     10  N   UNL     1       5.569   6.697  15.452  0.00  0.00    +0.000 N 
ATOM     11  C   UNL     1       5.399   5.576  16.217  0.00  0.00    +0.000 C 
ATOM     12  O   UNL     1       6.048   4.546  16.126  0.00  0.00    +0.000 OA
ATOM     13  N   UNL     1       4.314   5.702  17.113  0.00  0.00    +0.000 N 
ATOM     14  C   UNL     1       3.870   6.883  17.672  0.00  0.00    +0.000 A 
ATOM     15  C   UNL     1       2.709   6.667  18.373  0.00  0.00    +0.000 A 
ATOM     16  C   UNL     1       2.462   5.259  18.325  0.00  0.00    +0.000 A 
ATOM     17  C   UNL     1       1.446   4.415  18.828  0.00  0.00    +0.000 A 
ATOM     18  C   UNL     1       1.464   3.044  18.532  0.00  0.00    +0.000 A 
ATOM     19  C   UNL     1       2.480   2.498  17.757  0.00  0.00    +0.000 A 
ATOM     20  C   UNL     1       3.506   3.302  17.262  0.00  0.00    +0.000 A 
ATOM     21  C   UNL     1       3.481   4.678  17.554  0.00  0.00    +0.000 A 
ATOM     22  H   UNL     1       6.227   6.630  14.690  0.00  0.00    +0.000 HD
ATOM     23  H   UNL     1       4.826   7.382  15.360  0.00  0.00    +0.000 HD
ENDBRANCH   1  15
BRANCH   8  24
ATOM     24  C   UNL     1       1.830  12.070  18.557  0.00  0.00    +0.000 C 
ATOM     25  O   UNL     1       2.880  11.784  17.988  0.00  0.00    +0.000 OA
ATOM     26  N   UNL     1       1.646  13.296  19.165  0.00  0.00    +0.000 N 
ATOM     27  H   UNL     1       0.740  13.569  19.514  0.00  0.00    +0.000 HD
BRANCH  26  28
ATOM     28  C   UNL     1       2.683  14.311  19.166  0.00  0.00    +0.000 C 
BRANCH  28  29
ATOM     29  C   UNL     1       2.264  15.589  18.475  0.00  0.00    +0.000 A 
ATOM     30  C   UNL     1       3.017  16.146  17.428  0.00  0.00    +0.000 A 
ATOM     31  C   UNL     1       2.588  17.301  16.772  0.00  0.00    +0.000 A 
ATOM     32  C   UNL     1       1.387  17.908  17.134  0.00  0.00    +0.000 A 
ATOM     33  C   UNL     1       0.608  17.353  18.146  0.00  0.00    +0.000 A 
ATOM     34  C   UNL     1       1.046  16.200  18.801  0.00  0.00    +0.000 A 
BRANCH  34  35
ATOM     35  O   UNL     1       0.268  15.637  19.776  0.00  0.00    +0.000 OA
ATOM     36  H   UNL     1       0.826  15.068  20.333  0.00  0.00    +0.000 HD
ENDBRANCH  34  35
ENDBRANCH  28  29
ENDBRANCH  26  28
ENDBRANCH   8  24
BRANCH   6  37
ATOM     37  N   UNL     1       1.033  11.913  21.562  0.00  0.00    +0.000 NA
ATOM     38  H   UNL     1       1.917  11.410  21.698  0.00  0.00    +0.000 HD
ATOM     39  H   UNL     1       0.755  12.183  22.505  0.00  0.00    +0.000 HD
ENDBRANCH   6  37
TORSDOF 6
ENDMDL
MODEL 5
REMARK VINA RESULT:      -8.6      5.065      6.492
REMARK  Name = 
REMARK  6 active torsions:
REMARK  status: ('A' for Active; 'I' for Inactive)
REMARK    1  A    between atoms: C_6  and  N_7
REMARK    2  A    between atoms: C_12  and  N_13
REMARK    3  A    between atoms: C_15  and  C_16
REMARK    4  A    between atoms: N_18  and  C_19
REMARK    5  A    between atoms: C_19  and  C_20
REMARK    6  A    between atoms: C_25  and  O_26
REMARK                            x       y       z     vdW  Elec       q    Type
REMARK                         _______ _______ _______ _____ _____    ______ ____
ROOT
ATOM      1  N   UNL     1       3.596   8.343  17.865  0.00  0.00    +0.000 N 
ATOM      2  C   UNL     1       3.553   7.033  17.423  0.00  0.00    +0.000 C 
ATOM      3  O   UNL     1       2.523   6.377  17.299  0.00  0.00    +0.000 OA
ATOM      4  N   UNL     1       4.763   6.480  17.066  0.00  0.00    +0.000 N 
ATOM      5  C   UNL     1       6.071   7.114  17.005  0.00  0.00    +0.000 C 
ATOM      6  C   UNL     1       7.043   5.986  16.615  0.00  0.00    +0.000 C 
ATOM      7  C   UNL     1       6.135   5.071  15.788  0.00  0.00    +0.000 C 
ATOM      8  C   UNL     1       4.808   5.100  16.550  0.00  0.00    +0.000 C 
ATOM      9  H   UNL     1       4.395   8.909  17.634  0.00  0.00    +0.000 HD
ENDROOT
BRANCH   1  15
ATOM     10  N   UNL     1       0.982  12.783  17.969  0.00  0.00    +0.000 N 
ATOM     11  C   UNL     1       0.196  11.801  18.505  0.00  0.00    +0.000 C 
ATOM     12  O   UNL     1      -0.960  11.934  18.874  0.00  0.00    +0.000 OA
ATOM     13  N   UNL     1       0.897  10.584  18.661  0.00  0.00    +0.000 N 
ATOM     14  C   UNL     1       1.940  10.152  17.866  0.00  0.00    +0.000 A 
ATOM     15  C   UNL     1       2.487   9.005  18.386  0.00  0.00    +0.000 A 
ATOM     16  C   UNL     1       1.688   8.650  19.517  0.00  0.00    +0.000 A 
ATOM     17  C   UNL     1       1.729   7.607  20.470  0.00  0.00    +0.000 A 
ATOM     18  C   UNL     1       0.810   7.589  21.529  0.00  0.00    +0.000 A 
ATOM     19  C   UNL     1      -0.155   8.582  21.649  0.00  0.00    +0.000 A 
ATOM     20  C   UNL     1      -0.233   9.613  20.714  0.00  0.00    +0.000 A 
ATOM     21  C   UNL     1       0.696   9.633  19.657  0.00  0.00    +0.000 A 
ATOM     22  H   UNL     1       0.599  13.716  17.963  0.00  0.00    +0.000 HD
ATOM     23  H   UNL     1       1.993  12.700  17.971  0.00  0.00    +0.000 HD
ENDBRANCH   1  15
BRANCH   8  24
ATOM     24  C   UNL     1       4.735   4.057  17.704  0.00  0.00    +0.000 C 
ATOM     25  O   UNL     1       5.270   4.230  18.796  0.00  0.00    +0.000 OA
ATOM     26  N   UNL     1       4.025   2.908  17.419  0.00  0.00    +0.000 N 
ATOM     27  H   UNL     1       3.483   2.834  16.572  0.00  0.00    +0.000 HD
BRANCH  26  28
ATOM     28  C   UNL     1       3.873   1.843  18.392  0.00  0.00    +0.000 C 
BRANCH  28  29
ATOM     29  C   UNL     1       2.931   2.199  19.520  0.00  0.00    +0.000 A 
ATOM     30  C   UNL     1       3.356   2.222  20.859  0.00  0.00    +0.000 A 
ATOM     31  C   UNL     1       2.483   2.599  21.881  0.00  0.00    +0.000 A 
ATOM     32  C   UNL     1       1.176   2.982  21.583  0.00  0.00    +0.000 A 
ATOM     33  C   UNL     1       0.746   2.998  20.258  0.00  0.00    +0.000 A 
ATOM     34  C   UNL     1       1.623   2.616  19.241  0.00  0.00    +0.000 A 
BRANCH  34  35
ATOM     35  O   UNL     1       1.210   2.659  17.938  0.00  0.00    +0.000 OA
ATOM     36  H   UNL     1       0.821   3.531  17.760  0.00  0.00    +0.000 HD
ENDBRANCH  34  35
ENDBRANCH  28  29
ENDBRANCH  26  28
ENDBRANCH   8  24
BRANCH   6  37
ATOM     37  N   UNL     1       7.602   5.268  17.767  0.00  0.00    +0.000 NA
ATOM     38  H   UNL     1       7.426   5.789  18.633  0.00  0.00    +0.000 HD
ATOM     39  H   UNL     1       8.619   5.241  17.697  0.00  0.00    +0.000 HD
ENDBRANCH   6  37
TORSDOF 6
ENDMDL
MODEL 6
REMARK VINA RESULT:      -8.4      5.020      6.459
REMARK  Name = 
REMARK  6 active torsions:
REMARK  status: ('A' for Active; 'I' for Inactive)
REMARK    1  A    between atoms: C_6  and  N_7
REMARK    2  A    between atoms: C_12  and  N_13
REMARK    3  A    between atoms: C_15  and  C_16
REMARK    4  A    between atoms: N_18  and  C_19
REMARK    5  A    between atoms: C_19  and  C_20
REMARK    6  A    between atoms: C_25  and  O_26
REMARK                            x       y       z     vdW  Elec       q    Type
REMARK                         _______ _______ _______ _____ _____    ______ ____
ROOT
ATOM      1  N   UNL     1       3.573   8.428  17.908  0.00  0.00    +0.000 N 
ATOM      2  C   UNL     1       3.536   7.150  17.380  0.00  0.00    +0.000 C 
ATOM      3  O   UNL     1       2.507   6.512  17.179  0.00  0.00    +0.000 OA
ATOM      4  N   UNL     1       4.754   6.611  17.029  0.00  0.00    +0.000 N 
ATOM      5  C   UNL     1       6.068   7.236  17.055  0.00  0.00    +0.000 C 
ATOM      6  C   UNL     1       7.045   6.126  16.625  0.00  0.00    +0.000 C 
ATOM      7  C   UNL     1       6.160   5.275  15.709  0.00  0.00    +0.000 C 
ATOM      8  C   UNL     1       4.808   5.267  16.426  0.00  0.00    +0.000 C 
ATOM      9  H   UNL     1       4.382   9.001  17.742  0.00  0.00    +0.000 HD
ENDROOT
BRANCH   1  15
ATOM     10  N   UNL     1       0.882  12.821  18.057  0.00  0.00    +0.000 N 
ATOM     11  C   UNL     1       0.112  11.819  18.578  0.00  0.00    +0.000 C 
ATOM     12  O   UNL     1      -1.048  11.928  18.944  0.00  0.00    +0.000 OA
ATOM     13  N   UNL     1       0.833  10.613  18.722  0.00  0.00    +0.000 N 
ATOM     14  C   UNL     1       1.886  10.208  17.925  0.00  0.00    +0.000 A 
ATOM     15  C   UNL     1       2.451   9.065  18.433  0.00  0.00    +0.000 A 
ATOM     16  C   UNL     1       1.654   8.682  19.557  0.00  0.00    +0.000 A 
ATOM     17  C   UNL     1       1.710   7.628  20.497  0.00  0.00    +0.000 A 
ATOM     18  C   UNL     1       0.788   7.581  21.553  0.00  0.00    +0.000 A 
ATOM     19  C   UNL     1      -0.194   8.556  21.682  0.00  0.00    +0.000 A 
ATOM     20  C   UNL     1      -0.287   9.598  20.759  0.00  0.00    +0.000 A 
ATOM     21  C   UNL     1       0.645   9.646  19.706  0.00  0.00    +0.000 A 
ATOM     22  H   UNL     1       0.484  13.747  18.061  0.00  0.00    +0.000 HD
ATOM     23  H   UNL     1       1.895  12.756  18.062  0.00  0.00    +0.000 HD
ENDBRANCH   1  15
BRANCH   8  24
ATOM     24  C   UNL     1       4.688   4.151  17.507  0.00  0.00    +0.000 C 
ATOM     25  O   UNL     1       5.280   4.195  18.581  0.00  0.00    +0.000 OA
ATOM     26  N   UNL     1       3.865   3.093  17.174  0.00  0.00    +0.000 N 
ATOM     27  H   UNL     1       3.285   3.129  16.351  0.00  0.00    +0.000 HD
BRANCH  26  28
ATOM     28  C   UNL     1       3.658   1.976  18.076  0.00  0.00    +0.000 C 
BRANCH  28  29
ATOM     29  C   UNL     1       2.828   2.337  19.288  0.00  0.00    +0.000 A 
ATOM     30  C   UNL     1       1.446   2.577  19.193  0.00  0.00    +0.000 A 
ATOM     31  C   UNL     1       0.689   2.862  20.331  0.00  0.00    +0.000 A 
ATOM     32  C   UNL     1       1.293   2.889  21.587  0.00  0.00    +0.000 A 
ATOM     33  C   UNL     1       2.654   2.620  21.706  0.00  0.00    +0.000 A 
ATOM     34  C   UNL     1       3.407   2.341  20.564  0.00  0.00    +0.000 A 
BRANCH  34  35
ATOM     35  O   UNL     1       4.738   2.048  20.682  0.00  0.00    +0.000 OA
ATOM     36  H   UNL     1       4.861   1.446  21.435  0.00  0.00    +0.000 HD
ENDBRANCH  34  35
ENDBRANCH  28  29
ENDBRANCH  26  28
ENDBRANCH   8  24
BRANCH   6  37
ATOM     37  N   UNL     1       7.559   5.330  17.746  0.00  0.00    +0.000 NA
ATOM     38  H   UNL     1       8.190   4.597  17.404  0.00  0.00    +0.000 HD
ATOM     39  H   UNL     1       6.794   4.814  18.182  0.00  0.00    +0.000 HD
ENDBRANCH   6  37
TORSDOF 6
ENDMDL
MODEL 7
REMARK VINA RESULT:      -8.4      1.364      2.391
REMARK  Name = 
REMARK  6 active torsions:
REMARK  status: ('A' for Active; 'I' for Inactive)
REMARK    1  A    between atoms: C_6  and  N_7
REMARK    2  A    between atoms: C_12  and  N_13
REMARK    3  A    between atoms: C_15  and  C_16
REMARK    4  A    between atoms: N_18  and  C_19
REMARK    5  A    between atoms: C_19  and  C_20
REMARK    6  A    between atoms: C_25  and  O_26
REMARK                            x       y       z     vdW  Elec       q    Type
REMARK                         _______ _______ _______ _____ _____    ______ ____
ROOT
ATOM      1  N   UNL     1       8.952   8.877  19.281  0.00  0.00    +0.000 N 
ATOM      2  C   UNL     1       8.080   8.564  18.254  0.00  0.00    +0.000 C 
ATOM      3  O   UNL     1       7.619   9.382  17.464  0.00  0.00    +0.000 OA
ATOM      4  N   UNL     1       7.770   7.229  18.116  0.00  0.00    +0.000 N 
ATOM      5  C   UNL     1       8.303   6.090  18.847  0.00  0.00    +0.000 C 
ATOM      6  C   UNL     1       7.530   4.873  18.308  0.00  0.00    +0.000 C 
ATOM      7  C   UNL     1       7.221   5.316  16.875  0.00  0.00    +0.000 C 
ATOM      8  C   UNL     1       6.876   6.799  17.025  0.00  0.00    +0.000 C 
ATOM      9  H   UNL     1       9.532   8.151  19.666  0.00  0.00    +0.000 HD
ENDROOT
BRANCH   1  15
ATOM     10  N   UNL     1       7.810  12.790  22.434  0.00  0.00    +0.000 N 
ATOM     11  C   UNL     1       9.011  13.048  21.834  0.00  0.00    +0.000 C 
ATOM     12  O   UNL     1       9.732  14.006  22.065  0.00  0.00    +0.000 OA
ATOM     13  N   UNL     1       9.321  12.101  20.834  0.00  0.00    +0.000 N 
ATOM     14  C   UNL     1       8.919  10.780  20.828  0.00  0.00    +0.000 A 
ATOM     15  C   UNL     1       9.265  10.185  19.640  0.00  0.00    +0.000 A 
ATOM     16  C   UNL     1      10.003  11.160  18.897  0.00  0.00    +0.000 A 
ATOM     17  C   UNL     1      10.614  11.179  17.623  0.00  0.00    +0.000 A 
ATOM     18  C   UNL     1      11.214  12.356  17.151  0.00  0.00    +0.000 A 
ATOM     19  C   UNL     1      11.227  13.507  17.929  0.00  0.00    +0.000 A 
ATOM     20  C   UNL     1      10.650  13.514  19.198  0.00  0.00    +0.000 A 
ATOM     21  C   UNL     1      10.042  12.334  19.666  0.00  0.00    +0.000 A 
ATOM     22  H   UNL     1       7.451  13.501  23.053  0.00  0.00    +0.000 HD
ATOM     23  H   UNL     1       7.132  12.174  21.997  0.00  0.00    +0.000 HD
ENDBRANCH   1  15
BRANCH   8  24
ATOM     24  C   UNL     1       5.381   7.054  17.380  0.00  0.00    +0.000 C 
ATOM     25  O   UNL     1       4.962   8.139  17.774  0.00  0.00    +0.000 OA
ATOM     26  N   UNL     1       4.544   5.966  17.227  0.00  0.00    +0.000 N 
ATOM     27  H   UNL     1       4.870   5.122  16.781  0.00  0.00    +0.000 HD
BRANCH  26  28
ATOM     28  C   UNL     1       3.126   6.047  17.523  0.00  0.00    +0.000 C 
BRANCH  28  29
ATOM     29  C   UNL     1       2.611   4.852  18.294  0.00  0.00    +0.000 A 
ATOM     30  C   UNL     1       1.916   3.807  17.663  0.00  0.00    +0.000 A 
ATOM     31  C   UNL     1       1.491   2.691  18.385  0.00  0.00    +0.000 A 
ATOM     32  C   UNL     1       1.772   2.586  19.746  0.00  0.00    +0.000 A 
ATOM     33  C   UNL     1       2.489   3.595  20.384  0.00  0.00    +0.000 A 
ATOM     34  C   UNL     1       2.908   4.712  19.656  0.00  0.00    +0.000 A 
BRANCH  34  35
ATOM     35  O   UNL     1       3.637   5.690  20.275  0.00  0.00    +0.000 OA
ATOM     36  H   UNL     1       3.653   5.513  21.230  0.00  0.00    +0.000 HD
ENDBRANCH  34  35
ENDBRANCH  28  29
ENDBRANCH  26  28
ENDBRANCH   8  24
BRANCH   6  37
ATOM     37  N   UNL     1       6.294   4.589  19.046  0.00  0.00    +0.000 NA
ATOM     38  H   UNL     1       5.504   5.094  18.630  0.00  0.00    +0.000 HD
ATOM     39  H   UNL     1       6.360   4.969  19.991  0.00  0.00    +0.000 HD
ENDBRANCH   6  37
TORSDOF 6
ENDMDL
MODEL 8
REMARK VINA RESULT:      -8.3      5.703      9.857
REMARK  Name = 
REMARK  6 active torsions:
REMARK  status: ('A' for Active; 'I' for Inactive)
REMARK    1  A    between atoms: C_6  and  N_7
REMARK    2  A    between atoms: C_12  and  N_13
REMARK    3  A    between atoms: C_15  and  C_16
REMARK    4  A    between atoms: N_18  and  C_19
REMARK    5  A    between atoms: C_19  and  C_20
REMARK    6  A    between atoms: C_25  and  O_26
REMARK                            x       y       z     vdW  Elec       q    Type
REMARK                         _______ _______ _______ _____ _____    ______ ____
ROOT
ATOM      1  N   UNL     1       2.234   7.433  19.223  0.00  0.00    +0.000 N 
ATOM      2  C   UNL     1       1.698   8.523  18.561  0.00  0.00    +0.000 C 
ATOM      3  O   UNL     1       1.686   8.655  17.341  0.00  0.00    +0.000 OA
ATOM      4  N   UNL     1       1.110   9.480  19.359  0.00  0.00    +0.000 N 
ATOM      5  C   UNL     1       0.896   9.459  20.798  0.00  0.00    +0.000 C 
ATOM      6  C   UNL     1       0.265  10.825  21.126  0.00  0.00    +0.000 C 
ATOM      7  C   UNL     1      -0.480  11.140  19.825  0.00  0.00    +0.000 C 
ATOM      8  C   UNL     1       0.482  10.659  18.736  0.00  0.00    +0.000 C 
ATOM      9  H   UNL     1       1.927   7.233  20.160  0.00  0.00    +0.000 HD
ENDROOT
BRANCH   1  15
ATOM     10  N   UNL     1       6.076   6.501  15.916  0.00  0.00    +0.000 N 
ATOM     11  C   UNL     1       5.779   5.343  16.580  0.00  0.00    +0.000 C 
ATOM     12  O   UNL     1       6.376   4.284  16.467  0.00  0.00    +0.000 OA
ATOM     13  N   UNL     1       4.630   5.473  17.391  0.00  0.00    +0.000 N 
ATOM     14  C   UNL     1       4.204   6.637  17.997  0.00  0.00    +0.000 A 
ATOM     15  C   UNL     1       2.977   6.445  18.582  0.00  0.00    +0.000 A 
ATOM     16  C   UNL     1       2.658   5.061  18.411  0.00  0.00    +0.000 A 
ATOM     17  C   UNL     1       1.557   4.248  18.766  0.00  0.00    +0.000 A 
ATOM     18  C   UNL     1       1.526   2.902  18.373  0.00  0.00    +0.000 A 
ATOM     19  C   UNL     1       2.574   2.349  17.645  0.00  0.00    +0.000 A 
ATOM     20  C   UNL     1       3.682   3.121  17.297  0.00  0.00    +0.000 A 
ATOM     21  C   UNL     1       3.707   4.474  17.686  0.00  0.00    +0.000 A 
ATOM     22  H   UNL     1       6.792   6.447  15.208  0.00  0.00    +0.000 HD
ATOM     23  H   UNL     1       5.382   7.235  15.814  0.00  0.00    +0.000 HD
ENDBRANCH   1  15
BRANCH   8  24
ATOM     24  C   UNL     1       1.544  11.726  18.335  0.00  0.00    +0.000 C 
ATOM     25  O   UNL     1       2.681  11.435  17.976  0.00  0.00    +0.000 OA
ATOM     26  N   UNL     1       1.121  13.038  18.413  0.00  0.00    +0.000 N 
ATOM     27  H   UNL     1       0.152  13.260  18.581  0.00  0.00    +0.000 HD
BRANCH  26  28
ATOM     28  C   UNL     1       1.999  14.143  18.076  0.00  0.00    +0.000 C 
BRANCH  28  29
ATOM     29  C   UNL     1       1.822  15.340  18.983  0.00  0.00    +0.000 A 
ATOM     30  C   UNL     1       2.914  15.955  19.619  0.00  0.00    +0.000 A 
ATOM     31  C   UNL     1       2.734  17.088  20.414  0.00  0.00    +0.000 A 
ATOM     32  C   UNL     1       1.465  17.643  20.570  0.00  0.00    +0.000 A 
ATOM     33  C   UNL     1       0.375  17.069  19.920  0.00  0.00    +0.000 A 
ATOM     34  C   UNL     1       0.560  15.932  19.130  0.00  0.00    +0.000 A 
BRANCH  34  35
ATOM     35  O   UNL     1      -0.504  15.384  18.469  0.00  0.00    +0.000 OA
ATOM     36  H   UNL     1      -1.289  15.438  19.039  0.00  0.00    +0.000 HD
ENDBRANCH  34  35
ENDBRANCH  28  29
ENDBRANCH  26  28
ENDBRANCH   8  24
BRANCH   6  37
ATOM     37  N   UNL     1       1.251  11.868  21.430  0.00  0.00    +0.000 NA
ATOM     38  H   UNL     1       0.808  12.794  21.419  0.00  0.00    +0.000 HD
ATOM     39  H   UNL     1       1.944  11.918  20.684  0.00  0.00    +0.000 HD
ENDBRANCH   6  37
TORSDOF 6
ENDMDL
MODEL 9
REMARK VINA RESULT:      -8.3      5.004      9.570
REMARK  Name = 
REMARK  6 active torsions:
REMARK  status: ('A' for Active; 'I' for Inactive)
REMARK    1  A    between atoms: C_6  and  N_7
REMARK    2  A    between atoms: C_12  and  N_13
REMARK    3  A    between atoms: C_15  and  C_16
REMARK    4  A    between atoms: N_18  and  C_19
REMARK    5  A    between atoms: C_19  and  C_20
REMARK    6  A    between atoms: C_25  and  O_26
REMARK                            x       y       z     vdW  Elec       q    Type
REMARK                         _______ _______ _______ _____ _____    ______ ____
ROOT
ATOM      1  N   UNL     1       2.188   7.599  19.157  0.00  0.00    +0.000 N 
ATOM      2  C   UNL     1       1.614   8.688  18.526  0.00  0.00    +0.000 C 
ATOM      3  O   UNL     1       1.519   8.812  17.309  0.00  0.00    +0.000 OA
ATOM      4  N   UNL     1       1.087   9.653  19.355  0.00  0.00    +0.000 N 
ATOM      5  C   UNL     1       0.971   9.643  20.806  0.00  0.00    +0.000 C 
ATOM      6  C   UNL     1       0.373  11.014  21.167  0.00  0.00    +0.000 C 
ATOM      7  C   UNL     1      -0.458  11.325  19.919  0.00  0.00    +0.000 C 
ATOM      8  C   UNL     1       0.424  10.832  18.770  0.00  0.00    +0.000 C 
ATOM      9  H   UNL     1       1.945   7.406  20.114  0.00  0.00    +0.000 HD
ENDROOT
BRANCH   1  15
ATOM     10  N   UNL     1       5.671   6.620  15.486  0.00  0.00    +0.000 N 
ATOM     11  C   UNL     1       5.474   5.481  16.218  0.00  0.00    +0.000 C 
ATOM     12  O   UNL     1       6.079   4.430  16.077  0.00  0.00    +0.000 OA
ATOM     13  N   UNL     1       4.416   5.619  17.143  0.00  0.00    +0.000 N 
ATOM     14  C   UNL     1       4.031   6.796  17.752  0.00  0.00    +0.000 A 
ATOM     15  C   UNL     1       2.879   6.602  18.473  0.00  0.00    +0.000 A 
ATOM     16  C   UNL     1       2.575   5.207  18.385  0.00  0.00    +0.000 A 
ATOM     17  C   UNL     1       1.538   4.387  18.884  0.00  0.00    +0.000 A 
ATOM     18  C   UNL     1       1.495   3.027  18.543  0.00  0.00    +0.000 A 
ATOM     19  C   UNL     1       2.471   2.468  17.726  0.00  0.00    +0.000 A 
ATOM     20  C   UNL     1       3.517   3.248  17.233  0.00  0.00    +0.000 A 
ATOM     21  C   UNL     1       3.553   4.614  17.571  0.00  0.00    +0.000 A 
ATOM     22  H   UNL     1       6.307   6.553  14.707  0.00  0.00    +0.000 HD
ATOM     23  H   UNL     1       4.953   7.336  15.435  0.00  0.00    +0.000 HD
ENDBRANCH   1  15
BRANCH   8  24
ATOM     24  C   UNL     1       1.462  11.890  18.290  0.00  0.00    +0.000 C 
ATOM     25  O   UNL     1       2.595  11.595  17.919  0.00  0.00    +0.000 OA
ATOM     26  N   UNL     1       1.024  13.199  18.310  0.00  0.00    +0.000 N 
ATOM     27  H   UNL     1       0.056  13.417  18.490  0.00  0.00    +0.000 HD
BRANCH  26  28
ATOM     28  C   UNL     1       1.879  14.296  17.897  0.00  0.00    +0.000 C 
BRANCH  28  29
ATOM     29  C   UNL     1       2.764  14.811  19.010  0.00  0.00    +0.000 A 
ATOM     30  C   UNL     1       2.229  15.367  20.184  0.00  0.00    +0.000 A 
ATOM     31  C   UNL     1       3.062  15.794  21.219  0.00  0.00    +0.000 A 
ATOM     32  C   UNL     1       4.445  15.651  21.112  0.00  0.00    +0.000 A 
ATOM     33  C   UNL     1       4.993  15.071  19.971  0.00  0.00    +0.000 A 
ATOM     34  C   UNL     1       4.154  14.651  18.937  0.00  0.00    +0.000 A 
BRANCH  34  35
ATOM     35  O   UNL     1       4.689  14.055  17.828  0.00  0.00    +0.000 OA
ATOM     36  H   UNL     1       5.222  14.709  17.346  0.00  0.00    +0.000 HD
ENDBRANCH  34  35
ENDBRANCH  28  29
ENDBRANCH  26  28
ENDBRANCH   8  24
BRANCH   6  37
ATOM     37  N   UNL     1       1.383  12.053  21.397  0.00  0.00    +0.000 NA
ATOM     38  H   UNL     1       2.195  11.662  21.887  0.00  0.00    +0.000 HD
ATOM     39  H   UNL     1       1.018  12.753  22.043  0.00  0.00    +0.000 HD
ENDBRANCH   6  37
TORSDOF 6
ENDMDL
