MODEL 1
REMARK VINA RESULT:      -8.8      0.000      0.000
REMARK  Name = 
REMARK  10 active torsions:
REMARK  status: ('A' for Active; 'I' for Inactive)
REMARK    1  A    between atoms: C_1  and  O_2
REMARK    2  A    between atoms: O_2  and  C_3
REMARK    3  A    between atoms: C_8  and  N_9
REMARK    4  A    between atoms: N_12  and  C_13
REMARK    5  A    between atoms: C_13  and  C_14
REMARK    6  A    between atoms: C_14  and  C_15
REMARK    7  A    between atoms: C_15  and  N_16
REMARK    8  A    between atoms: N_16  and  C_17
REMARK    9  A    between atoms: C_19  and  C_20
REMARK   10  A    between atoms: N_27  and  C_28
REMARK                            x       y       z     vdW  Elec       q    Type
REMARK                         _______ _______ _______ _____ _____    ______ ____
ROOT
ATOM      1  C   UNL     1       7.719   8.519  17.583  0.00  0.00    +0.000 C 
ENDROOT
BRANCH   1   2
ATOM      2  N   UNL     1       7.665   7.106  17.943  0.00  0.00    +0.000 N 
ATOM      3  H   UNL     1       7.764   6.977  18.957  0.00  0.00    +0.000 HD
BRANCH   2   4
ATOM      4  C   UNL     1       6.606   6.309  17.515  0.00  0.00    +0.000 A 
ATOM      5  C   UNL     1       5.520   6.031  18.238  0.00  0.00    +0.000 A 
ATOM      6  C   UNL     1       4.517   5.107  17.673  0.00  0.00    +0.000 A 
ATOM      7  N   UNL     1       4.639   4.518  16.522  0.00  0.00    +0.000 NA
ATOM      8  N   UNL     1       5.749   4.817  15.766  0.00  0.00    +0.000 N 
ATOM      9  C   UNL     1       5.903   4.128  14.505  0.00  0.00    +0.000 C 
ATOM     10  C   UNL     1       6.744   5.700  16.150  0.00  0.00    +0.000 A 
ATOM     11  O   UNL     1       7.740   5.973  15.475  0.00  0.00    +0.000 OA
BRANCH   6  12
ATOM     12  C   UNL     1       3.338   4.813  18.538  0.00  0.00    +0.000 A 
ATOM     13  C   UNL     1       3.209   5.360  19.823  0.00  0.00    +0.000 A 
ATOM     14  C   UNL     1       2.126   5.006  20.631  0.00  0.00    +0.000 A 
ATOM     15  C   UNL     1       1.161   4.121  20.156  0.00  0.00    +0.000 A 
ATOM     16  C   UNL     1       1.267   3.598  18.866  0.00  0.00    +0.000 A 
ATOM     17  C   UNL     1       2.351   3.945  18.057  0.00  0.00    +0.000 A 
ENDBRANCH   6  12
ENDBRANCH   2   4
ENDBRANCH   1   2
BRANCH   1  18
ATOM     18  C   UNL     1       8.572   9.274  18.593  0.00  0.00    +0.000 C 
BRANCH  18  19
ATOM     19  C   UNL     1       9.343  10.432  17.951  0.00  0.00    +0.000 C 
BRANCH  19  23
ATOM     20  N   UNL     1      10.218  13.973  17.796  0.00  0.00    +0.000 N 
ATOM     21  C   UNL     1      11.080  12.909  17.274  0.00  0.00    +0.000 C 
ATOM     22  C   UNL     1      11.316  11.856  18.375  0.00  0.00    +0.000 C 
ATOM     23  N   UNL     1      10.071  11.264  18.925  0.00  0.00    +0.000 NA
ATOM     24  C   UNL     1       9.212  12.371  19.411  0.00  0.00    +0.000 C 
ATOM     25  C   UNL     1       8.952  13.512  18.394  0.00  0.00    +0.000 C 
BRANCH  20  31
ATOM     26  C   UNL     1       9.611  16.382  17.748  0.00  0.00    +0.000 A 
ATOM     27  C   UNL     1      10.044  17.721  17.660  0.00  0.00    +0.000 A 
ATOM     28  C   UNL     1      11.395  18.029  17.576  0.00  0.00    +0.000 A 
ATOM     29  C   UNL     1      12.332  17.010  17.574  0.00  0.00    +0.000 A 
ATOM     30  C   UNL     1      11.911  15.681  17.655  0.00  0.00    +0.000 A 
ATOM     31  C   UNL     1      10.551  15.318  17.737  0.00  0.00    +0.000 A 
BRANCH  26  33
ATOM     32  C   UNL     1       7.454  16.835  18.637  0.00  0.00    +0.000 C 
ATOM     33  O   UNL     1       8.265  16.076  17.743  0.00  0.00    +0.000 OA
ENDBRANCH  26  33
ENDBRANCH  20  31
ENDBRANCH  19  23
ENDBRANCH  18  19
ENDBRANCH   1  18
TORSDOF 8
ENDMDL
MODEL 2
REMARK VINA RESULT:      -8.8      1.189      2.075
REMARK  Name = 
REMARK  10 active torsions:
REMARK  status: ('A' for Active; 'I' for Inactive)
REMARK    1  A    between atoms: C_1  and  O_2
REMARK    2  A    between atoms: O_2  and  C_3
REMARK    3  A    between atoms: C_8  and  N_9
REMARK    4  A    between atoms: N_12  and  C_13
REMARK    5  A    between atoms: C_13  and  C_14
REMARK    6  A    between atoms: C_14  and  C_15
REMARK    7  A    between atoms: C_15  and  N_16
REMARK    8  A    between atoms: N_16  and  C_17
REMARK    9  A    between atoms: C_19  and  C_20
REMARK   10  A    between atoms: N_27  and  C_28
REMARK                            x       y       z     vdW  Elec       q    Type
REMARK                         _______ _______ _______ _____ _____    ______ ____
ROOT
ATOM      1  C   UNL     1       7.849   7.886  18.022  0.00  0.00    +0.000 C 
ENDROOT
BRANCH   1   2
ATOM      2  N   UNL     1       6.707   7.786  17.117  0.00  0.00    +0.000 N 
ATOM      3  H   UNL     1       6.969   8.045  16.159  0.00  0.00    +0.000 HD
BRANCH   2   4
ATOM      4  C   UNL     1       5.962   6.611  17.052  0.00  0.00    +0.000 A 
ATOM      5  C   UNL     1       4.931   6.316  17.847  0.00  0.00    +0.000 A 
ATOM      6  C   UNL     1       4.289   4.995  17.703  0.00  0.00    +0.000 A 
ATOM      7  N   UNL     1       4.685   4.082  16.869  0.00  0.00    +0.000 NA
ATOM      8  N   UNL     1       5.735   4.389  16.036  0.00  0.00    +0.000 N 
ATOM      9  C   UNL     1       6.200   3.356  15.139  0.00  0.00    +0.000 C 
ATOM     10  C   UNL     1       6.399   5.604  16.028  0.00  0.00    +0.000 A 
ATOM     11  O   UNL     1       7.340   5.886  15.282  0.00  0.00    +0.000 OA
BRANCH   6  12
ATOM     12  C   UNL     1       3.161   4.712  18.637  0.00  0.00    +0.000 A 
ATOM     13  C   UNL     1       2.271   3.649  18.421  0.00  0.00    +0.000 A 
ATOM     14  C   UNL     1       1.186   3.457  19.278  0.00  0.00    +0.000 A 
ATOM     15  C   UNL     1       0.991   4.312  20.361  0.00  0.00    +0.000 A 
ATOM     16  C   UNL     1       1.890   5.352  20.599  0.00  0.00    +0.000 A 
ATOM     17  C   UNL     1       2.975   5.551  19.742  0.00  0.00    +0.000 A 
ENDBRANCH   6  12
ENDBRANCH   2   4
ENDBRANCH   1   2
BRANCH   1  18
ATOM     18  C   UNL     1       8.531   9.234  17.838  0.00  0.00    +0.000 C 
BRANCH  18  19
ATOM     19  C   UNL     1       8.923   9.873  19.175  0.00  0.00    +0.000 C 
BRANCH  19  23
ATOM     20  N   UNL     1       9.125  13.507  18.888  0.00  0.00    +0.000 N 
ATOM     21  C   UNL     1       9.049  12.613  17.730  0.00  0.00    +0.000 C 
ATOM     22  C   UNL     1      10.154  11.543  17.834  0.00  0.00    +0.000 C 
ATOM     23  N   UNL     1      10.107  10.744  19.085  0.00  0.00    +0.000 NA
ATOM     24  C   UNL     1      10.153  11.683  20.232  0.00  0.00    +0.000 C 
ATOM     25  C   UNL     1       9.112  12.831  20.198  0.00  0.00    +0.000 C 
BRANCH  20  31
ATOM     26  C   UNL     1      10.407  15.614  18.588  0.00  0.00    +0.000 A 
ATOM     27  C   UNL     1      10.389  17.021  18.512  0.00  0.00    +0.000 A 
ATOM     28  C   UNL     1       9.196  17.725  18.604  0.00  0.00    +0.000 A 
ATOM     29  C   UNL     1       8.006  17.039  18.780  0.00  0.00    +0.000 A 
ATOM     30  C   UNL     1       8.017  15.645  18.862  0.00  0.00    +0.000 A 
ATOM     31  C   UNL     1       9.202  14.887  18.778  0.00  0.00    +0.000 A 
BRANCH  26  33
ATOM     32  C   UNL     1      12.168  14.676  17.298  0.00  0.00    +0.000 C 
ATOM     33  O   UNL     1      11.602  14.924  18.583  0.00  0.00    +0.000 OA
ENDBRANCH  26  33
ENDBRANCH  20  31
ENDBRANCH  19  23
ENDBRANCH  18  19
ENDBRANCH   1  18
TORSDOF 8
ENDMDL
MODEL 3
REMARK VINA RESULT:      -8.8      2.954     10.905
REMARK  Name = 
REMARK  10 active torsions:
REMARK  status: ('A' for Active; 'I' for Inactive)
REMARK    1  A    between atoms: C_1  and  O_2
REMARK    2  A    between atoms: O_2  and  C_3
REMARK    3  A    between atoms: C_8  and  N_9
REMARK    4  A    between atoms: N_12  and  C_13
REMARK    5  A    between atoms: C_13  and  C_14
REMARK    6  A    between atoms: C_14  and  C_15
REMARK    7  A    between atoms: C_15  and  N_16
REMARK    8  A    between atoms: N_16  and  C_17
REMARK    9  A    between atoms: C_19  and  C_20
REMARK   10  A    between atoms: N_27  and  C_28
REMARK                            x       y       z     vdW  Elec       q    Type
REMARK                         _______ _______ _______ _____ _____    ______ ____
ROOT
ATOM      1  C   UNL     1       8.461   9.513  18.272  0.00  0.00    +0.000 C 
ENDROOT
BRANCH   1   2
ATOM      2  N   UNL     1       9.642   9.904  19.036  0.00  0.00    +0.000 N 
ATOM      3  H   UNL     1      10.488   9.868  18.455  0.00  0.00    +0.000 HD
BRANCH   2   4
ATOM      4  C   UNL     1       9.660  11.106  19.739  0.00  0.00    +0.000 A 
ATOM      5  C   UNL     1       9.207  11.268  20.984  0.00  0.00    +0.000 A 
ATOM      6  C   UNL     1       9.225  12.624  21.566  0.00  0.00    +0.000 A 
ATOM      7  N   UNL     1       9.628  13.683  20.931  0.00  0.00    +0.000 NA
ATOM      8  N   UNL     1      10.112  13.516  19.655  0.00  0.00    +0.000 N 
ATOM      9  C   UNL     1      10.520  14.701  18.935  0.00  0.00    +0.000 C 
ATOM     10  C   UNL     1      10.198  12.298  19.002  0.00  0.00    +0.000 A 
ATOM     11  O   UNL     1      10.633  12.142  17.858  0.00  0.00    +0.000 OA
BRANCH   6  12
ATOM     12  C   UNL     1       8.682  12.748  22.950  0.00  0.00    +0.000 A 
ATOM     13  C   UNL     1       8.117  11.655  23.624  0.00  0.00    +0.000 A 
ATOM     14  C   UNL     1       7.555  11.826  24.890  0.00  0.00    +0.000 A 
ATOM     15  C   UNL     1       7.569  13.080  25.497  0.00  0.00    +0.000 A 
ATOM     16  C   UNL     1       8.157  14.164  24.846  0.00  0.00    +0.000 A 
ATOM     17  C   UNL     1       8.717  13.999  23.577  0.00  0.00    +0.000 A 
ENDBRANCH   6  12
ENDBRANCH   2   4
ENDBRANCH   1   2
BRANCH   1  18
ATOM     18  C   UNL     1       8.299   8.000  18.315  0.00  0.00    +0.000 C 
BRANCH  18  19
ATOM     19  C   UNL     1       7.325   7.490  17.249  0.00  0.00    +0.000 C 
BRANCH  19  23
ATOM     20  N   UNL     1       4.661   5.079  17.898  0.00  0.00    +0.000 N 
ATOM     21  C   UNL     1       5.627   5.503  18.915  0.00  0.00    +0.000 C 
ATOM     22  C   UNL     1       7.058   5.308  18.376  0.00  0.00    +0.000 C 
ATOM     23  N   UNL     1       7.328   6.024  17.103  0.00  0.00    +0.000 NA
ATOM     24  C   UNL     1       6.313   5.596  16.111  0.00  0.00    +0.000 C 
ATOM     25  C   UNL     1       4.837   5.704  16.575  0.00  0.00    +0.000 C 
BRANCH  20  31
ATOM     26  C   UNL     1       2.427   4.470  18.801  0.00  0.00    +0.000 A 
ATOM     27  C   UNL     1       1.466   3.465  19.029  0.00  0.00    +0.000 A 
ATOM     28  C   UNL     1       1.684   2.160  18.607  0.00  0.00    +0.000 A 
ATOM     29  C   UNL     1       2.864   1.838  17.956  0.00  0.00    +0.000 A 
ATOM     30  C   UNL     1       3.823   2.827  17.732  0.00  0.00    +0.000 A 
ATOM     31  C   UNL     1       3.650   4.164  18.145  0.00  0.00    +0.000 A 
BRANCH  26  33
ATOM     32  C   UNL     1       1.774   5.821  20.642  0.00  0.00    +0.000 C 
ATOM     33  O   UNL     1       2.246   5.744  19.299  0.00  0.00    +0.000 OA
ENDBRANCH  26  33
ENDBRANCH  20  31
ENDBRANCH  19  23
ENDBRANCH  18  19
ENDBRANCH   1  18
TORSDOF 8
ENDMDL
MODEL 4
REMARK VINA RESULT:      -8.7      1.053      1.176
REMARK  Name = 
REMARK  10 active torsions:
REMARK  status: ('A' for Active; 'I' for Inactive)
REMARK    1  A    between atoms: C_1  and  O_2
REMARK    2  A    between atoms: O_2  and  C_3
REMARK    3  A    between atoms: C_8  and  N_9
REMARK    4  A    between atoms: N_12  and  C_13
REMARK    5  A    between atoms: C_13  and  C_14
REMARK    6  A    between atoms: C_14  and  C_15
REMARK    7  A    between atoms: C_15  and  N_16
REMARK    8  A    between atoms: N_16  and  C_17
REMARK    9  A    between atoms: C_19  and  C_20
REMARK   10  A    between atoms: N_27  and  C_28
REMARK                            x       y       z     vdW  Elec       q    Type
REMARK                         _______ _______ _______ _____ _____    ______ ____
ROOT
ATOM      1  C   UNL     1       8.093   8.058  18.347  0.00  0.00    +0.000 C 
ENDROOT
BRANCH   1   2
ATOM      2  N   UNL     1       7.845   7.373  17.082  0.00  0.00    +0.000 N 
ATOM      3  H   UNL     1       8.702   6.938  16.721  0.00  0.00    +0.000 HD
BRANCH   2   4
ATOM      4  C   UNL     1       6.817   6.439  16.976  0.00  0.00    +0.000 A 
ATOM      5  C   UNL     1       5.843   6.271  17.873  0.00  0.00    +0.000 A 
ATOM      6  C   UNL     1       4.868   5.185  17.655  0.00  0.00    +0.000 A 
ATOM      7  N   UNL     1       4.914   4.356  16.656  0.00  0.00    +0.000 NA
ATOM      8  N   UNL     1       5.905   4.538  15.721  0.00  0.00    +0.000 N 
ATOM      9  C   UNL     1       5.979   3.589  14.634  0.00  0.00    +0.000 C 
ATOM     10  C   UNL     1       6.857   5.542  15.773  0.00  0.00    +0.000 A 
ATOM     11  O   UNL     1       7.747   5.711  14.935  0.00  0.00    +0.000 OA
BRANCH   6  12
ATOM     12  C   UNL     1       3.819   5.028  18.705  0.00  0.00    +0.000 A 
ATOM     13  C   UNL     1       3.030   6.108  19.129  0.00  0.00    +0.000 A 
ATOM     14  C   UNL     1       2.107   5.939  20.162  0.00  0.00    +0.000 A 
ATOM     15  C   UNL     1       1.954   4.692  20.765  0.00  0.00    +0.000 A 
ATOM     16  C   UNL     1       2.713   3.607  20.327  0.00  0.00    +0.000 A 
ATOM     17  C   UNL     1       3.642   3.772  19.296  0.00  0.00    +0.000 A 
ENDBRANCH   6  12
ENDBRANCH   2   4
ENDBRANCH   1   2
BRANCH   1  18
ATOM     18  C   UNL     1       8.554   9.483  18.077  0.00  0.00    +0.000 C 
BRANCH  18  19
ATOM     19  C   UNL     1       9.152  10.144  19.323  0.00  0.00    +0.000 C 
BRANCH  19  23
ATOM     20  N   UNL     1       9.525  13.706  18.613  0.00  0.00    +0.000 N 
ATOM     21  C   UNL     1       9.306  12.698  17.572  0.00  0.00    +0.000 C 
ATOM     22  C   UNL     1      10.357  11.579  17.713  0.00  0.00    +0.000 C 
ATOM     23  N   UNL     1      10.370  10.925  19.046  0.00  0.00    +0.000 NA
ATOM     24  C   UNL     1      10.561  11.978  20.073  0.00  0.00    +0.000 C 
ATOM     25  C   UNL     1       9.584  13.178  19.988  0.00  0.00    +0.000 C 
BRANCH  20  31
ATOM     26  C   UNL     1       8.716  16.054  18.691  0.00  0.00    +0.000 A 
ATOM     27  C   UNL     1       8.937  17.404  18.352  0.00  0.00    +0.000 A 
ATOM     28  C   UNL     1      10.092  17.793  17.687  0.00  0.00    +0.000 A 
ATOM     29  C   UNL     1      11.040  16.843  17.345  0.00  0.00    +0.000 A 
ATOM     30  C   UNL     1      10.825  15.503  17.672  0.00  0.00    +0.000 A 
ATOM     31  C   UNL     1       9.667  15.058  18.342  0.00  0.00    +0.000 A 
BRANCH  26  33
ATOM     32  C   UNL     1       6.420  15.528  18.386  0.00  0.00    +0.000 C 
ATOM     33  O   UNL     1       7.529  15.659  19.273  0.00  0.00    +0.000 OA
ENDBRANCH  26  33
ENDBRANCH  20  31
ENDBRANCH  19  23
ENDBRANCH  18  19
ENDBRANCH   1  18
TORSDOF 8
ENDMDL
MODEL 5
REMARK VINA RESULT:      -8.6      5.756      8.323
REMARK  Name = 
REMARK  10 active torsions:
REMARK  status: ('A' for Active; 'I' for Inactive)
REMARK    1  A    between atoms: C_1  and  O_2
REMARK    2  A    between atoms: O_2  and  C_3
REMARK    3  A    between atoms: C_8  and  N_9
REMARK    4  A    between atoms: N_12  and  C_13
REMARK    5  A    between atoms: C_13  and  C_14
REMARK    6  A    between atoms: C_14  and  C_15
REMARK    7  A    between atoms: C_15  and  N_16
REMARK    8  A    between atoms: N_16  and  C_17
REMARK    9  A    between atoms: C_19  and  C_20
REMARK   10  A    between atoms: N_27  and  C_28
REMARK                            x       y       z     vdW  Elec       q    Type
REMARK                         _______ _______ _______ _____ _____    ______ ____
ROOT
ATOM      1  C   UNL     1       3.049   3.496  18.255  0.00  0.00    +0.000 C 
ENDROOT
BRANCH   1   2
ATOM      2  N   UNL     1       4.468   3.578  18.587  0.00  0.00    +0.000 N 
ATOM      3  H   UNL     1       4.874   2.644  18.717  0.00  0.00    +0.000 HD
BRANCH   2   4
ATOM      4  C   UNL     1       5.339   4.311  17.785  0.00  0.00    +0.000 A 
ATOM      5  C   UNL     1       5.528   4.107  16.479  0.00  0.00    +0.000 A 
ATOM      6  C   UNL     1       6.544   4.919  15.782  0.00  0.00    +0.000 A 
ATOM      7  N   UNL     1       7.293   5.804  16.366  0.00  0.00    +0.000 NA
ATOM      8  N   UNL     1       7.088   6.029  17.707  0.00  0.00    +0.000 N 
ATOM      9  C   UNL     1       7.953   6.983  18.363  0.00  0.00    +0.000 C 
ATOM     10  C   UNL     1       6.140   5.376  18.475  0.00  0.00    +0.000 A 
ATOM     11  O   UNL     1       5.951   5.576  19.678  0.00  0.00    +0.000 OA
BRANCH   6  12
ATOM     12  C   UNL     1       6.729   4.628  14.330  0.00  0.00    +0.000 A 
ATOM     13  C   UNL     1       7.645   5.342  13.544  0.00  0.00    +0.000 A 
ATOM     14  C   UNL     1       7.741   5.089  12.174  0.00  0.00    +0.000 A 
ATOM     15  C   UNL     1       6.938   4.113  11.587  0.00  0.00    +0.000 A 
ATOM     16  C   UNL     1       6.048   3.377  12.369  0.00  0.00    +0.000 A 
ATOM     17  C   UNL     1       5.946   3.630  13.739  0.00  0.00    +0.000 A 
ENDBRANCH   6  12
ENDBRANCH   2   4
ENDBRANCH   1   2
BRANCH   1  18
ATOM     18  C   UNL     1       2.244   4.346  19.227  0.00  0.00    +0.000 C 
BRANCH  18  19
ATOM     19  C   UNL     1       1.881   5.713  18.640  0.00  0.00    +0.000 C 
BRANCH  19  23
ATOM     20  N   UNL     1       1.318   9.321  18.647  0.00  0.00    +0.000 N 
ATOM     21  C   UNL     1       1.919   8.604  17.519  0.00  0.00    +0.000 C 
ATOM     22  C   UNL     1       3.111   7.765  18.022  0.00  0.00    +0.000 C 
ATOM     23  N   UNL     1       2.763   6.802  19.097  0.00  0.00    +0.000 NA
ATOM     24  C   UNL     1       2.129   7.557  20.204  0.00  0.00    +0.000 C 
ATOM     25  C   UNL     1       0.948   8.475  19.796  0.00  0.00    +0.000 C 
BRANCH  20  31
ATOM     26  C   UNL     1      -0.158  11.310  18.849  0.00  0.00    +0.000 A 
ATOM     27  C   UNL     1      -0.281  12.713  18.810  0.00  0.00    +0.000 A 
ATOM     28  C   UNL     1       0.827  13.521  18.593  0.00  0.00    +0.000 A 
ATOM     29  C   UNL     1       2.071  12.942  18.405  0.00  0.00    +0.000 A 
ATOM     30  C   UNL     1       2.200  11.553  18.436  0.00  0.00    +0.000 A 
ATOM     31  C   UNL     1       1.105  10.691  18.649  0.00  0.00    +0.000 A 
BRANCH  26  33
ATOM     32  C   UNL     1      -2.005  10.269  17.778  0.00  0.00    +0.000 C 
ATOM     33  O   UNL     1      -1.274  10.508  18.978  0.00  0.00    +0.000 OA
ENDBRANCH  26  33
ENDBRANCH  20  31
ENDBRANCH  19  23
ENDBRANCH  18  19
ENDBRANCH   1  18
TORSDOF 8
ENDMDL
MODEL 6
REMARK VINA RESULT:      -8.5      1.616      1.811
REMARK  Name = 
REMARK  10 active torsions:
REMARK  status: ('A' for Active; 'I' for Inactive)
REMARK    1  A    between atoms: C_1  and  O_2
REMARK    2  A    between atoms: O_2  and  C_3
REMARK    3  A    between atoms: C_8  and  N_9
REMARK    4  A    between atoms: N_12  and  C_13
REMARK    5  A    between atoms: C_13  and  C_14
REMARK    6  A    between atoms: C_14  and  C_15
REMARK    7  A    between atoms: C_15  and  N_16
REMARK    8  A    between atoms: N_16  and  C_17
REMARK    9  A    between atoms: C_19  and  C_20
REMARK   10  A    between atoms: N_27  and  C_28
REMARK                            x       y       z     vdW  Elec       q    Type
REMARK                         _______ _______ _______ _____ _____    ______ ____
ROOT
ATOM      1  C   UNL     1       7.549   8.465  17.640  0.00  0.00    +0.000 C 
ENDROOT
BRANCH   1   2
ATOM      2  N   UNL     1       7.693   7.012  17.630  0.00  0.00    +0.000 N 
ATOM      3  H   UNL     1       8.055   6.669  18.527  0.00  0.00    +0.000 HD
BRANCH   2   4
ATOM      4  C   UNL     1       6.621   6.200  17.266  0.00  0.00    +0.000 A 
ATOM      5  C   UNL     1       5.551   5.961  18.028  0.00  0.00    +0.000 A 
ATOM      6  C   UNL     1       4.533   5.016  17.531  0.00  0.00    +0.000 A 
ATOM      7  N   UNL     1       4.625   4.372  16.407  0.00  0.00    +0.000 NA
ATOM      8  N   UNL     1       5.718   4.630  15.612  0.00  0.00    +0.000 N 
ATOM      9  C   UNL     1       5.839   3.880  14.382  0.00  0.00    +0.000 C 
ATOM     10  C   UNL     1       6.724   5.526  15.929  0.00  0.00    +0.000 A 
ATOM     11  O   UNL     1       7.704   5.762  15.218  0.00  0.00    +0.000 OA
BRANCH   6  12
ATOM     12  C   UNL     1       3.374   4.768  18.438  0.00  0.00    +0.000 A 
ATOM     13  C   UNL     1       3.347   5.253  19.753  0.00  0.00    +0.000 A 
ATOM     14  C   UNL     1       2.277   4.942  20.594  0.00  0.00    +0.000 A 
ATOM     15  C   UNL     1       1.223   4.162  20.124  0.00  0.00    +0.000 A 
ATOM     16  C   UNL     1       1.229   3.703  18.806  0.00  0.00    +0.000 A 
ATOM     17  C   UNL     1       2.299   4.008  17.963  0.00  0.00    +0.000 A 
ENDBRANCH   6  12
ENDBRANCH   2   4
ENDBRANCH   1   2
BRANCH   1  18
ATOM     18  C   UNL     1       8.546   9.072  18.616  0.00  0.00    +0.000 C 
BRANCH  18  19
ATOM     19  C   UNL     1       8.961  10.491  18.214  0.00  0.00    +0.000 C 
BRANCH  19  23
ATOM     20  N   UNL     1       9.460  13.717  19.850  0.00  0.00    +0.000 N 
ATOM     21  C   UNL     1       9.810  13.463  18.450  0.00  0.00    +0.000 C 
ATOM     22  C   UNL     1      10.718  12.221  18.365  0.00  0.00    +0.000 C 
ATOM     23  N   UNL     1      10.126  10.996  18.960  0.00  0.00    +0.000 NA
ATOM     24  C   UNL     1       9.755  11.300  20.363  0.00  0.00    +0.000 C 
ATOM     25  C   UNL     1       8.882  12.565  20.565  0.00  0.00    +0.000 C 
BRANCH  20  31
ATOM     26  C   UNL     1       8.733  16.025  20.415  0.00  0.00    +0.000 A 
ATOM     27  C   UNL     1       9.024  17.243  21.059  0.00  0.00    +0.000 A 
ATOM     28  C   UNL     1      10.203  17.408  21.775  0.00  0.00    +0.000 A 
ATOM     29  C   UNL     1      11.109  16.364  21.854  0.00  0.00    +0.000 A 
ATOM     30  C   UNL     1      10.830  15.155  21.213  0.00  0.00    +0.000 A 
ATOM     31  C   UNL     1       9.650  14.942  20.471  0.00  0.00    +0.000 A 
BRANCH  26  33
ATOM     32  C   UNL     1       7.595  16.657  18.427  0.00  0.00    +0.000 C 
ATOM     33  O   UNL     1       7.604  15.894  19.632  0.00  0.00    +0.000 OA
ENDBRANCH  26  33
ENDBRANCH  20  31
ENDBRANCH  19  23
ENDBRANCH  18  19
ENDBRANCH   1  18
TORSDOF 8
ENDMDL
MODEL 7
REMARK VINA RESULT:      -8.5      2.137     10.888
REMARK  Name = 
REMARK  10 active torsions:
REMARK  status: ('A' for Active; 'I' for Inactive)
REMARK    1  A    between atoms: C_1  and  O_2
REMARK    2  A    between atoms: O_2  and  C_3
REMARK    3  A    between atoms: C_8  and  N_9
REMARK    4  A    between atoms: N_12  and  C_13
REMARK    5  A    between atoms: C_13  and  C_14
REMARK    6  A    between atoms: C_14  and  C_15
REMARK    7  A    between atoms: C_15  and  N_16
REMARK    8  A    between atoms: N_16  and  C_17
REMARK    9  A    between atoms: C_19  and  C_20
REMARK   10  A    between atoms: N_27  and  C_28
REMARK                            x       y       z     vdW  Elec       q    Type
REMARK                         _______ _______ _______ _____ _____    ______ ____
ROOT
ATOM      1  C   UNL     1       8.433   9.853  18.616  0.00  0.00    +0.000 C 
ENDROOT
BRANCH   1   2
ATOM      2  N   UNL     1       9.515  10.576  17.955  0.00  0.00    +0.000 N 
ATOM      3  H   UNL     1       9.622  10.274  16.979  0.00  0.00    +0.000 HD
BRANCH   2   4
ATOM      4  C   UNL     1       9.547  11.969  17.973  0.00  0.00    +0.000 A 
ATOM      5  C   UNL     1       8.477  12.754  18.115  0.00  0.00    +0.000 A 
ATOM      6  C   UNL     1       8.665  14.216  18.038  0.00  0.00    +0.000 A 
ATOM      7  N   UNL     1       9.806  14.792  17.808  0.00  0.00    +0.000 NA
ATOM      8  N   UNL     1      10.913  13.985  17.680  0.00  0.00    +0.000 N 
ATOM      9  C   UNL     1      12.174  14.625  17.382  0.00  0.00    +0.000 C 
ATOM     10  C   UNL     1      10.892  12.605  17.777  0.00  0.00    +0.000 A 
ATOM     11  O   UNL     1      11.882  11.877  17.664  0.00  0.00    +0.000 OA
BRANCH   6  12
ATOM     12  C   UNL     1       7.430  15.042  18.177  0.00  0.00    +0.000 A 
ATOM     13  C   UNL     1       7.464  16.341  18.704  0.00  0.00    +0.000 A 
ATOM     14  C   UNL     1       6.279  17.057  18.884  0.00  0.00    +0.000 A 
ATOM     15  C   UNL     1       5.059  16.489  18.523  0.00  0.00    +0.000 A 
ATOM     16  C   UNL     1       5.021  15.209  17.969  0.00  0.00    +0.000 A 
ATOM     17  C   UNL     1       6.203  14.487  17.792  0.00  0.00    +0.000 A 
ENDBRANCH   6  12
ENDBRANCH   2   4
ENDBRANCH   1   2
BRANCH   1  18
ATOM     18  C   UNL     1       8.583   8.361  18.361  0.00  0.00    +0.000 C 
BRANCH  18  19
ATOM     19  C   UNL     1       7.526   7.831  17.385  0.00  0.00    +0.000 C 
BRANCH  19  23
ATOM     20  N   UNL     1       4.866   5.359  17.769  0.00  0.00    +0.000 N 
ATOM     21  C   UNL     1       5.739   5.777  18.869  0.00  0.00    +0.000 C 
ATOM     22  C   UNL     1       7.212   5.620  18.442  0.00  0.00    +0.000 C 
ATOM     23  N   UNL     1       7.569   6.368  17.211  0.00  0.00    +0.000 NA
ATOM     24  C   UNL     1       6.645   5.944  16.131  0.00  0.00    +0.000 C 
ATOM     25  C   UNL     1       5.136   6.016  16.477  0.00  0.00    +0.000 C 
BRANCH  20  31
ATOM     26  C   UNL     1       2.511   4.730  18.251  0.00  0.00    +0.000 A 
ATOM     27  C   UNL     1       1.557   3.703  18.402  0.00  0.00    +0.000 A 
ATOM     28  C   UNL     1       1.905   2.373  18.210  0.00  0.00    +0.000 A 
ATOM     29  C   UNL     1       3.207   2.046  17.871  0.00  0.00    +0.000 A 
ATOM     30  C   UNL     1       4.159   3.057  17.726  0.00  0.00    +0.000 A 
ATOM     31  C   UNL     1       3.856   4.421  17.915  0.00  0.00    +0.000 A 
BRANCH  26  33
ATOM     32  C   UNL     1       2.190   6.402  19.908  0.00  0.00    +0.000 C 
ATOM     33  O   UNL     1       2.184   6.041  18.528  0.00  0.00    +0.000 OA
ENDBRANCH  26  33
ENDBRANCH  20  31
ENDBRANCH  19  23
ENDBRANCH  18  19
ENDBRANCH   1  18
TORSDOF 8
ENDMDL
MODEL 8
REMARK VINA RESULT:      -8.5      5.681      8.911
REMARK  Name = 
REMARK  10 active torsions:
REMARK  status: ('A' for Active; 'I' for Inactive)
REMARK    1  A    between atoms: C_1  and  O_2
REMARK    2  A    between atoms: O_2  and  C_3
REMARK    3  A    between atoms: C_8  and  N_9
REMARK    4  A    between atoms: N_12  and  C_13
REMARK    5  A    between atoms: C_13  and  C_14
REMARK    6  A    between atoms: C_14  and  C_15
REMARK    7  A    between atoms: C_15  and  N_16
REMARK    8  A    between atoms: N_16  and  C_17
REMARK    9  A    between atoms: C_19  and  C_20
REMARK   10  A    between atoms: N_27  and  C_28
REMARK                            x       y       z     vdW  Elec       q    Type
REMARK                         _______ _______ _______ _____ _____    ______ ____
ROOT
ATOM      1  C   UNL     1       4.490   2.943  19.019  0.00  0.00    +0.000 C 
ENDROOT
BRANCH   1   2
ATOM      2  N   UNL     1       5.826   3.528  19.081  0.00  0.00    +0.000 N 
ATOM      3  H   UNL     1       6.543   2.804  19.209  0.00  0.00    +0.000 HD
BRANCH   2   4
ATOM      4  C   UNL     1       6.265   4.389  18.078  0.00  0.00    +0.000 A 
ATOM      5  C   UNL     1       6.229   4.119  16.771  0.00  0.00    +0.000 A 
ATOM      6  C   UNL     1       6.803   5.105  15.835  0.00  0.00    +0.000 A 
ATOM      7  N   UNL     1       7.375   6.211  16.204  0.00  0.00    +0.000 NA
ATOM      8  N   UNL     1       7.398   6.500  17.549  0.00  0.00    +0.000 N 
ATOM      9  C   UNL     1       8.072   7.710  17.959  0.00  0.00    +0.000 C 
ATOM     10  C   UNL     1       6.856   5.691  18.533  0.00  0.00    +0.000 A 
ATOM     11  O   UNL     1       6.873   5.947  19.740  0.00  0.00    +0.000 OA
BRANCH   6  12
ATOM     12  C   UNL     1       6.757   4.737  14.390  0.00  0.00    +0.000 A 
ATOM     13  C   UNL     1       5.793   3.854  13.881  0.00  0.00    +0.000 A 
ATOM     14  C   UNL     1       5.825   3.479  12.537  0.00  0.00    +0.000 A 
ATOM     15  C   UNL     1       6.805   3.994  11.691  0.00  0.00    +0.000 A 
ATOM     16  C   UNL     1       7.748   4.897  12.183  0.00  0.00    +0.000 A 
ATOM     17  C   UNL     1       7.723   5.272  13.529  0.00  0.00    +0.000 A 
ENDBRANCH   6  12
ENDBRANCH   2   4
ENDBRANCH   1   2
BRANCH   1  18
ATOM     18  C   UNL     1       3.599   3.588  20.070  0.00  0.00    +0.000 C 
BRANCH  18  19
ATOM     19  C   UNL     1       3.401   5.087  19.823  0.00  0.00    +0.000 C 
BRANCH  19  23
ATOM     20  N   UNL     1       1.564   8.241  19.909  0.00  0.00    +0.000 N 
ATOM     21  C   UNL     1       1.445   7.213  20.946  0.00  0.00    +0.000 C 
ATOM     22  C   UNL     1       1.102   5.860  20.291  0.00  0.00    +0.000 C 
ATOM     23  N   UNL     1       2.079   5.420  19.264  0.00  0.00    +0.000 NA
ATOM     24  C   UNL     1       2.198   6.497  18.251  0.00  0.00    +0.000 C 
ATOM     25  C   UNL     1       2.492   7.912  18.811  0.00  0.00    +0.000 C 
BRANCH  20  31
ATOM     26  C   UNL     1       0.664  10.222  21.109  0.00  0.00    +0.000 A 
ATOM     27  C   UNL     1      -0.082  11.416  21.049  0.00  0.00    +0.000 A 
ATOM     28  C   UNL     1      -0.621  11.861  19.850  0.00  0.00    +0.000 A 
ATOM     29  C   UNL     1      -0.430  11.121  18.695  0.00  0.00    +0.000 A 
ATOM     30  C   UNL     1       0.303   9.933  18.747  0.00  0.00    +0.000 A 
ATOM     31  C   UNL     1       0.866   9.438  19.942  0.00  0.00    +0.000 A 
BRANCH  26  33
ATOM     32  C   UNL     1       0.134   9.564  23.330  0.00  0.00    +0.000 C 
ATOM     33  O   UNL     1       1.123   9.738  22.317  0.00  0.00    +0.000 OA
ENDBRANCH  26  33
ENDBRANCH  20  31
ENDBRANCH  19  23
ENDBRANCH  18  19
ENDBRANCH   1  18
TORSDOF 8
ENDMDL
MODEL 9
REMARK VINA RESULT:      -8.4      2.193      2.426
REMARK  Name = 
REMARK  10 active torsions:
REMARK  status: ('A' for Active; 'I' for Inactive)
REMARK    1  A    between atoms: C_1  and  O_2
REMARK    2  A    between atoms: O_2  and  C_3
REMARK    3  A    between atoms: C_8  and  N_9
REMARK    4  A    between atoms: N_12  and  C_13
REMARK    5  A    between atoms: C_13  and  C_14
REMARK    6  A    between atoms: C_14  and  C_15
REMARK    7  A    between atoms: C_15  and  N_16
REMARK    8  A    between atoms: N_16  and  C_17
REMARK    9  A    between atoms: C_19  and  C_20
REMARK   10  A    between atoms: N_27  and  C_28
REMARK                            x       y       z     vdW  Elec       q    Type
REMARK                         _______ _______ _______ _____ _____    ______ ____
ROOT
ATOM      1  C   UNL     1       7.902   7.987  18.188  0.00  0.00    +0.000 C 
ENDROOT
BRANCH   1   2
ATOM      2  N   UNL     1       7.828   7.103  17.028  0.00  0.00    +0.000 N 
ATOM      3  H   UNL     1       8.691   6.558  16.921  0.00  0.00    +0.000 HD
BRANCH   2   4
ATOM      4  C   UNL     1       6.752   6.231  16.874  0.00  0.00    +0.000 A 
ATOM      5  C   UNL     1       5.784   6.048  17.775  0.00  0.00    +0.000 A 
ATOM      6  C   UNL     1       4.752   5.030  17.498  0.00  0.00    +0.000 A 
ATOM      7  N   UNL     1       4.742   4.273  16.442  0.00  0.00    +0.000 NA
ATOM      8  N   UNL     1       5.728   4.473  15.504  0.00  0.00    +0.000 N 
ATOM      9  C   UNL     1       5.739   3.601  14.352  0.00  0.00    +0.000 C 
ATOM     10  C   UNL     1       6.730   5.422  15.611  0.00  0.00    +0.000 A 
ATOM     11  O   UNL     1       7.616   5.606  14.772  0.00  0.00    +0.000 OA
BRANCH   6  12
ATOM     12  C   UNL     1       3.712   4.851  18.552  0.00  0.00    +0.000 A 
ATOM     13  C   UNL     1       2.992   5.936  19.073  0.00  0.00    +0.000 A 
ATOM     14  C   UNL     1       2.076   5.739  20.107  0.00  0.00    +0.000 A 
ATOM     15  C   UNL     1       1.860   4.459  20.615  0.00  0.00    +0.000 A 
ATOM     16  C   UNL     1       2.550   3.370  20.079  0.00  0.00    +0.000 A 
ATOM     17  C   UNL     1       3.471   3.564  19.047  0.00  0.00    +0.000 A 
ENDBRANCH   6  12
ENDBRANCH   2   4
ENDBRANCH   1   2
BRANCH   1  18
ATOM     18  C   UNL     1       8.247   9.398  17.736  0.00  0.00    +0.000 C 
BRANCH  18  19
ATOM     19  C   UNL     1       9.016  10.179  18.807  0.00  0.00    +0.000 C 
BRANCH  19  23
ATOM     20  N   UNL     1      10.191  13.323  20.243  0.00  0.00    +0.000 N 
ATOM     21  C   UNL     1       8.988  13.219  19.413  0.00  0.00    +0.000 C 
ATOM     22  C   UNL     1       9.340  12.519  18.086  0.00  0.00    +0.000 C 
ATOM     23  N   UNL     1       9.949  11.175  18.252  0.00  0.00    +0.000 NA
ATOM     24  C   UNL     1      11.141  11.315  19.123  0.00  0.00    +0.000 C 
ATOM     25  C   UNL     1      10.906  12.053  20.465  0.00  0.00    +0.000 C 
BRANCH  20  31
ATOM     26  C   UNL     1      10.203  15.048  22.032  0.00  0.00    +0.000 A 
ATOM     27  C   UNL     1      10.696  16.285  22.494  0.00  0.00    +0.000 A 
ATOM     28  C   UNL     1      11.625  17.003  21.754  0.00  0.00    +0.000 A 
ATOM     29  C   UNL     1      12.072  16.504  20.542  0.00  0.00    +0.000 A 
ATOM     30  C   UNL     1      11.584  15.282  20.075  0.00  0.00    +0.000 A 
ATOM     31  C   UNL     1      10.637  14.518  20.788  0.00  0.00    +0.000 A 
BRANCH  26  33
ATOM     32  C   UNL     1       7.920  14.973  22.685  0.00  0.00    +0.000 C 
ATOM     33  O   UNL     1       9.216  14.379  22.727  0.00  0.00    +0.000 OA
ENDBRANCH  26  33
ENDBRANCH  20  31
ENDBRANCH  19  23
ENDBRANCH  18  19
ENDBRANCH   1  18
TORSDOF 8
ENDMDL
