MODEL 1
REMARK VINA RESULT:      -7.3      0.000      0.000
REMARK  Name = 
REMARK  5 active torsions:
REMARK  status: ('A' for Active; 'I' for Inactive)
REMARK    1  A    between atoms: C_2  and  C_3
REMARK    2  A    between atoms: C_3  and  C_4
REMARK    3  A    between atoms: C_3  and  N_12
REMARK    4  A    between atoms: C_4  and  C_5
REMARK    5  A    between atoms: C_13  and  C_15
REMARK                            x       y       z     vdW  Elec       q    Type
REMARK                         _______ _______ _______ _____ _____    ______ ____
ROOT
ATOM      1  C   UNL     1       5.238   6.186  17.505  0.00  0.00    +0.000 C 
ENDROOT
BRANCH   1   2
ATOM      2  N   UNL     1       5.444   5.323  16.340  0.00  0.00    +0.000 N 
ATOM      3  C   UNL     1       6.605   5.321  15.610  0.00  0.00    +0.000 C 
ATOM      4  O   UNL     1       7.551   6.062  15.874  0.00  0.00    +0.000 OA
ATOM      5  H   UNL     1       4.669   4.804  15.927  0.00  0.00    +0.000 HD
BRANCH   3   6
ATOM      6  C   UNL     1       6.649   4.300  14.464  0.00  0.00    +0.000 C 
ATOM      7  C   UNL     1       7.399   4.825  13.258  0.00  0.00    +0.000 C 
ATOM      8  C   UNL     1       6.915   3.919  12.144  0.00  0.00    +0.000 C 
ATOM      9  C   UNL     1       5.494   3.542  12.542  0.00  0.00    +0.000 C 
ATOM     10  N   UNL     1       5.295   4.003  13.925  0.00  0.00    +0.000 NA
ATOM     11  H   UNL     1       4.875   3.249  14.473  0.00  0.00    +0.000 HD
ENDBRANCH   3   6
ENDBRANCH   1   2
BRANCH   1  13
ATOM     12  N   UNL     1       6.032   4.926  19.688  0.00  0.00    +0.000 NA
ATOM     13  C   UNL     1       5.679   5.471  18.722  0.00  0.00    +0.000 C 
ENDBRANCH   1  13
BRANCH   1  14
ATOM     14  C   UNL     1       3.765   6.635  17.608  0.00  0.00    +0.000 C 
BRANCH  14  15
ATOM     15  C   UNL     1       2.865   5.683  18.374  0.00  0.00    +0.000 A 
ATOM     16  C   UNL     1       2.550   5.905  19.724  0.00  0.00    +0.000 A 
ATOM     17  C   UNL     1       1.744   4.997  20.416  0.00  0.00    +0.000 A 
ATOM     18  C   UNL     1       1.257   3.867  19.766  0.00  0.00    +0.000 A 
ATOM     19  F   UNL     1       0.497   2.993  20.437  0.00  0.00    +0.000 F 
ATOM     20  C   UNL     1       1.550   3.635  18.430  0.00  0.00    +0.000 A 
ATOM     21  C   UNL     1       2.346   4.545  17.733  0.00  0.00    +0.000 A 
ENDBRANCH  14  15
ENDBRANCH   1  14
TORSDOF 5
ENDMDL
MODEL 2
REMARK VINA RESULT:      -7.3      0.057      1.111
REMARK  Name = 
REMARK  5 active torsions:
REMARK  status: ('A' for Active; 'I' for Inactive)
REMARK    1  A    between atoms: C_2  and  C_3
REMARK    2  A    between atoms: C_3  and  C_4
REMARK    3  A    between atoms: C_3  and  N_12
REMARK    4  A    between atoms: C_4  and  C_5
REMARK    5  A    between atoms: C_13  and  C_15
REMARK                            x       y       z     vdW  Elec       q    Type
REMARK                         _______ _______ _______ _____ _____    ______ ____
ROOT
ATOM      1  C   UNL     1       5.265   6.204  17.490  0.00  0.00    +0.000 C 
ENDROOT
BRANCH   1   2
ATOM      2  N   UNL     1       5.466   5.334  16.330  0.00  0.00    +0.000 N 
ATOM      3  C   UNL     1       6.622   5.331  15.592  0.00  0.00    +0.000 C 
ATOM      4  O   UNL     1       7.568   6.076  15.845  0.00  0.00    +0.000 OA
ATOM      5  H   UNL     1       4.689   4.810  15.925  0.00  0.00    +0.000 HD
BRANCH   3   6
ATOM      6  C   UNL     1       6.661   4.303  14.452  0.00  0.00    +0.000 C 
ATOM      7  C   UNL     1       7.408   4.820  13.240  0.00  0.00    +0.000 C 
ATOM      8  C   UNL     1       6.920   3.909  12.133  0.00  0.00    +0.000 C 
ATOM      9  C   UNL     1       5.500   3.536  12.537  0.00  0.00    +0.000 C 
ATOM     10  N   UNL     1       5.305   4.005  13.919  0.00  0.00    +0.000 NA
ATOM     11  H   UNL     1       4.887   3.255  14.472  0.00  0.00    +0.000 HD
ENDBRANCH   3   6
ENDBRANCH   1   2
BRANCH   1  13
ATOM     12  N   UNL     1       6.139   4.988  19.668  0.00  0.00    +0.000 NA
ATOM     13  C   UNL     1       5.754   5.513  18.704  0.00  0.00    +0.000 C 
ENDBRANCH   1  13
BRANCH   1  14
ATOM     14  C   UNL     1       3.783   6.614  17.625  0.00  0.00    +0.000 C 
BRANCH  14  15
ATOM     15  C   UNL     1       2.913   5.615  18.365  0.00  0.00    +0.000 A 
ATOM     16  C   UNL     1       2.401   4.477  17.722  0.00  0.00    +0.000 A 
ATOM     17  C   UNL     1       1.576   3.588  18.416  0.00  0.00    +0.000 A 
ATOM     18  C   UNL     1       1.258   3.835  19.748  0.00  0.00    +0.000 A 
ATOM     19  F   UNL     1       0.456   2.989  20.406  0.00  0.00    +0.000 F 
ATOM     20  C   UNL     1       1.761   4.950  20.403  0.00  0.00    +0.000 A 
ATOM     21  C   UNL     1       2.594   5.834  19.716  0.00  0.00    +0.000 A 
ENDBRANCH  14  15
ENDBRANCH   1  14
TORSDOF 5
ENDMDL
MODEL 3
REMARK VINA RESULT:      -7.0      1.470      1.780
REMARK  Name = 
REMARK  5 active torsions:
REMARK  status: ('A' for Active; 'I' for Inactive)
REMARK    1  A    between atoms: C_2  and  C_3
REMARK    2  A    between atoms: C_3  and  C_4
REMARK    3  A    between atoms: C_3  and  N_12
REMARK    4  A    between atoms: C_4  and  C_5
REMARK    5  A    between atoms: C_13  and  C_15
REMARK                            x       y       z     vdW  Elec       q    Type
REMARK                         _______ _______ _______ _____ _____    ______ ____
ROOT
ATOM      1  C   UNL     1       5.813   5.492  17.876  0.00  0.00    +0.000 C 
ENDROOT
BRANCH   1   2
ATOM      2  N   UNL     1       6.080   4.685  16.685  0.00  0.00    +0.000 N 
ATOM      3  C   UNL     1       5.939   5.168  15.409  0.00  0.00    +0.000 C 
ATOM      4  O   UNL     1       5.558   6.314  15.177  0.00  0.00    +0.000 OA
ATOM      5  H   UNL     1       6.227   3.677  16.756  0.00  0.00    +0.000 HD
BRANCH   3   6
ATOM      6  C   UNL     1       6.328   4.184  14.296  0.00  0.00    +0.000 C 
ATOM      7  C   UNL     1       7.252   4.813  13.273  0.00  0.00    +0.000 C 
ATOM      8  C   UNL     1       7.109   3.888  12.082  0.00  0.00    +0.000 C 
ATOM      9  C   UNL     1       5.685   3.356  12.174  0.00  0.00    +0.000 C 
ATOM     10  N   UNL     1       5.155   3.760  13.486  0.00  0.00    +0.000 NA
ATOM     11  H   UNL     1       4.714   2.954  13.934  0.00  0.00    +0.000 HD
ENDBRANCH   3   6
ENDBRANCH   1   2
BRANCH   1  13
ATOM     12  N   UNL     1       7.990   6.850  18.509  0.00  0.00    +0.000 NA
ATOM     13  C   UNL     1       7.028   6.261  18.223  0.00  0.00    +0.000 C 
ENDBRANCH   1  13
BRANCH   1  14
ATOM     14  C   UNL     1       5.342   4.609  19.051  0.00  0.00    +0.000 C 
BRANCH  14  15
ATOM     15  C   UNL     1       3.977   3.973  18.859  0.00  0.00    +0.000 A 
ATOM     16  C   UNL     1       2.889   4.716  18.373  0.00  0.00    +0.000 A 
ATOM     17  C   UNL     1       1.635   4.116  18.235  0.00  0.00    +0.000 A 
ATOM     18  C   UNL     1       1.463   2.780  18.585  0.00  0.00    +0.000 A 
ATOM     19  F   UNL     1       0.256   2.213  18.465  0.00  0.00    +0.000 F 
ATOM     20  C   UNL     1       2.528   2.028  19.059  0.00  0.00    +0.000 A 
ATOM     21  C   UNL     1       3.785   2.620  19.189  0.00  0.00    +0.000 A 
ENDBRANCH  14  15
ENDBRANCH   1  14
TORSDOF 5
ENDMDL
MODEL 4
REMARK VINA RESULT:      -7.0      0.852      1.059
REMARK  Name = 
REMARK  5 active torsions:
REMARK  status: ('A' for Active; 'I' for Inactive)
REMARK    1  A    between atoms: C_2  and  C_3
REMARK    2  A    between atoms: C_3  and  C_4
REMARK    3  A    between atoms: C_3  and  N_12
REMARK    4  A    between atoms: C_4  and  C_5
REMARK    5  A    between atoms: C_13  and  C_15
REMARK                            x       y       z     vdW  Elec       q    Type
REMARK                         _______ _______ _______ _____ _____    ______ ____
ROOT
ATOM      1  C   UNL     1       5.056   6.137  17.791  0.00  0.00    +0.000 C 
ENDROOT
BRANCH   1   2
ATOM      2  N   UNL     1       5.126   5.773  16.375  0.00  0.00    +0.000 N 
ATOM      3  C   UNL     1       6.307   5.697  15.681  0.00  0.00    +0.000 C 
ATOM      4  O   UNL     1       7.393   5.951  16.200  0.00  0.00    +0.000 OA
ATOM      5  H   UNL     1       4.281   5.718  15.805  0.00  0.00    +0.000 HD
BRANCH   3   6
ATOM      6  C   UNL     1       6.174   5.238  14.222  0.00  0.00    +0.000 C 
ATOM      7  C   UNL     1       5.822   3.769  14.115  0.00  0.00    +0.000 C 
ATOM      8  C   UNL     1       6.214   3.435  12.690  0.00  0.00    +0.000 C 
ATOM      9  C   UNL     1       7.380   4.365  12.382  0.00  0.00    +0.000 C 
ATOM     10  N   UNL     1       7.460   5.339  13.483  0.00  0.00    +0.000 NA
ATOM     11  H   UNL     1       7.549   6.280  13.094  0.00  0.00    +0.000 HD
ENDBRANCH   3   6
ENDBRANCH   1   2
BRANCH   1  13
ATOM     12  N   UNL     1       5.758   4.063  19.271  0.00  0.00    +0.000 NA
ATOM     13  C   UNL     1       5.444   4.969  18.612  0.00  0.00    +0.000 C 
ENDBRANCH   1  13
BRANCH   1  14
ATOM     14  C   UNL     1       3.650   6.653  18.162  0.00  0.00    +0.000 C 
BRANCH  14  15
ATOM     15  C   UNL     1       2.700   5.589  18.678  0.00  0.00    +0.000 A 
ATOM     16  C   UNL     1       2.337   5.532  20.033  0.00  0.00    +0.000 A 
ATOM     17  C   UNL     1       1.485   4.523  20.491  0.00  0.00    +0.000 A 
ATOM     18  C   UNL     1       0.999   3.570  19.601  0.00  0.00    +0.000 A 
ATOM     19  F   UNL     1       0.195   2.596  20.045  0.00  0.00    +0.000 F 
ATOM     20  C   UNL     1       1.340   3.615  18.257  0.00  0.00    +0.000 A 
ATOM     21  C   UNL     1       2.182   4.627  17.794  0.00  0.00    +0.000 A 
ENDBRANCH  14  15
ENDBRANCH   1  14
TORSDOF 5
ENDMDL
MODEL 5
REMARK VINA RESULT:      -7.0      1.507      1.903
REMARK  Name = 
REMARK  5 active torsions:
REMARK  status: ('A' for Active; 'I' for Inactive)
REMARK    1  A    between atoms: C_2  and  C_3
REMARK    2  A    between atoms: C_3  and  C_4
REMARK    3  A    between atoms: C_3  and  N_12
REMARK    4  A    between atoms: C_4  and  C_5
REMARK    5  A    between atoms: C_13  and  C_15
REMARK                            x       y       z     vdW  Elec       q    Type
REMARK                         _______ _______ _______ _____ _____    ______ ____
ROOT
ATOM      1  C   UNL     1       5.862   5.461  17.892  0.00  0.00    +0.000 C 
ENDROOT
BRANCH   1   2
ATOM      2  N   UNL     1       6.126   4.658  16.696  0.00  0.00    +0.000 N 
ATOM      3  C   UNL     1       5.949   5.136  15.423  0.00  0.00    +0.000 C 
ATOM      4  O   UNL     1       5.535   6.272  15.197  0.00  0.00    +0.000 OA
ATOM      5  H   UNL     1       6.299   3.655  16.765  0.00  0.00    +0.000 HD
BRANCH   3   6
ATOM      6  C   UNL     1       6.340   4.161  14.304  0.00  0.00    +0.000 C 
ATOM      7  C   UNL     1       7.254   4.802  13.280  0.00  0.00    +0.000 C 
ATOM      8  C   UNL     1       7.113   3.882  12.084  0.00  0.00    +0.000 C 
ATOM      9  C   UNL     1       5.694   3.338  12.181  0.00  0.00    +0.000 C 
ATOM     10  N   UNL     1       5.167   3.732  13.498  0.00  0.00    +0.000 NA
ATOM     11  H   UNL     1       4.735   2.920  13.944  0.00  0.00    +0.000 HD
ENDBRANCH   3   6
ENDBRANCH   1   2
BRANCH   1  13
ATOM     12  N   UNL     1       8.003   6.899  18.470  0.00  0.00    +0.000 NA
ATOM     13  C   UNL     1       7.059   6.272  18.206  0.00  0.00    +0.000 C 
ENDBRANCH   1  13
BRANCH   1  14
ATOM     14  C   UNL     1       5.452   4.566  19.081  0.00  0.00    +0.000 C 
BRANCH  14  15
ATOM     15  C   UNL     1       4.079   3.933  18.954  0.00  0.00    +0.000 A 
ATOM     16  C   UNL     1       3.911   2.540  19.005  0.00  0.00    +0.000 A 
ATOM     17  C   UNL     1       2.640   1.979  18.854  0.00  0.00    +0.000 A 
ATOM     18  C   UNL     1       1.538   2.804  18.647  0.00  0.00    +0.000 A 
ATOM     19  F   UNL     1       0.325   2.263  18.489  0.00  0.00    +0.000 F 
ATOM     20  C   UNL     1       1.683   4.183  18.603  0.00  0.00    +0.000 A 
ATOM     21  C   UNL     1       2.949   4.748  18.764  0.00  0.00    +0.000 A 
ENDBRANCH  14  15
ENDBRANCH   1  14
TORSDOF 5
ENDMDL
MODEL 6
REMARK VINA RESULT:      -7.0      0.834      1.516
REMARK  Name = 
REMARK  5 active torsions:
REMARK  status: ('A' for Active; 'I' for Inactive)
REMARK    1  A    between atoms: C_2  and  C_3
REMARK    2  A    between atoms: C_3  and  C_4
REMARK    3  A    between atoms: C_3  and  N_12
REMARK    4  A    between atoms: C_4  and  C_5
REMARK    5  A    between atoms: C_13  and  C_15
REMARK                            x       y       z     vdW  Elec       q    Type
REMARK                         _______ _______ _______ _____ _____    ______ ____
ROOT
ATOM      1  C   UNL     1       5.074   6.209  17.750  0.00  0.00    +0.000 C 
ENDROOT
BRANCH   1   2
ATOM      2  N   UNL     1       5.139   5.826  16.339  0.00  0.00    +0.000 N 
ATOM      3  C   UNL     1       6.319   5.711  15.650  0.00  0.00    +0.000 C 
ATOM      4  O   UNL     1       7.410   5.941  16.170  0.00  0.00    +0.000 OA
ATOM      5  H   UNL     1       4.294   5.788  15.766  0.00  0.00    +0.000 HD
BRANCH   3   6
ATOM      6  C   UNL     1       6.179   5.239  14.196  0.00  0.00    +0.000 C 
ATOM      7  C   UNL     1       5.813   3.772  14.103  0.00  0.00    +0.000 C 
ATOM      8  C   UNL     1       6.199   3.421  12.681  0.00  0.00    +0.000 C 
ATOM      9  C   UNL     1       7.371   4.338  12.361  0.00  0.00    +0.000 C 
ATOM     10  N   UNL     1       7.464   5.321  13.453  0.00  0.00    +0.000 NA
ATOM     11  H   UNL     1       7.560   6.257  13.054  0.00  0.00    +0.000 HD
ENDBRANCH   3   6
ENDBRANCH   1   2
BRANCH   1  13
ATOM     12  N   UNL     1       5.881   4.165  19.219  0.00  0.00    +0.000 NA
ATOM     13  C   UNL     1       5.520   5.069  18.582  0.00  0.00    +0.000 C 
ENDBRANCH   1  13
BRANCH   1  14
ATOM     14  C   UNL     1       3.654   6.674  18.134  0.00  0.00    +0.000 C 
BRANCH  14  15
ATOM     15  C   UNL     1       2.740   5.573  18.638  0.00  0.00    +0.000 A 
ATOM     16  C   UNL     1       2.242   4.586  17.772  0.00  0.00    +0.000 A 
ATOM     17  C   UNL     1       1.376   3.600  18.253  0.00  0.00    +0.000 A 
ATOM     18  C   UNL     1       1.003   3.600  19.594  0.00  0.00    +0.000 A 
ATOM     19  F   UNL     1       0.163   2.663  20.048  0.00  0.00    +0.000 F 
ATOM     20  C   UNL     1       1.491   4.562  20.467  0.00  0.00    +0.000 A 
ATOM     21  C   UNL     1       2.364   5.542  19.992  0.00  0.00    +0.000 A 
ENDBRANCH  14  15
ENDBRANCH   1  14
TORSDOF 5
ENDMDL
MODEL 7
REMARK VINA RESULT:      -6.8      1.593      1.930
REMARK  Name = 
REMARK  5 active torsions:
REMARK  status: ('A' for Active; 'I' for Inactive)
REMARK    1  A    between atoms: C_2  and  C_3
REMARK    2  A    between atoms: C_3  and  C_4
REMARK    3  A    between atoms: C_3  and  N_12
REMARK    4  A    between atoms: C_4  and  C_5
REMARK    5  A    between atoms: C_13  and  C_15
REMARK                            x       y       z     vdW  Elec       q    Type
REMARK                         _______ _______ _______ _____ _____    ______ ____
ROOT
ATOM      1  C   UNL     1       5.815   5.507  18.252  0.00  0.00    +0.000 C 
ENDROOT
BRANCH   1   2
ATOM      2  N   UNL     1       5.790   5.522  16.789  0.00  0.00    +0.000 N 
ATOM      3  C   UNL     1       6.760   4.931  16.020  0.00  0.00    +0.000 C 
ATOM      4  O   UNL     1       7.733   4.361  16.511  0.00  0.00    +0.000 OA
ATOM      5  H   UNL     1       5.132   6.115  16.281  0.00  0.00    +0.000 HD
BRANCH   3   6
ATOM      6  C   UNL     1       6.521   5.003  14.505  0.00  0.00    +0.000 C 
ATOM      7  C   UNL     1       6.181   3.650  13.915  0.00  0.00    +0.000 C 
ATOM      8  C   UNL     1       6.466   3.848  12.440  0.00  0.00    +0.000 C 
ATOM      9  C   UNL     1       7.592   4.872  12.399  0.00  0.00    +0.000 C 
ATOM     10  N   UNL     1       7.745   5.404  13.763  0.00  0.00    +0.000 NA
ATOM     11  H   UNL     1       7.791   6.425  13.722  0.00  0.00    +0.000 HD
ENDBRANCH   3   6
ENDBRANCH   1   2
BRANCH   1  13
ATOM     12  N   UNL     1       8.122   6.474  19.106  0.00  0.00    +0.000 NA
ATOM     13  C   UNL     1       7.111   6.043  18.721  0.00  0.00    +0.000 C 
ENDBRANCH   1  13
BRANCH   1  14
ATOM     14  C   UNL     1       5.555   4.086  18.797  0.00  0.00    +0.000 C 
BRANCH  14  15
ATOM     15  C   UNL     1       4.105   3.642  18.742  0.00  0.00    +0.000 A 
ATOM     16  C   UNL     1       3.145   4.177  19.614  0.00  0.00    +0.000 A 
ATOM     17  C   UNL     1       1.822   3.728  19.565  0.00  0.00    +0.000 A 
ATOM     18  C   UNL     1       1.458   2.744  18.652  0.00  0.00    +0.000 A 
ATOM     19  F   UNL     1       0.194   2.306  18.618  0.00  0.00    +0.000 F 
ATOM     20  C   UNL     1       2.391   2.208  17.776  0.00  0.00    +0.000 A 
ATOM     21  C   UNL     1       3.710   2.662  17.815  0.00  0.00    +0.000 A 
ENDBRANCH  14  15
ENDBRANCH   1  14
TORSDOF 5
ENDMDL
MODEL 8
REMARK VINA RESULT:      -6.8      3.331      6.591
REMARK  Name = 
REMARK  5 active torsions:
REMARK  status: ('A' for Active; 'I' for Inactive)
REMARK    1  A    between atoms: C_2  and  C_3
REMARK    2  A    between atoms: C_3  and  C_4
REMARK    3  A    between atoms: C_3  and  N_12
REMARK    4  A    between atoms: C_4  and  C_5
REMARK    5  A    between atoms: C_13  and  C_15
REMARK                            x       y       z     vdW  Elec       q    Type
REMARK                         _______ _______ _______ _____ _____    ______ ____
ROOT
ATOM      1  C   UNL     1       5.815   4.525  18.165  0.00  0.00    +0.000 C 
ENDROOT
BRANCH   1   2
ATOM      2  N   UNL     1       4.587   4.122  18.853  0.00  0.00    +0.000 N 
ATOM      3  C   UNL     1       3.858   3.018  18.492  0.00  0.00    +0.000 C 
ATOM      4  O   UNL     1       4.177   2.297  17.548  0.00  0.00    +0.000 OA
ATOM      5  H   UNL     1       4.136   4.741  19.528  0.00  0.00    +0.000 HD
BRANCH   3   6
ATOM      6  C   UNL     1       2.636   2.730  19.377  0.00  0.00    +0.000 C 
ATOM      7  C   UNL     1       1.608   3.840  19.312  0.00  0.00    +0.000 C 
ATOM      8  C   UNL     1       0.783   3.605  20.561  0.00  0.00    +0.000 C 
ATOM      9  C   UNL     1       1.759   2.996  21.559  0.00  0.00    +0.000 C 
ATOM     10  N   UNL     1       2.990   2.673  20.820  0.00  0.00    +0.000 NA
ATOM     11  H   UNL     1       3.282   1.721  21.054  0.00  0.00    +0.000 HD
ENDBRANCH   3   6
ENDBRANCH   1   2
BRANCH   1  13
ATOM     12  N   UNL     1       7.505   5.569  19.909  0.00  0.00    +0.000 NA
ATOM     13  C   UNL     1       6.752   5.110  19.149  0.00  0.00    +0.000 C 
ENDBRANCH   1  13
BRANCH   1  14
ATOM     14  C   UNL     1       5.509   5.508  17.015  0.00  0.00    +0.000 C 
BRANCH  14  15
ATOM     15  C   UNL     1       5.937   5.028  15.640  0.00  0.00    +0.000 A 
ATOM     16  C   UNL     1       7.190   5.368  15.106  0.00  0.00    +0.000 A 
ATOM     17  C   UNL     1       7.548   4.940  13.825  0.00  0.00    +0.000 A 
ATOM     18  C   UNL     1       6.657   4.179  13.075  0.00  0.00    +0.000 A 
ATOM     19  F   UNL     1       6.998   3.782  11.843  0.00  0.00    +0.000 F 
ATOM     20  C   UNL     1       5.418   3.825  13.589  0.00  0.00    +0.000 A 
ATOM     21  C   UNL     1       5.061   4.241  14.872  0.00  0.00    +0.000 A 
ENDBRANCH  14  15
ENDBRANCH   1  14
TORSDOF 5
ENDMDL
MODEL 9
REMARK VINA RESULT:      -6.8      1.600      2.053
REMARK  Name = 
REMARK  5 active torsions:
REMARK  status: ('A' for Active; 'I' for Inactive)
REMARK    1  A    between atoms: C_2  and  C_3
REMARK    2  A    between atoms: C_3  and  C_4
REMARK    3  A    between atoms: C_3  and  N_12
REMARK    4  A    between atoms: C_4  and  C_5
REMARK    5  A    between atoms: C_13  and  C_15
REMARK                            x       y       z     vdW  Elec       q    Type
REMARK                         _______ _______ _______ _____ _____    ______ ____
ROOT
ATOM      1  C   UNL     1       4.356   5.180  17.641  0.00  0.00    +0.000 C 
ENDROOT
BRANCH   1   2
ATOM      2  N   UNL     1       4.937   5.440  16.323  0.00  0.00    +0.000 N 
ATOM      3  C   UNL     1       5.699   4.520  15.648  0.00  0.00    +0.000 C 
ATOM      4  O   UNL     1       5.964   3.414  16.116  0.00  0.00    +0.000 OA
ATOM      5  H   UNL     1       4.932   6.379  15.923  0.00  0.00    +0.000 HD
BRANCH   3   6
ATOM      6  C   UNL     1       6.164   4.961  14.253  0.00  0.00    +0.000 C 
ATOM      7  C   UNL     1       6.218   3.806  13.276  0.00  0.00    +0.000 C 
ATOM      8  C   UNL     1       7.123   4.335  12.183  0.00  0.00    +0.000 C 
ATOM      9  C   UNL     1       8.075   5.286  12.895  0.00  0.00    +0.000 C 
ATOM     10  N   UNL     1       7.561   5.471  14.262  0.00  0.00    +0.000 NA
ATOM     11  H   UNL     1       7.551   6.468  14.486  0.00  0.00    +0.000 HD
ENDBRANCH   3   6
ENDBRANCH   1   2
BRANCH   1  13
ATOM     12  N   UNL     1       6.292   5.141  19.440  0.00  0.00    +0.000 NA
ATOM     13  C   UNL     1       5.436   5.168  18.653  0.00  0.00    +0.000 C 
ENDBRANCH   1  13
BRANCH   1  14
ATOM     14  C   UNL     1       3.558   3.858  17.644  0.00  0.00    +0.000 C 
BRANCH  14  15
ATOM     15  C   UNL     1       2.856   3.545  18.952  0.00  0.00    +0.000 A 
ATOM     16  C   UNL     1       3.485   2.790  19.955  0.00  0.00    +0.000 A 
ATOM     17  C   UNL     1       2.806   2.488  21.138  0.00  0.00    +0.000 A 
ATOM     18  C   UNL     1       1.500   2.932  21.320  0.00  0.00    +0.000 A 
ATOM     19  F   UNL     1       0.848   2.628  22.449  0.00  0.00    +0.000 F 
ATOM     20  C   UNL     1       0.864   3.686  20.345  0.00  0.00    +0.000 A 
ATOM     21  C   UNL     1       1.543   3.999  19.166  0.00  0.00    +0.000 A 
ENDBRANCH  14  15
ENDBRANCH   1  14
TORSDOF 5
ENDMDL
