MODEL 1
REMARK VINA RESULT:      -7.8      0.000      0.000
REMARK  Name = 
REMARK  4 active torsions:
REMARK  status: ('A' for Active; 'I' for Inactive)
REMARK    1  A    between atoms: C_2  and  C_3
REMARK    2  A    between atoms: C_3  and  N_4
REMARK    3  A    between atoms: N_4  and  C_5
REMARK    4  A    between atoms: C_11  and  C_12
REMARK                            x       y       z     vdW  Elec       q    Type
REMARK                         _______ _______ _______ _____ _____    ______ ____
ROOT
ATOM      1  C   UNL     1       6.275   4.085  13.699  0.00  0.00    +0.000 A 
ATOM      2  C   UNL     1       7.367   4.834  14.143  0.00  0.00    +0.000 A 
ATOM      3  C   UNL     1       7.470   5.237  15.474  0.00  0.00    +0.000 A 
ATOM      4  C   UNL     1       6.507   4.885  16.405  0.00  0.00    +0.000 A 
ATOM      5  N   UNL     1       6.664   5.307  17.669  0.00  0.00    +0.000 NA
ATOM      6  C   UNL     1       5.701   4.935  18.539  0.00  0.00    +0.000 A 
ATOM      7  C   UNL     1       4.600   4.172  18.176  0.00  0.00    +0.000 A 
ATOM      8  N   UNL     1       4.442   3.759  16.889  0.00  0.00    +0.000 NA
ATOM      9  C   UNL     1       5.395   4.120  15.992  0.00  0.00    +0.000 A 
ATOM     10  C   UNL     1       5.305   3.731  14.653  0.00  0.00    +0.000 A 
ENDROOT
BRANCH   7  11
ATOM     11  C   UNL     1       3.558   3.764  19.142  0.00  0.00    +0.000 A 
ATOM     12  C   UNL     1       3.869   2.911  20.218  0.00  0.00    +0.000 A 
ATOM     13  C   UNL     1       2.889   2.511  21.132  0.00  0.00    +0.000 A 
ATOM     14  C   UNL     1       1.588   2.960  20.979  0.00  0.00    +0.000 A 
ATOM     15  F   UNL     1       0.648   2.581  21.855  0.00  0.00    +0.000 F 
ATOM     16  C   UNL     1       1.243   3.802  19.933  0.00  0.00    +0.000 A 
ATOM     17  C   UNL     1       2.223   4.199  19.020  0.00  0.00    +0.000 A 
ENDBRANCH   7  11
BRANCH   1  18
ATOM     18  N   UNL     1       6.144   3.703  12.369  0.00  0.00    +0.000 N 
ATOM     19  H   UNL     1       6.368   4.384  11.652  0.00  0.00    +0.000 HD
BRANCH  18  20
ATOM     20  C   UNL     1       5.219   2.646  11.992  0.00  0.00    +0.000 C 
BRANCH  20  22
ATOM     21  C   UNL     1       3.215   3.652  10.277  0.00  0.00    +0.000 C 
ATOM     22  C   UNL     1       4.141   3.187  11.068  0.00  0.00    +0.000 C 
ENDBRANCH  20  22
ENDBRANCH  18  20
ENDBRANCH   1  18
TORSDOF 4
ENDMDL
MODEL 2
REMARK VINA RESULT:      -7.4      1.454      1.959
REMARK  Name = 
REMARK  4 active torsions:
REMARK  status: ('A' for Active; 'I' for Inactive)
REMARK    1  A    between atoms: C_2  and  C_3
REMARK    2  A    between atoms: C_3  and  N_4
REMARK    3  A    between atoms: N_4  and  C_5
REMARK    4  A    between atoms: C_11  and  C_12
REMARK                            x       y       z     vdW  Elec       q    Type
REMARK                         _______ _______ _______ _____ _____    ______ ____
ROOT
ATOM      1  C   UNL     1       5.812   3.615  12.228  0.00  0.00    +0.000 A 
ATOM      2  C   UNL     1       7.078   4.203  12.245  0.00  0.00    +0.000 A 
ATOM      3  C   UNL     1       7.565   4.831  13.391  0.00  0.00    +0.000 A 
ATOM      4  C   UNL     1       6.819   4.870  14.557  0.00  0.00    +0.000 A 
ATOM      5  N   UNL     1       7.343   5.492  15.624  0.00  0.00    +0.000 NA
ATOM      6  C   UNL     1       6.579   5.500  16.737  0.00  0.00    +0.000 A 
ATOM      7  C   UNL     1       5.321   4.916  16.802  0.00  0.00    +0.000 A 
ATOM      8  N   UNL     1       4.792   4.298  15.711  0.00  0.00    +0.000 NA
ATOM      9  C   UNL     1       5.538   4.277  14.578  0.00  0.00    +0.000 A 
ATOM     10  C   UNL     1       5.064   3.657  13.418  0.00  0.00    +0.000 A 
ENDROOT
BRANCH   7  11
ATOM     11  C   UNL     1       4.500   4.924  18.030  0.00  0.00    +0.000 A 
ATOM     12  C   UNL     1       4.415   3.779  18.846  0.00  0.00    +0.000 A 
ATOM     13  C   UNL     1       3.633   3.772  20.005  0.00  0.00    +0.000 A 
ATOM     14  C   UNL     1       2.928   4.910  20.361  0.00  0.00    +0.000 A 
ATOM     15  F   UNL     1       2.180   4.907  21.473  0.00  0.00    +0.000 F 
ATOM     16  C   UNL     1       2.988   6.057  19.585  0.00  0.00    +0.000 A 
ATOM     17  C   UNL     1       3.768   6.062  18.426  0.00  0.00    +0.000 A 
ENDBRANCH   7  11
BRANCH   1  18
ATOM     18  N   UNL     1       5.302   3.012  11.084  0.00  0.00    +0.000 N 
ATOM     19  H   UNL     1       5.817   3.119  10.217  0.00  0.00    +0.000 HD
BRANCH  18  20
ATOM     20  C   UNL     1       3.878   2.746  10.961  0.00  0.00    +0.000 C 
BRANCH  20  22
ATOM     21  C   UNL     1       2.671   4.606   9.213  0.00  0.00    +0.000 C 
ATOM     22  C   UNL     1       3.228   3.747  10.020  0.00  0.00    +0.000 C 
ENDBRANCH  20  22
ENDBRANCH  18  20
ENDBRANCH   1  18
TORSDOF 4
ENDMDL
MODEL 3
REMARK VINA RESULT:      -7.3      1.208      1.638
REMARK  Name = 
REMARK  4 active torsions:
REMARK  status: ('A' for Active; 'I' for Inactive)
REMARK    1  A    between atoms: C_2  and  C_3
REMARK    2  A    between atoms: C_3  and  N_4
REMARK    3  A    between atoms: N_4  and  C_5
REMARK    4  A    between atoms: C_11  and  C_12
REMARK                            x       y       z     vdW  Elec       q    Type
REMARK                         _______ _______ _______ _____ _____    ______ ____
ROOT
ATOM      1  C   UNL     1       5.934   4.112  14.026  0.00  0.00    +0.000 A 
ATOM      2  C   UNL     1       7.035   4.877  14.416  0.00  0.00    +0.000 A 
ATOM      3  C   UNL     1       7.201   5.275  15.742  0.00  0.00    +0.000 A 
ATOM      4  C   UNL     1       6.294   4.904  16.720  0.00  0.00    +0.000 A 
ATOM      5  N   UNL     1       6.510   5.322  17.976  0.00  0.00    +0.000 NA
ATOM      6  C   UNL     1       5.599   4.932  18.893  0.00  0.00    +0.000 A 
ATOM      7  C   UNL     1       4.493   4.153  18.584  0.00  0.00    +0.000 A 
ATOM      8  N   UNL     1       4.274   3.743  17.305  0.00  0.00    +0.000 NA
ATOM      9  C   UNL     1       5.173   4.124  16.362  0.00  0.00    +0.000 A 
ATOM     10  C   UNL     1       5.020   3.739  15.027  0.00  0.00    +0.000 A 
ENDROOT
BRANCH   7  11
ATOM     11  C   UNL     1       3.509   3.724  19.600  0.00  0.00    +0.000 A 
ATOM     12  C   UNL     1       2.300   4.426  19.772  0.00  0.00    +0.000 A 
ATOM     13  C   UNL     1       1.367   4.035  20.737  0.00  0.00    +0.000 A 
ATOM     14  C   UNL     1       1.632   2.939  21.540  0.00  0.00    +0.000 A 
ATOM     15  F   UNL     1       0.737   2.560  22.463  0.00  0.00    +0.000 F 
ATOM     16  C   UNL     1       2.810   2.221  21.400  0.00  0.00    +0.000 A 
ATOM     17  C   UNL     1       3.742   2.613  20.437  0.00  0.00    +0.000 A 
ENDBRANCH   7  11
BRANCH   1  18
ATOM     18  N   UNL     1       5.739   3.734  12.703  0.00  0.00    +0.000 N 
ATOM     19  H   UNL     1       4.800   3.487  12.409  0.00  0.00    +0.000 HD
BRANCH  18  20
ATOM     20  C   UNL     1       6.829   3.163  11.929  0.00  0.00    +0.000 C 
BRANCH  20  22
ATOM     21  C   UNL     1       6.183   0.545  11.093  0.00  0.00    +0.000 C 
ATOM     22  C   UNL     1       6.482   1.754  11.479  0.00  0.00    +0.000 C 
ENDBRANCH  20  22
ENDBRANCH  18  20
ENDBRANCH   1  18
TORSDOF 4
ENDMDL
MODEL 4
REMARK VINA RESULT:      -7.3      5.487      7.962
REMARK  Name = 
REMARK  4 active torsions:
REMARK  status: ('A' for Active; 'I' for Inactive)
REMARK    1  A    between atoms: C_2  and  C_3
REMARK    2  A    between atoms: C_3  and  N_4
REMARK    3  A    between atoms: N_4  and  C_5
REMARK    4  A    between atoms: C_11  and  C_12
REMARK                            x       y       z     vdW  Elec       q    Type
REMARK                         _______ _______ _______ _____ _____    ______ ____
ROOT
ATOM      1  C   UNL     1       0.587  10.682  18.852  0.00  0.00    +0.000 A 
ATOM      2  C   UNL     1       0.321  10.251  20.153  0.00  0.00    +0.000 A 
ATOM      3  C   UNL     1       0.817   9.036  20.625  0.00  0.00    +0.000 A 
ATOM      4  C   UNL     1       1.612   8.230  19.827  0.00  0.00    +0.000 A 
ATOM      5  N   UNL     1       2.056   7.073  20.339  0.00  0.00    +0.000 NA
ATOM      6  C   UNL     1       2.829   6.324  19.524  0.00  0.00    +0.000 A 
ATOM      7  C   UNL     1       3.156   6.699  18.229  0.00  0.00    +0.000 A 
ATOM      8  N   UNL     1       2.692   7.870  17.712  0.00  0.00    +0.000 NA
ATOM      9  C   UNL     1       1.909   8.641  18.510  0.00  0.00    +0.000 A 
ATOM     10  C   UNL     1       1.398   9.858  18.052  0.00  0.00    +0.000 A 
ENDROOT
BRANCH   7  11
ATOM     11  C   UNL     1       4.012   5.875  17.351  0.00  0.00    +0.000 A 
ATOM     12  C   UNL     1       4.869   6.477  16.409  0.00  0.00    +0.000 A 
ATOM     13  C   UNL     1       5.676   5.706  15.567  0.00  0.00    +0.000 A 
ATOM     14  C   UNL     1       5.635   4.325  15.657  0.00  0.00    +0.000 A 
ATOM     15  F   UNL     1       6.410   3.584  14.853  0.00  0.00    +0.000 F 
ATOM     16  C   UNL     1       4.807   3.695  16.573  0.00  0.00    +0.000 A 
ATOM     17  C   UNL     1       3.999   4.466  17.412  0.00  0.00    +0.000 A 
ENDBRANCH   7  11
BRANCH   1  18
ATOM     18  N   UNL     1       0.074  11.877  18.359  0.00  0.00    +0.000 N 
ATOM     19  H   UNL     1       0.630  12.718  18.468  0.00  0.00    +0.000 HD
BRANCH  18  20
ATOM     20  C   UNL     1      -1.361  12.064  18.222  0.00  0.00    +0.000 C 
BRANCH  20  22
ATOM     21  C   UNL     1      -2.495   9.952  16.729  0.00  0.00    +0.000 C 
ATOM     22  C   UNL     1      -1.972  10.928  17.418  0.00  0.00    +0.000 C 
ENDBRANCH  20  22
ENDBRANCH  18  20
ENDBRANCH   1  18
TORSDOF 4
ENDMDL
MODEL 5
REMARK VINA RESULT:      -7.3      5.486      7.918
REMARK  Name = 
REMARK  4 active torsions:
REMARK  status: ('A' for Active; 'I' for Inactive)
REMARK    1  A    between atoms: C_2  and  C_3
REMARK    2  A    between atoms: C_3  and  N_4
REMARK    3  A    between atoms: N_4  and  C_5
REMARK    4  A    between atoms: C_11  and  C_12
REMARK                            x       y       z     vdW  Elec       q    Type
REMARK                         _______ _______ _______ _____ _____    ______ ____
ROOT
ATOM      1  C   UNL     1       0.496  10.623  18.837  0.00  0.00    +0.000 A 
ATOM      2  C   UNL     1       0.275  10.209  20.152  0.00  0.00    +0.000 A 
ATOM      3  C   UNL     1       0.817   9.018  20.633  0.00  0.00    +0.000 A 
ATOM      4  C   UNL     1       1.612   8.218  19.830  0.00  0.00    +0.000 A 
ATOM      5  N   UNL     1       2.101   7.083  20.352  0.00  0.00    +0.000 NA
ATOM      6  C   UNL     1       2.873   6.340  19.530  0.00  0.00    +0.000 A 
ATOM      7  C   UNL     1       3.156   6.699  18.220  0.00  0.00    +0.000 A 
ATOM      8  N   UNL     1       2.647   7.846  17.694  0.00  0.00    +0.000 NA
ATOM      9  C   UNL     1       1.864   8.611  18.498  0.00  0.00    +0.000 A 
ATOM     10  C   UNL     1       1.308   9.806  18.032  0.00  0.00    +0.000 A 
ENDROOT
BRANCH   7  11
ATOM     11  C   UNL     1       4.012   5.881  17.335  0.00  0.00    +0.000 A 
ATOM     12  C   UNL     1       3.989   4.475  17.411  0.00  0.00    +0.000 A 
ATOM     13  C   UNL     1       4.802   3.692  16.586  0.00  0.00    +0.000 A 
ATOM     14  C   UNL     1       5.645   4.306  15.675  0.00  0.00    +0.000 A 
ATOM     15  F   UNL     1       6.422   3.558  14.881  0.00  0.00    +0.000 F 
ATOM     16  C   UNL     1       5.695   5.688  15.569  0.00  0.00    +0.000 A 
ATOM     17  C   UNL     1       4.884   6.469  16.395  0.00  0.00    +0.000 A 
ENDBRANCH   7  11
BRANCH   1  18
ATOM     18  N   UNL     1      -0.063  11.793  18.336  0.00  0.00    +0.000 N 
ATOM     19  H   UNL     1       0.467  12.653  18.427  0.00  0.00    +0.000 HD
BRANCH  18  20
ATOM     20  C   UNL     1      -1.505  11.931  18.216  0.00  0.00    +0.000 C 
BRANCH  20  22
ATOM     21  C   UNL     1      -2.544   9.981  16.459  0.00  0.00    +0.000 C 
ATOM     22  C   UNL     1      -2.064  10.881  17.271  0.00  0.00    +0.000 C 
ENDBRANCH  20  22
ENDBRANCH  18  20
ENDBRANCH   1  18
TORSDOF 4
ENDMDL
MODEL 6
REMARK VINA RESULT:      -7.3      5.030      6.842
REMARK  Name = 
REMARK  4 active torsions:
REMARK  status: ('A' for Active; 'I' for Inactive)
REMARK    1  A    between atoms: C_2  and  C_3
REMARK    2  A    between atoms: C_3  and  N_4
REMARK    3  A    between atoms: N_4  and  C_5
REMARK    4  A    between atoms: C_11  and  C_12
REMARK                            x       y       z     vdW  Elec       q    Type
REMARK                         _______ _______ _______ _____ _____    ______ ____
ROOT
ATOM      1  C   UNL     1       3.770   4.578  19.087  0.00  0.00    +0.000 A 
ATOM      2  C   UNL     1       4.098   5.092  17.830  0.00  0.00    +0.000 A 
ATOM      3  C   UNL     1       3.645   6.347  17.425  0.00  0.00    +0.000 A 
ATOM      4  C   UNL     1       2.876   7.135  18.265  0.00  0.00    +0.000 A 
ATOM      5  N   UNL     1       2.470   8.332  17.814  0.00  0.00    +0.000 NA
ATOM      6  C   UNL     1       1.727   9.064  18.671  0.00  0.00    +0.000 A 
ATOM      7  C   UNL     1       1.382   8.629  19.943  0.00  0.00    +0.000 A 
ATOM      8  N   UNL     1       1.788   7.409  20.388  0.00  0.00    +0.000 NA
ATOM      9  C   UNL     1       2.534   6.651  19.546  0.00  0.00    +0.000 A 
ATOM     10  C   UNL     1       2.993   5.388  19.933  0.00  0.00    +0.000 A 
ENDROOT
BRANCH   7  11
ATOM     11  C   UNL     1       0.575   9.446  20.875  0.00  0.00    +0.000 A 
ATOM     12  C   UNL     1       0.381   9.035  22.208  0.00  0.00    +0.000 A 
ATOM     13  C   UNL     1      -0.388   9.795  23.095  0.00  0.00    +0.000 A 
ATOM     14  C   UNL     1      -0.970  10.974  22.658  0.00  0.00    +0.000 A 
ATOM     15  F   UNL     1      -1.704  11.705  23.507  0.00  0.00    +0.000 F 
ATOM     16  C   UNL     1      -0.800  11.412  21.354  0.00  0.00    +0.000 A 
ATOM     17  C   UNL     1      -0.033  10.651  20.468  0.00  0.00    +0.000 A 
ENDBRANCH   7  11
BRANCH   1  18
ATOM     18  N   UNL     1       4.189   3.316  19.492  0.00  0.00    +0.000 N 
ATOM     19  H   UNL     1       5.110   3.229  19.908  0.00  0.00    +0.000 HD
BRANCH  18  20
ATOM     20  C   UNL     1       3.647   2.120  18.867  0.00  0.00    +0.000 C 
BRANCH  20  22
ATOM     21  C   UNL     1       0.829   2.253  18.764  0.00  0.00    +0.000 C 
ATOM     22  C   UNL     1       2.130   2.191  18.811  0.00  0.00    +0.000 C 
ENDBRANCH  20  22
ENDBRANCH  18  20
ENDBRANCH   1  18
TORSDOF 4
ENDMDL
MODEL 7
REMARK VINA RESULT:      -7.3      3.690      4.282
REMARK  Name = 
REMARK  4 active torsions:
REMARK  status: ('A' for Active; 'I' for Inactive)
REMARK    1  A    between atoms: C_2  and  C_3
REMARK    2  A    between atoms: C_3  and  N_4
REMARK    3  A    between atoms: N_4  and  C_5
REMARK    4  A    between atoms: C_11  and  C_12
REMARK                            x       y       z     vdW  Elec       q    Type
REMARK                         _______ _______ _______ _____ _____    ______ ____
ROOT
ATOM      1  C   UNL     1       6.069   5.152  15.282  0.00  0.00    +0.000 A 
ATOM      2  C   UNL     1       6.327   4.102  16.165  0.00  0.00    +0.000 A 
ATOM      3  C   UNL     1       5.723   4.053  17.421  0.00  0.00    +0.000 A 
ATOM      4  C   UNL     1       4.827   5.030  17.823  0.00  0.00    +0.000 A 
ATOM      5  N   UNL     1       4.282   4.926  19.044  0.00  0.00    +0.000 NA
ATOM      6  C   UNL     1       3.413   5.900  19.387  0.00  0.00    +0.000 A 
ATOM      7  C   UNL     1       3.089   6.961  18.553  0.00  0.00    +0.000 A 
ATOM      8  N   UNL     1       3.655   7.065  17.320  0.00  0.00    +0.000 NA
ATOM      9  C   UNL     1       4.535   6.100  16.950  0.00  0.00    +0.000 A 
ATOM     10  C   UNL     1       5.155   6.136  15.698  0.00  0.00    +0.000 A 
ENDROOT
BRANCH   7  11
ATOM     11  C   UNL     1       2.127   8.015  18.938  0.00  0.00    +0.000 A 
ATOM     12  C   UNL     1       1.634   8.092  20.255  0.00  0.00    +0.000 A 
ATOM     13  C   UNL     1       0.717   9.080  20.627  0.00  0.00    +0.000 A 
ATOM     14  C   UNL     1       0.283  10.000  19.688  0.00  0.00    +0.000 A 
ATOM     15  F   UNL     1      -0.593  10.949  20.044  0.00  0.00    +0.000 F 
ATOM     16  C   UNL     1       0.748   9.958  18.382  0.00  0.00    +0.000 A 
ATOM     17  C   UNL     1       1.663   8.970  18.011  0.00  0.00    +0.000 A 
ENDBRANCH   7  11
BRANCH   1  18
ATOM     18  N   UNL     1       6.687   5.230  14.039  0.00  0.00    +0.000 N 
ATOM     19  H   UNL     1       6.605   6.096  13.517  0.00  0.00    +0.000 HD
BRANCH  18  20
ATOM     20  C   UNL     1       6.937   4.028  13.261  0.00  0.00    +0.000 C 
BRANCH  20  22
ATOM     21  C   UNL     1       4.628   3.288  11.815  0.00  0.00    +0.000 C 
ATOM     22  C   UNL     1       5.694   3.629  12.483  0.00  0.00    +0.000 C 
ENDBRANCH  20  22
ENDBRANCH  18  20
ENDBRANCH   1  18
TORSDOF 4
ENDMDL
MODEL 8
REMARK VINA RESULT:      -7.3      0.695      1.121
REMARK  Name = 
REMARK  4 active torsions:
REMARK  status: ('A' for Active; 'I' for Inactive)
REMARK    1  A    between atoms: C_2  and  C_3
REMARK    2  A    between atoms: C_3  and  N_4
REMARK    3  A    between atoms: N_4  and  C_5
REMARK    4  A    between atoms: C_11  and  C_12
REMARK                            x       y       z     vdW  Elec       q    Type
REMARK                         _______ _______ _______ _____ _____    ______ ____
ROOT
ATOM      1  C   UNL     1       6.425   4.173  13.656  0.00  0.00    +0.000 A 
ATOM      2  C   UNL     1       7.445   5.019  14.096  0.00  0.00    +0.000 A 
ATOM      3  C   UNL     1       7.476   5.487  15.409  0.00  0.00    +0.000 A 
ATOM      4  C   UNL     1       6.511   5.109  16.327  0.00  0.00    +0.000 A 
ATOM      5  N   UNL     1       6.595   5.596  17.573  0.00  0.00    +0.000 NA
ATOM      6  C   UNL     1       5.633   5.195  18.431  0.00  0.00    +0.000 A 
ATOM      7  C   UNL     1       4.602   4.338  18.072  0.00  0.00    +0.000 A 
ATOM      8  N   UNL     1       4.517   3.857  16.802  0.00  0.00    +0.000 NA
ATOM      9  C   UNL     1       5.470   4.247  15.918  0.00  0.00    +0.000 A 
ATOM     10  C   UNL     1       5.452   3.792  14.597  0.00  0.00    +0.000 A 
ENDROOT
BRANCH   7  11
ATOM     11  C   UNL     1       3.561   3.899  19.025  0.00  0.00    +0.000 A 
ATOM     12  C   UNL     1       3.875   3.017  20.078  0.00  0.00    +0.000 A 
ATOM     13  C   UNL     1       2.895   2.588  20.979  0.00  0.00    +0.000 A 
ATOM     14  C   UNL     1       1.592   3.035  20.836  0.00  0.00    +0.000 A 
ATOM     15  F   UNL     1       0.653   2.628  21.700  0.00  0.00    +0.000 F 
ATOM     16  C   UNL     1       1.245   3.904  19.814  0.00  0.00    +0.000 A 
ATOM     17  C   UNL     1       2.224   4.332  18.913  0.00  0.00    +0.000 A 
ENDBRANCH   7  11
BRANCH   1  18
ATOM     18  N   UNL     1       6.365   3.723  12.342  0.00  0.00    +0.000 N 
ATOM     19  H   UNL     1       6.845   4.262  11.630  0.00  0.00    +0.000 HD
BRANCH  18  20
ATOM     20  C   UNL     1       5.252   2.903  11.892  0.00  0.00    +0.000 C 
BRANCH  20  22
ATOM     21  C   UNL     1       6.170   0.369  11.052  0.00  0.00    +0.000 C 
ATOM     22  C   UNL     1       5.746   1.539  11.440  0.00  0.00    +0.000 C 
ENDBRANCH  20  22
ENDBRANCH  18  20
ENDBRANCH   1  18
TORSDOF 4
ENDMDL
MODEL 9
REMARK VINA RESULT:      -7.3      5.012      6.889
REMARK  Name = 
REMARK  4 active torsions:
REMARK  status: ('A' for Active; 'I' for Inactive)
REMARK    1  A    between atoms: C_2  and  C_3
REMARK    2  A    between atoms: C_3  and  N_4
REMARK    3  A    between atoms: N_4  and  C_5
REMARK    4  A    between atoms: C_11  and  C_12
REMARK                            x       y       z     vdW  Elec       q    Type
REMARK                         _______ _______ _______ _____ _____    ______ ____
ROOT
ATOM      1  C   UNL     1       3.752   4.532  19.087  0.00  0.00    +0.000 A 
ATOM      2  C   UNL     1       4.128   5.076  17.858  0.00  0.00    +0.000 A 
ATOM      3  C   UNL     1       3.706   6.349  17.475  0.00  0.00    +0.000 A 
ATOM      4  C   UNL     1       2.922   7.125  18.313  0.00  0.00    +0.000 A 
ATOM      5  N   UNL     1       2.548   8.340  17.885  0.00  0.00    +0.000 NA
ATOM      6  C   UNL     1       1.788   9.058  18.738  0.00  0.00    +0.000 A 
ATOM      7  C   UNL     1       1.395   8.592  19.985  0.00  0.00    +0.000 A 
ATOM      8  N   UNL     1       1.769   7.354  20.407  0.00  0.00    +0.000 NA
ATOM      9  C   UNL     1       2.532   6.609  19.567  0.00  0.00    +0.000 A 
ATOM     10  C   UNL     1       2.959   5.329  19.931  0.00  0.00    +0.000 A 
ENDROOT
BRANCH   7  11
ATOM     11  C   UNL     1       0.571   9.394  20.914  0.00  0.00    +0.000 A 
ATOM     12  C   UNL     1      -0.076  10.565  20.474  0.00  0.00    +0.000 A 
ATOM     13  C   UNL     1      -0.850  11.336  21.346  0.00  0.00    +0.000 A 
ATOM     14  C   UNL     1      -0.986  10.945  22.668  0.00  0.00    +0.000 A 
ATOM     15  F   UNL     1      -1.730  11.680  23.505  0.00  0.00    +0.000 F 
ATOM     16  C   UNL     1      -0.366   9.797  23.138  0.00  0.00    +0.000 A 
ATOM     17  C   UNL     1       0.408   9.028  22.266  0.00  0.00    +0.000 A 
ENDBRANCH   7  11
BRANCH   1  18
ATOM     18  N   UNL     1       4.140   3.252  19.468  0.00  0.00    +0.000 N 
ATOM     19  H   UNL     1       5.053   3.137  19.896  0.00  0.00    +0.000 HD
BRANCH  18  20
ATOM     20  C   UNL     1       3.584   2.083  18.808  0.00  0.00    +0.000 C 
BRANCH  20  22
ATOM     21  C   UNL     1       0.766   2.238  18.734  0.00  0.00    +0.000 C 
ATOM     22  C   UNL     1       2.067   2.166  18.768  0.00  0.00    +0.000 C 
ENDBRANCH  20  22
ENDBRANCH  18  20
ENDBRANCH   1  18
TORSDOF 4
ENDMDL
