MODEL 1
REMARK VINA RESULT:      -7.3      0.000      0.000
REMARK  Name = 
REMARK  6 active torsions:
REMARK  status: ('A' for Active; 'I' for Inactive)
REMARK    1  A    between atoms: C_1  and  C_2
REMARK    2  A    between atoms: C_5  and  N_6
REMARK    3  A    between atoms: N_6  and  C_7
REMARK    4  A    between atoms: C_10  and  C_11
REMARK    5  A    between atoms: C_11  and  O_13
REMARK    6  A    between atoms: C_15  and  N_16
REMARK                            x       y       z     vdW  Elec       q    Type
REMARK                         _______ _______ _______ _____ _____    ______ ____
ROOT
ATOM      1  C   UNL     1       5.728   5.447  17.447  0.00  0.00    +0.000 A 
ATOM      2  C   UNL     1       4.955   5.908  16.368  0.00  0.00    +0.000 A 
ATOM      3  C   UNL     1       5.336   5.671  15.049  0.00  0.00    +0.000 A 
ATOM      4  C   UNL     1       6.536   5.006  14.791  0.00  0.00    +0.000 A 
ATOM      5  C   UNL     1       7.337   4.571  15.857  0.00  0.00    +0.000 A 
ATOM      6  C   UNL     1       6.916   4.733  17.185  0.00  0.00    +0.000 A 
ENDROOT
BRANCH   6   7
ATOM      7  N   UNL     1       7.774   4.335  18.233  0.00  0.00    +0.000 N 
ATOM      8  H   UNL     1       8.120   3.385  18.122  0.00  0.00    +0.000 HD
ATOM      9  H   UNL     1       7.339   4.457  19.143  0.00  0.00    +0.000 HD
ENDBRANCH   6   7
BRANCH   1  10
ATOM     10  N   UNL     1       5.253   5.593  18.770  0.00  0.00    +0.000 N 
ATOM     11  H   UNL     1       5.845   6.159  19.366  0.00  0.00    +0.000 HD
BRANCH  10  16
ATOM     12  C   UNL     1       1.275   2.605  21.626  0.00  0.00    +0.000 C 
ATOM     13  C   UNL     1       2.307   3.390  20.875  0.00  0.00    +0.000 A 
ATOM     14  C   UNL     1       2.184   4.772  20.734  0.00  0.00    +0.000 A 
ATOM     15  C   UNL     1       3.142   5.495  20.021  0.00  0.00    +0.000 A 
ATOM     16  C   UNL     1       4.243   4.864  19.425  0.00  0.00    +0.000 A 
ATOM     17  C   UNL     1       4.365   3.479  19.576  0.00  0.00    +0.000 A 
ATOM     18  C   UNL     1       3.406   2.748  20.291  0.00  0.00    +0.000 A 
ENDBRANCH  10  16
ENDBRANCH   1  10
BRANCH   4  19
ATOM     19  C   UNL     1       6.965   4.664  13.411  0.00  0.00    +0.000 C 
ATOM     20  O   UNL     1       6.505   3.721  12.795  0.00  0.00    +0.000 OA
BRANCH  19  21
ATOM     21  O   UNL     1       7.918   5.476  12.904  0.00  0.00    +0.000 OA
ATOM     22  H   UNL     1       8.718   5.571  13.453  0.00  0.00    +0.000 HD
ENDBRANCH  19  21
ENDBRANCH   4  19
TORSDOF 5
ENDMDL
MODEL 2
REMARK VINA RESULT:      -7.2      0.249      1.378
REMARK  Name = 
REMARK  6 active torsions:
REMARK  status: ('A' for Active; 'I' for Inactive)
REMARK    1  A    between atoms: C_1  and  C_2
REMARK    2  A    between atoms: C_5  and  N_6
REMARK    3  A    between atoms: N_6  and  C_7
REMARK    4  A    between atoms: C_10  and  C_11
REMARK    5  A    between atoms: C_11  and  O_13
REMARK    6  A    between atoms: C_15  and  N_16
REMARK                            x       y       z     vdW  Elec       q    Type
REMARK                         _______ _______ _______ _____ _____    ______ ____
ROOT
ATOM      1  C   UNL     1       5.723   5.384  17.358  0.00  0.00    +0.000 A 
ATOM      2  C   UNL     1       4.916   5.762  16.272  0.00  0.00    +0.000 A 
ATOM      3  C   UNL     1       5.267   5.444  14.961  0.00  0.00    +0.000 A 
ATOM      4  C   UNL     1       6.470   4.780  14.717  0.00  0.00    +0.000 A 
ATOM      5  C   UNL     1       7.304   4.426  15.786  0.00  0.00    +0.000 A 
ATOM      6  C   UNL     1       6.915   4.670  17.112  0.00  0.00    +0.000 A 
ENDROOT
BRANCH   6   7
ATOM      7  N   UNL     1       7.806   4.354  18.161  0.00  0.00    +0.000 N 
ATOM      8  H   UNL     1       7.390   4.466  19.082  0.00  0.00    +0.000 HD
ATOM      9  H   UNL     1       8.672   4.879  18.089  0.00  0.00    +0.000 HD
ENDBRANCH   6   7
BRANCH   1  10
ATOM     10  N   UNL     1       5.281   5.610  18.680  0.00  0.00    +0.000 N 
ATOM     11  H   UNL     1       5.858   6.253  19.210  0.00  0.00    +0.000 HD
BRANCH  10  16
ATOM     12  C   UNL     1       1.268   2.668  21.538  0.00  0.00    +0.000 C 
ATOM     13  C   UNL     1       2.323   3.432  20.795  0.00  0.00    +0.000 A 
ATOM     14  C   UNL     1       3.402   2.768  20.213  0.00  0.00    +0.000 A 
ATOM     15  C   UNL     1       4.389   3.487  19.536  0.00  0.00    +0.000 A 
ATOM     16  C   UNL     1       4.332   4.884  19.425  0.00  0.00    +0.000 A 
ATOM     17  C   UNL     1       3.244   5.543  20.005  0.00  0.00    +0.000 A 
ATOM     18  C   UNL     1       2.251   4.826  20.687  0.00  0.00    +0.000 A 
ENDBRANCH  10  16
ENDBRANCH   1  10
BRANCH   4  19
ATOM     19  C   UNL     1       6.868   4.353  13.351  0.00  0.00    +0.000 C 
ATOM     20  O   UNL     1       7.610   5.012  12.647  0.00  0.00    +0.000 OA
BRANCH  19  21
ATOM     21  O   UNL     1       6.326   3.183  12.950  0.00  0.00    +0.000 OA
ATOM     22  H   UNL     1       5.433   2.999  13.295  0.00  0.00    +0.000 HD
ENDBRANCH  19  21
ENDBRANCH   4  19
TORSDOF 5
ENDMDL
MODEL 3
REMARK VINA RESULT:      -7.0      3.876      6.225
REMARK  Name = 
REMARK  6 active torsions:
REMARK  status: ('A' for Active; 'I' for Inactive)
REMARK    1  A    between atoms: C_1  and  C_2
REMARK    2  A    between atoms: C_5  and  N_6
REMARK    3  A    between atoms: N_6  and  C_7
REMARK    4  A    between atoms: C_10  and  C_11
REMARK    5  A    between atoms: C_11  and  O_13
REMARK    6  A    between atoms: C_15  and  N_16
REMARK                            x       y       z     vdW  Elec       q    Type
REMARK                         _______ _______ _______ _____ _____    ______ ____
ROOT
ATOM      1  C   UNL     1       4.710   3.620  17.988  0.00  0.00    +0.000 A 
ATOM      2  C   UNL     1       3.651   4.000  17.148  0.00  0.00    +0.000 A 
ATOM      3  C   UNL     1       2.327   3.704  17.469  0.00  0.00    +0.000 A 
ATOM      4  C   UNL     1       2.050   2.970  18.623  0.00  0.00    +0.000 A 
ATOM      5  C   UNL     1       3.099   2.552  19.454  0.00  0.00    +0.000 A 
ATOM      6  C   UNL     1       4.424   2.920  19.179  0.00  0.00    +0.000 A 
ENDROOT
BRANCH   6   7
ATOM      7  N   UNL     1       5.460   2.433  20.006  0.00  0.00    +0.000 N 
ATOM      8  H   UNL     1       5.831   3.141  20.635  0.00  0.00    +0.000 HD
ATOM      9  H   UNL     1       6.204   2.004  19.463  0.00  0.00    +0.000 HD
ENDBRANCH   6   7
BRANCH   1  10
ATOM     10  N   UNL     1       6.027   4.042  17.701  0.00  0.00    +0.000 N 
ATOM     11  H   UNL     1       6.688   3.287  17.566  0.00  0.00    +0.000 HD
BRANCH  10  16
ATOM     12  C   UNL     1       8.494   9.203  18.144  0.00  0.00    +0.000 C 
ATOM     13  C   UNL     1       7.841   7.859  18.028  0.00  0.00    +0.000 A 
ATOM     14  C   UNL     1       6.837   7.637  17.086  0.00  0.00    +0.000 A 
ATOM     15  C   UNL     1       6.223   6.386  16.994  0.00  0.00    +0.000 A 
ATOM     16  C   UNL     1       6.586   5.327  17.837  0.00  0.00    +0.000 A 
ATOM     17  C   UNL     1       7.598   5.554  18.775  0.00  0.00    +0.000 A 
ATOM     18  C   UNL     1       8.219   6.807  18.873  0.00  0.00    +0.000 A 
ENDBRANCH  10  16
ENDBRANCH   1  10
BRANCH   4  19
ATOM     19  C   UNL     1       0.659   2.680  19.055  0.00  0.00    +0.000 C 
ATOM     20  O   UNL     1      -0.108   2.007  18.392  0.00  0.00    +0.000 OA
BRANCH  19  21
ATOM     21  O   UNL     1       0.312   3.238  20.235  0.00  0.00    +0.000 OA
ATOM     22  H   UNL     1       1.053   3.428  20.838  0.00  0.00    +0.000 HD
ENDBRANCH  19  21
ENDBRANCH   4  19
TORSDOF 5
ENDMDL
MODEL 4
REMARK VINA RESULT:      -7.0      3.876      6.280
REMARK  Name = 
REMARK  6 active torsions:
REMARK  status: ('A' for Active; 'I' for Inactive)
REMARK    1  A    between atoms: C_1  and  C_2
REMARK    2  A    between atoms: C_5  and  N_6
REMARK    3  A    between atoms: N_6  and  C_7
REMARK    4  A    between atoms: C_10  and  C_11
REMARK    5  A    between atoms: C_11  and  O_13
REMARK    6  A    between atoms: C_15  and  N_16
REMARK                            x       y       z     vdW  Elec       q    Type
REMARK                         _______ _______ _______ _____ _____    ______ ____
ROOT
ATOM      1  C   UNL     1       4.654   3.612  17.864  0.00  0.00    +0.000 A 
ATOM      2  C   UNL     1       3.552   3.940  17.057  0.00  0.00    +0.000 A 
ATOM      3  C   UNL     1       2.245   3.707  17.483  0.00  0.00    +0.000 A 
ATOM      4  C   UNL     1       2.027   3.087  18.714  0.00  0.00    +0.000 A 
ATOM      5  C   UNL     1       3.117   2.721  19.515  0.00  0.00    +0.000 A 
ATOM      6  C   UNL     1       4.430   3.030  19.129  0.00  0.00    +0.000 A 
ENDROOT
BRANCH   6   7
ATOM      7  N   UNL     1       5.505   2.595  19.933  0.00  0.00    +0.000 N 
ATOM      8  H   UNL     1       6.288   3.244  19.933  0.00  0.00    +0.000 HD
ATOM      9  H   UNL     1       5.811   1.660  19.677  0.00  0.00    +0.000 HD
ENDBRANCH   6   7
BRANCH   1  10
ATOM     10  N   UNL     1       5.958   3.975  17.460  0.00  0.00    +0.000 N 
ATOM     11  H   UNL     1       6.552   3.193  17.212  0.00  0.00    +0.000 HD
BRANCH  10  16
ATOM     12  C   UNL     1       8.425   9.107  18.165  0.00  0.00    +0.000 C 
ATOM     13  C   UNL     1       7.789   7.762  17.981  0.00  0.00    +0.000 A 
ATOM     14  C   UNL     1       8.161   6.685  18.786  0.00  0.00    +0.000 A 
ATOM     15  C   UNL     1       7.574   5.432  18.600  0.00  0.00    +0.000 A 
ATOM     16  C   UNL     1       6.610   5.215  17.606  0.00  0.00    +0.000 A 
ATOM     17  C   UNL     1       6.236   6.299  16.807  0.00  0.00    +0.000 A 
ATOM     18  C   UNL     1       6.821   7.560  16.990  0.00  0.00    +0.000 A 
ENDBRANCH  10  16
ENDBRANCH   1  10
BRANCH   4  19
ATOM     19  C   UNL     1       0.660   2.871  19.254  0.00  0.00    +0.000 C 
ATOM     20  O   UNL     1      -0.135   2.105  18.742  0.00  0.00    +0.000 OA
BRANCH  19  21
ATOM     21  O   UNL     1       0.368   3.607  20.348  0.00  0.00    +0.000 OA
ATOM     22  H   UNL     1      -0.136   3.142  21.040  0.00  0.00    +0.000 HD
ENDBRANCH  19  21
ENDBRANCH   4  19
TORSDOF 5
ENDMDL
MODEL 5
REMARK VINA RESULT:      -6.8      3.337      4.157
REMARK  Name = 
REMARK  6 active torsions:
REMARK  status: ('A' for Active; 'I' for Inactive)
REMARK    1  A    between atoms: C_1  and  C_2
REMARK    2  A    between atoms: C_5  and  N_6
REMARK    3  A    between atoms: N_6  and  C_7
REMARK    4  A    between atoms: C_10  and  C_11
REMARK    5  A    between atoms: C_11  and  O_13
REMARK    6  A    between atoms: C_15  and  N_16
REMARK                            x       y       z     vdW  Elec       q    Type
REMARK                         _______ _______ _______ _____ _____    ______ ____
ROOT
ATOM      1  C   UNL     1       6.713   5.318  17.626  0.00  0.00    +0.000 A 
ATOM      2  C   UNL     1       7.602   5.508  18.696  0.00  0.00    +0.000 A 
ATOM      3  C   UNL     1       8.185   6.749  18.945  0.00  0.00    +0.000 A 
ATOM      4  C   UNL     1       7.921   7.815  18.084  0.00  0.00    +0.000 A 
ATOM      5  C   UNL     1       7.063   7.633  16.990  0.00  0.00    +0.000 A 
ATOM      6  C   UNL     1       6.409   6.409  16.784  0.00  0.00    +0.000 A 
ENDROOT
BRANCH   6   7
ATOM      7  N   UNL     1       5.599   6.245  15.640  0.00  0.00    +0.000 N 
ATOM      8  H   UNL     1       5.898   5.472  15.050  0.00  0.00    +0.000 HD
ATOM      9  H   UNL     1       5.529   7.104  15.103  0.00  0.00    +0.000 HD
ENDBRANCH   6   7
BRANCH   1  10
ATOM     10  N   UNL     1       6.042   4.085  17.474  0.00  0.00    +0.000 N 
ATOM     11  H   UNL     1       6.478   3.450  16.815  0.00  0.00    +0.000 HD
BRANCH  10  16
ATOM     12  C   UNL     1       0.788   2.442  19.091  0.00  0.00    +0.000 C 
ATOM     13  C   UNL     1       2.162   2.877  18.677  0.00  0.00    +0.000 A 
ATOM     14  C   UNL     1       3.217   2.860  19.588  0.00  0.00    +0.000 A 
ATOM     15  C   UNL     1       4.490   3.279  19.198  0.00  0.00    +0.000 A 
ATOM     16  C   UNL     1       4.746   3.732  17.897  0.00  0.00    +0.000 A 
ATOM     17  C   UNL     1       3.687   3.739  16.985  0.00  0.00    +0.000 A 
ATOM     18  C   UNL     1       2.406   3.319  17.370  0.00  0.00    +0.000 A 
ENDBRANCH  10  16
ENDBRANCH   1  10
BRANCH   4  19
ATOM     19  C   UNL     1       8.457   9.178  18.332  0.00  0.00    +0.000 C 
ATOM     20  O   UNL     1       8.214  10.122  17.604  0.00  0.00    +0.000 OA
BRANCH  19  21
ATOM     21  O   UNL     1       9.249   9.277  19.421  0.00  0.00    +0.000 OA
ATOM     22  H   UNL     1       9.129  10.087  19.950  0.00  0.00    +0.000 HD
ENDBRANCH  19  21
ENDBRANCH   4  19
TORSDOF 5
ENDMDL
MODEL 6
REMARK VINA RESULT:      -6.8      3.266      4.022
REMARK  Name = 
REMARK  6 active torsions:
REMARK  status: ('A' for Active; 'I' for Inactive)
REMARK    1  A    between atoms: C_1  and  C_2
REMARK    2  A    between atoms: C_5  and  N_6
REMARK    3  A    between atoms: N_6  and  C_7
REMARK    4  A    between atoms: C_10  and  C_11
REMARK    5  A    between atoms: C_11  and  O_13
REMARK    6  A    between atoms: C_15  and  N_16
REMARK                            x       y       z     vdW  Elec       q    Type
REMARK                         _______ _______ _______ _____ _____    ______ ____
ROOT
ATOM      1  C   UNL     1       6.573   5.268  17.541  0.00  0.00    +0.000 A 
ATOM      2  C   UNL     1       7.468   5.437  18.612  0.00  0.00    +0.000 A 
ATOM      3  C   UNL     1       8.073   6.666  18.866  0.00  0.00    +0.000 A 
ATOM      4  C   UNL     1       7.826   7.741  18.010  0.00  0.00    +0.000 A 
ATOM      5  C   UNL     1       6.964   7.580  16.916  0.00  0.00    +0.000 A 
ATOM      6  C   UNL     1       6.288   6.368  16.706  0.00  0.00    +0.000 A 
ENDROOT
BRANCH   6   7
ATOM      7  N   UNL     1       5.473   6.224  15.562  0.00  0.00    +0.000 N 
ATOM      8  H   UNL     1       5.707   5.403  15.010  0.00  0.00    +0.000 HD
ATOM      9  H   UNL     1       5.481   7.062  14.987  0.00  0.00    +0.000 HD
ENDBRANCH   6   7
BRANCH   1  10
ATOM     10  N   UNL     1       5.880   4.048  17.384  0.00  0.00    +0.000 N 
ATOM     11  H   UNL     1       6.266   3.437  16.674  0.00  0.00    +0.000 HD
BRANCH  10  16
ATOM     12  C   UNL     1       0.708   2.778  19.517  0.00  0.00    +0.000 C 
ATOM     13  C   UNL     1       2.057   3.106  18.952  0.00  0.00    +0.000 A 
ATOM     14  C   UNL     1       2.180   3.620  17.661  0.00  0.00    +0.000 A 
ATOM     15  C   UNL     1       3.441   3.909  17.136  0.00  0.00    +0.000 A 
ATOM     16  C   UNL     1       4.611   3.689  17.876  0.00  0.00    +0.000 A 
ATOM     17  C   UNL     1       4.481   3.180  19.172  0.00  0.00    +0.000 A 
ATOM     18  C   UNL     1       3.218   2.887  19.705  0.00  0.00    +0.000 A 
ENDBRANCH  10  16
ENDBRANCH   1  10
BRANCH   4  19
ATOM     19  C   UNL     1       8.387   9.093  18.264  0.00  0.00    +0.000 C 
ATOM     20  O   UNL     1       8.098  10.061  17.587  0.00  0.00    +0.000 OA
BRANCH  19  21
ATOM     21  O   UNL     1       9.255   9.153  19.296  0.00  0.00    +0.000 OA
ATOM     22  H   UNL     1      10.127   9.534  19.085  0.00  0.00    +0.000 HD
ENDBRANCH  19  21
ENDBRANCH   4  19
TORSDOF 5
ENDMDL
MODEL 7
REMARK VINA RESULT:      -6.8      2.928      4.120
REMARK  Name = 
REMARK  6 active torsions:
REMARK  status: ('A' for Active; 'I' for Inactive)
REMARK    1  A    between atoms: C_1  and  C_2
REMARK    2  A    between atoms: C_5  and  N_6
REMARK    3  A    between atoms: N_6  and  C_7
REMARK    4  A    between atoms: C_10  and  C_11
REMARK    5  A    between atoms: C_11  and  O_13
REMARK    6  A    between atoms: C_15  and  N_16
REMARK                            x       y       z     vdW  Elec       q    Type
REMARK                         _______ _______ _______ _____ _____    ______ ____
ROOT
ATOM      1  C   UNL     1       4.115   5.652  17.911  0.00  0.00    +0.000 A 
ATOM      2  C   UNL     1       5.179   6.506  17.577  0.00  0.00    +0.000 A 
ATOM      3  C   UNL     1       6.049   6.207  16.530  0.00  0.00    +0.000 A 
ATOM      4  C   UNL     1       5.893   5.010  15.830  0.00  0.00    +0.000 A 
ATOM      5  C   UNL     1       4.857   4.130  16.174  0.00  0.00    +0.000 A 
ATOM      6  C   UNL     1       3.929   4.466  17.171  0.00  0.00    +0.000 A 
ENDROOT
BRANCH   6   7
ATOM      7  N   UNL     1       2.935   3.529  17.530  0.00  0.00    +0.000 N 
ATOM      8  H   UNL     1       1.998   3.924  17.523  0.00  0.00    +0.000 HD
ATOM      9  H   UNL     1       3.137   3.092  18.425  0.00  0.00    +0.000 HD
ENDBRANCH   6   7
BRANCH   1  10
ATOM     10  N   UNL     1       3.177   6.041  18.893  0.00  0.00    +0.000 N 
ATOM     11  H   UNL     1       2.885   5.294  19.511  0.00  0.00    +0.000 HD
BRANCH  10  16
ATOM     12  C   UNL     1       0.254  10.965  19.262  0.00  0.00    +0.000 C 
ATOM     13  C   UNL     1       1.013   9.676  19.157  0.00  0.00    +0.000 A 
ATOM     14  C   UNL     1       1.540   9.260  17.935  0.00  0.00    +0.000 A 
ATOM     15  C   UNL     1       2.233   8.051  17.843  0.00  0.00    +0.000 A 
ATOM     16  C   UNL     1       2.415   7.224  18.960  0.00  0.00    +0.000 A 
ATOM     17  C   UNL     1       1.891   7.649  20.184  0.00  0.00    +0.000 A 
ATOM     18  C   UNL     1       1.194   8.862  20.283  0.00  0.00    +0.000 A 
ENDBRANCH  10  16
ENDBRANCH   1  10
BRANCH   4  19
ATOM     19  C   UNL     1       6.744   4.665  14.663  0.00  0.00    +0.000 C 
ATOM     20  O   UNL     1       7.676   5.358  14.302  0.00  0.00    +0.000 OA
BRANCH  19  21
ATOM     21  O   UNL     1       6.385   3.529  14.026  0.00  0.00    +0.000 OA
ATOM     22  H   UNL     1       6.106   2.797  14.607  0.00  0.00    +0.000 HD
ENDBRANCH  19  21
ENDBRANCH   4  19
TORSDOF 5
ENDMDL
MODEL 8
REMARK VINA RESULT:      -6.8      2.974      4.145
REMARK  Name = 
REMARK  6 active torsions:
REMARK  status: ('A' for Active; 'I' for Inactive)
REMARK    1  A    between atoms: C_1  and  C_2
REMARK    2  A    between atoms: C_5  and  N_6
REMARK    3  A    between atoms: N_6  and  C_7
REMARK    4  A    between atoms: C_10  and  C_11
REMARK    5  A    between atoms: C_11  and  O_13
REMARK    6  A    between atoms: C_15  and  N_16
REMARK                            x       y       z     vdW  Elec       q    Type
REMARK                         _______ _______ _______ _____ _____    ______ ____
ROOT
ATOM      1  C   UNL     1       4.058   5.687  17.948  0.00  0.00    +0.000 A 
ATOM      2  C   UNL     1       5.124   6.538  17.610  0.00  0.00    +0.000 A 
ATOM      3  C   UNL     1       6.004   6.223  16.576  0.00  0.00    +0.000 A 
ATOM      4  C   UNL     1       5.856   5.014  15.895  0.00  0.00    +0.000 A 
ATOM      5  C   UNL     1       4.819   4.138  16.243  0.00  0.00    +0.000 A 
ATOM      6  C   UNL     1       3.881   4.489  17.226  0.00  0.00    +0.000 A 
ENDROOT
BRANCH   6   7
ATOM      7  N   UNL     1       2.885   3.557  17.592  0.00  0.00    +0.000 N 
ATOM      8  H   UNL     1       2.025   3.667  17.060  0.00  0.00    +0.000 HD
ATOM      9  H   UNL     1       2.698   3.579  18.590  0.00  0.00    +0.000 HD
ENDBRANCH   6   7
BRANCH   1  10
ATOM     10  N   UNL     1       3.111   6.091  18.915  0.00  0.00    +0.000 N 
ATOM     11  H   UNL     1       2.753   5.338  19.490  0.00  0.00    +0.000 HD
BRANCH  10  16
ATOM     12  C   UNL     1       0.102  10.969  19.203  0.00  0.00    +0.000 C 
ATOM     13  C   UNL     1       0.893   9.697  19.135  0.00  0.00    +0.000 A 
ATOM     14  C   UNL     1       1.110   8.934  20.282  0.00  0.00    +0.000 A 
ATOM     15  C   UNL     1       1.859   7.758  20.214  0.00  0.00    +0.000 A 
ATOM     16  C   UNL     1       2.418   7.314  19.008  0.00  0.00    +0.000 A 
ATOM     17  C   UNL     1       2.192   8.079  17.860  0.00  0.00    +0.000 A 
ATOM     18  C   UNL     1       1.440   9.260  17.922  0.00  0.00    +0.000 A 
ENDBRANCH  10  16
ENDBRANCH   1  10
BRANCH   4  19
ATOM     19  C   UNL     1       6.718   4.651  14.741  0.00  0.00    +0.000 C 
ATOM     20  O   UNL     1       7.662   5.332  14.387  0.00  0.00    +0.000 OA
BRANCH  19  21
ATOM     21  O   UNL     1       6.357   3.514  14.109  0.00  0.00    +0.000 OA
ATOM     22  H   UNL     1       6.540   2.691  14.598  0.00  0.00    +0.000 HD
ENDBRANCH  19  21
ENDBRANCH   4  19
TORSDOF 5
ENDMDL
MODEL 9
REMARK VINA RESULT:      -6.8      1.135      1.398
REMARK  Name = 
REMARK  6 active torsions:
REMARK  status: ('A' for Active; 'I' for Inactive)
REMARK    1  A    between atoms: C_1  and  C_2
REMARK    2  A    between atoms: C_5  and  N_6
REMARK    3  A    between atoms: N_6  and  C_7
REMARK    4  A    between atoms: C_10  and  C_11
REMARK    5  A    between atoms: C_11  and  O_13
REMARK    6  A    between atoms: C_15  and  N_16
REMARK                            x       y       z     vdW  Elec       q    Type
REMARK                         _______ _______ _______ _____ _____    ______ ____
ROOT
ATOM      1  C   UNL     1       5.675   4.886  16.848  0.00  0.00    +0.000 A 
ATOM      2  C   UNL     1       4.896   3.959  16.135  0.00  0.00    +0.000 A 
ATOM      3  C   UNL     1       5.200   3.615  14.819  0.00  0.00    +0.000 A 
ATOM      4  C   UNL     1       6.270   4.240  14.178  0.00  0.00    +0.000 A 
ATOM      5  C   UNL     1       7.036   5.194  14.864  0.00  0.00    +0.000 A 
ATOM      6  C   UNL     1       6.785   5.481  16.214  0.00  0.00    +0.000 A 
ENDROOT
BRANCH   6   7
ATOM      7  N   UNL     1       7.538   6.488  16.855  0.00  0.00    +0.000 N 
ATOM      8  H   UNL     1       6.961   7.234  17.236  0.00  0.00    +0.000 HD
ATOM      9  H   UNL     1       8.258   6.865  16.245  0.00  0.00    +0.000 HD
ENDBRANCH   6   7
BRANCH   1  10
ATOM     10  N   UNL     1       5.418   5.121  18.217  0.00  0.00    +0.000 N 
ATOM     11  H   UNL     1       6.158   5.613  18.703  0.00  0.00    +0.000 HD
BRANCH  10  16
ATOM     12  C   UNL     1       1.520   2.797  21.729  0.00  0.00    +0.000 C 
ATOM     13  C   UNL     1       2.532   3.409  20.806  0.00  0.00    +0.000 A 
ATOM     14  C   UNL     1       2.436   4.750  20.437  0.00  0.00    +0.000 A 
ATOM     15  C   UNL     1       3.374   5.308  19.566  0.00  0.00    +0.000 A 
ATOM     16  C   UNL     1       4.425   4.548  19.035  0.00  0.00    +0.000 A 
ATOM     17  C   UNL     1       4.520   3.206  19.414  0.00  0.00    +0.000 A 
ATOM     18  C   UNL     1       3.582   2.639  20.289  0.00  0.00    +0.000 A 
ENDBRANCH  10  16
ENDBRANCH   1  10
BRANCH   4  19
ATOM     19  C   UNL     1       6.686   3.870  12.801  0.00  0.00    +0.000 C 
ATOM     20  O   UNL     1       7.395   4.582  12.115  0.00  0.00    +0.000 OA
BRANCH  19  21
ATOM     21  O   UNL     1       6.200   2.686  12.370  0.00  0.00    +0.000 OA
ATOM     22  H   UNL     1       6.297   1.944  12.994  0.00  0.00    +0.000 HD
ENDBRANCH  19  21
ENDBRANCH   4  19
TORSDOF 5
ENDMDL
