MODEL 1
REMARK VINA RESULT:      -6.9      0.000      0.000
REMARK  Name = 
REMARK  20 active torsions:
REMARK  status: ('A' for Active; 'I' for Inactive)
REMARK    1  A    between atoms: CG2_1  and  CB_2
REMARK    2  A    between atoms: CB_2  and  OG1_3
REMARK    3  A    between atoms: CB_2  and  CA_4
REMARK    4  A    between atoms: CA_4  and  N_5
REMARK    5  A    between atoms: CA_4  and  C_15
REMARK    6  A    between atoms: C_6  and  CA_8
REMARK    7  A    between atoms: CA_8  and  N_9
REMARK    8  A    between atoms: CA_8  and  CB_10
REMARK    9  A    between atoms: CB_10  and  CG_11
REMARK   10  A    between atoms: CG_11  and  CD_12
REMARK   11  A    between atoms: CD_12  and  OE2_14
REMARK   12  A    between atoms: N_17  and  CA_18
REMARK   13  A    between atoms: CA_18  and  C_19
REMARK   14  A    between atoms: N_21  and  CA_22
REMARK   15  A    between atoms: CA_22  and  CB_23
REMARK   16  A    between atoms: CA_22  and  C_28
REMARK   17  A    between atoms: CB_23  and  CG_24
REMARK   18  A    between atoms: CG_24  and  CD_25
REMARK   19  A    between atoms: CD_25  and  OE2_27
REMARK   20  A    between atoms: C_28  and  OXT_30
REMARK                            x       y       z     vdW  Elec       q    Type
REMARK                         _______ _______ _______ _____ _____    ______ ____
ROOT
ATOM      1  C   THR A   2       3.251   4.671  18.475  0.00  0.00    +0.000 C 
ATOM      2  O   THR A   2       2.872   4.399  19.609  0.00  0.00    +0.000 OA
ATOM      3  N   GLY A   3       3.458   5.970  18.060  0.00  0.00    +0.000 N 
ATOM      4  H   GLY A   3       3.997   6.117  17.211  0.00  0.00    +0.000 HD
ENDROOT
BRANCH   3   5
ATOM      5  CA  GLY A   3       3.241   7.069  18.997  0.00  0.00    +0.000 C 
BRANCH   5   6
ATOM      6  C   GLY A   3       2.211   8.088  18.481  0.00  0.00    +0.000 C 
ATOM      7  O   GLY A   3       2.053   8.330  17.288  0.00  0.00    +0.000 OA
ATOM      8  N   GLU A   4       1.546   8.781  19.478  0.00  0.00    +0.000 N 
ATOM      9  H   GLU A   4       2.016   8.877  20.374  0.00  0.00    +0.000 HD
BRANCH   8  10
ATOM     10  CA  GLU A   4       0.573   9.827  19.138  0.00  0.00    +0.000 C 
BRANCH  10  11
ATOM     11  C   GLU A   4       1.326  11.141  18.905  0.00  0.00    +0.000 C 
ATOM     12  O   GLU A   4       1.330  12.058  19.716  0.00  0.00    +0.000 OA
BRANCH  11  13
ATOM     13  OXT GLU A   4       1.973  11.212  17.722  0.00  0.00    +0.000 OA
ATOM     14  HXT GLU A   4       1.966  12.102  17.300  0.00  0.00    +0.000 HD
ENDBRANCH  11  13
ENDBRANCH  10  11
BRANCH  10  15
ATOM     15  CB  GLU A   4      -0.419   9.961  20.301  0.00  0.00    +0.000 C 
BRANCH  15  16
ATOM     16  CG  GLU A   4      -0.055   9.196  21.571  0.00  0.00    +0.000 C 
BRANCH  16  17
ATOM     17  CD  GLU A   4      -0.107  10.071  22.796  0.00  0.00    +0.000 C 
ATOM     18  OE1 GLU A   4      -0.178  11.289  22.733  0.00  0.00    +0.000 OA
BRANCH  17  19
ATOM     19  OE2 GLU A   4      -0.077   9.397  23.964  0.00  0.00    +0.000 OA
ATOM     20  HE2 GLU A   4       0.317   8.504  23.925  0.00  0.00    +0.000 HD
ENDBRANCH  17  19
ENDBRANCH  16  17
ENDBRANCH  15  16
ENDBRANCH  10  15
ENDBRANCH   8  10
ENDBRANCH   5   6
ENDBRANCH   3   5
BRANCH   1  21
ATOM     21  CA  THR A   2       3.608   3.550  17.472  0.00  0.00    +0.000 C 
BRANCH  21  22
ATOM     22  N   THR A   2       5.045   3.529  17.161  0.00  0.00    +0.000 N 
ATOM     23  C   GLU A   1       5.521   4.375  16.174  0.00  0.00    +0.000 C 
ATOM     24  O   GLU A   1       4.773   4.994  15.419  0.00  0.00    +0.000 OA
ATOM     25  H   THR A   2       5.690   3.210  17.875  0.00  0.00    +0.000 HD
BRANCH  23  26
ATOM     26  CA  GLU A   1       7.058   4.437  16.037  0.00  0.00    +0.000 C 
BRANCH  26  27
ATOM     27  N   GLU A   1       7.430   5.692  15.354  0.00  0.00    +0.000 NA
ATOM     28  H1  GLU A   1       7.271   6.472  15.995  0.00  0.00    +0.000 HD
ATOM     29  H2  GLU A   1       6.792   5.849  14.574  0.00  0.00    +0.000 HD
ENDBRANCH  26  27
BRANCH  26  30
ATOM     30  CB  GLU A   1       7.739   4.419  17.420  0.00  0.00    +0.000 C 
BRANCH  30  31
ATOM     31  CG  GLU A   1       7.583   5.727  18.195  0.00  0.00    +0.000 C 
BRANCH  31  32
ATOM     32  CD  GLU A   1       7.124   5.470  19.605  0.00  0.00    +0.000 C 
ATOM     33  OE1 GLU A   1       6.005   5.064  19.883  0.00  0.00    +0.000 OA
BRANCH  32  34
ATOM     34  OE2 GLU A   1       8.087   5.649  20.531  0.00  0.00    +0.000 OA
ATOM     35  HE2 GLU A   1       8.338   6.582  20.675  0.00  0.00    +0.000 HD
ENDBRANCH  32  34
ENDBRANCH  31  32
ENDBRANCH  30  31
ENDBRANCH  26  30
ENDBRANCH  23  26
ENDBRANCH  21  22
BRANCH  21  37
ATOM     36  CG2 THR A   2       1.608   2.166  18.281  0.00  0.00    +0.000 C 
ATOM     37  CB  THR A   2       3.098   2.168  17.943  0.00  0.00    +0.000 C 
BRANCH  37  38
ATOM     38  OG1 THR A   2       3.854   1.694  19.072  0.00  0.00    +0.000 OA
ATOM     39  HG1 THR A   2       3.597   0.769  19.230  0.00  0.00    +0.000 HD
ENDBRANCH  37  38
ENDBRANCH  21  37
ENDBRANCH   1  21
TORSDOF 19
ENDMDL
MODEL 2
REMARK VINA RESULT:      -6.8      1.345      2.325
REMARK  Name = 
REMARK  20 active torsions:
REMARK  status: ('A' for Active; 'I' for Inactive)
REMARK    1  A    between atoms: CG2_1  and  CB_2
REMARK    2  A    between atoms: CB_2  and  OG1_3
REMARK    3  A    between atoms: CB_2  and  CA_4
REMARK    4  A    between atoms: CA_4  and  N_5
REMARK    5  A    between atoms: CA_4  and  C_15
REMARK    6  A    between atoms: C_6  and  CA_8
REMARK    7  A    between atoms: CA_8  and  N_9
REMARK    8  A    between atoms: CA_8  and  CB_10
REMARK    9  A    between atoms: CB_10  and  CG_11
REMARK   10  A    between atoms: CG_11  and  CD_12
REMARK   11  A    between atoms: CD_12  and  OE2_14
REMARK   12  A    between atoms: N_17  and  CA_18
REMARK   13  A    between atoms: CA_18  and  C_19
REMARK   14  A    between atoms: N_21  and  CA_22
REMARK   15  A    between atoms: CA_22  and  CB_23
REMARK   16  A    between atoms: CA_22  and  C_28
REMARK   17  A    between atoms: CB_23  and  CG_24
REMARK   18  A    between atoms: CG_24  and  CD_25
REMARK   19  A    between atoms: CD_25  and  OE2_27
REMARK   20  A    between atoms: C_28  and  OXT_30
REMARK                            x       y       z     vdW  Elec       q    Type
REMARK                         _______ _______ _______ _____ _____    ______ ____
ROOT
ATOM      1  C   THR A   2       3.249   4.570  18.689  0.00  0.00    +0.000 C 
ATOM      2  O   THR A   2       3.935   4.358  19.683  0.00  0.00    +0.000 OA
ATOM      3  N   GLY A   3       2.414   5.663  18.590  0.00  0.00    +0.000 N 
ATOM      4  H   GLY A   3       2.068   5.914  17.667  0.00  0.00    +0.000 HD
ENDROOT
BRANCH   3   5
ATOM      5  CA  GLY A   3       2.349   6.622  19.690  0.00  0.00    +0.000 C 
BRANCH   5   6
ATOM      6  C   GLY A   3       2.006   8.043  19.211  0.00  0.00    +0.000 C 
ATOM      7  O   GLY A   3       2.469   8.531  18.185  0.00  0.00    +0.000 OA
ATOM      8  N   GLU A   4       1.209   8.762  20.087  0.00  0.00    +0.000 N 
ATOM      9  H   GLU A   4       1.241   8.502  21.069  0.00  0.00    +0.000 HD
BRANCH   8  10
ATOM     10  CA  GLU A   4       0.844  10.154  19.792  0.00  0.00    +0.000 C 
BRANCH  10  11
ATOM     11  C   GLU A   4       0.931  10.968  21.088  0.00  0.00    +0.000 C 
ATOM     12  O   GLU A   4       0.492  10.565  22.157  0.00  0.00    +0.000 OA
BRANCH  11  13
ATOM     13  OXT GLU A   4       1.516  12.177  20.950  0.00  0.00    +0.000 OA
ATOM     14  HXT GLU A   4       1.219  12.692  20.165  0.00  0.00    +0.000 HD
ENDBRANCH  11  13
ENDBRANCH  10  11
BRANCH  10  15
ATOM     15  CB  GLU A   4      -0.582  10.170  19.226  0.00  0.00    +0.000 C 
BRANCH  15  16
ATOM     16  CG  GLU A   4      -1.341  11.485  19.385  0.00  0.00    +0.000 C 
BRANCH  16  17
ATOM     17  CD  GLU A   4      -0.921  12.510  18.365  0.00  0.00    +0.000 C 
ATOM     18  OE1 GLU A   4      -0.119  13.399  18.614  0.00  0.00    +0.000 OA
BRANCH  17  19
ATOM     19  OE2 GLU A   4      -1.498  12.361  17.155  0.00  0.00    +0.000 OA
ATOM     20  HE2 GLU A   4      -2.473  12.407  17.145  0.00  0.00    +0.000 HD
ENDBRANCH  17  19
ENDBRANCH  16  17
ENDBRANCH  15  16
ENDBRANCH  10  15
ENDBRANCH   8  10
ENDBRANCH   5   6
ENDBRANCH   3   5
BRANCH   1  21
ATOM     21  CA  THR A   2       3.358   3.657  17.446  0.00  0.00    +0.000 C 
BRANCH  21  22
ATOM     22  N   THR A   2       4.756   3.431  17.052  0.00  0.00    +0.000 N 
ATOM     23  C   GLU A   1       5.338   4.303  16.147  0.00  0.00    +0.000 C 
ATOM     24  O   GLU A   1       4.684   5.133  15.517  0.00  0.00    +0.000 OA
ATOM     25  H   THR A   2       5.360   2.918  17.683  0.00  0.00    +0.000 HD
BRANCH  23  26
ATOM     26  CA  GLU A   1       6.856   4.119  15.930  0.00  0.00    +0.000 C 
BRANCH  26  27
ATOM     27  N   GLU A   1       7.286   4.968  14.801  0.00  0.00    +0.000 NA
ATOM     28  H1  GLU A   1       8.246   5.276  14.972  0.00  0.00    +0.000 HD
ATOM     29  H2  GLU A   1       6.727   5.821  14.792  0.00  0.00    +0.000 HD
ENDBRANCH  26  27
BRANCH  26  30
ATOM     30  CB  GLU A   1       7.650   4.539  17.182  0.00  0.00    +0.000 C 
BRANCH  30  31
ATOM     31  CG  GLU A   1       7.350   5.964  17.646  0.00  0.00    +0.000 C 
BRANCH  31  32
ATOM     32  CD  GLU A   1       7.822   6.184  19.059  0.00  0.00    +0.000 C 
ATOM     33  OE1 GLU A   1       7.597   5.402  19.971  0.00  0.00    +0.000 OA
BRANCH  32  34
ATOM     34  OE2 GLU A   1       8.587   7.283  19.210  0.00  0.00    +0.000 OA
ATOM     35  HE2 GLU A   1       8.487   7.728  20.074  0.00  0.00    +0.000 HD
ENDBRANCH  32  34
ENDBRANCH  31  32
ENDBRANCH  30  31
ENDBRANCH  26  30
ENDBRANCH  23  26
ENDBRANCH  21  22
BRANCH  21  37
ATOM     36  CG2 THR A   2       1.386   2.464  18.567  0.00  0.00    +0.000 C 
ATOM     37  CB  THR A   2       2.588   2.328  17.634  0.00  0.00    +0.000 C 
BRANCH  37  38
ATOM     38  OG1 THR A   2       3.460   1.288  18.112  0.00  0.00    +0.000 OA
ATOM     39  HG1 THR A   2       4.079   1.690  18.745  0.00  0.00    +0.000 HD
ENDBRANCH  37  38
ENDBRANCH  21  37
ENDBRANCH   1  21
TORSDOF 19
ENDMDL
MODEL 3
REMARK VINA RESULT:      -6.7      4.357      6.801
REMARK  Name = 
REMARK  20 active torsions:
REMARK  status: ('A' for Active; 'I' for Inactive)
REMARK    1  A    between atoms: CG2_1  and  CB_2
REMARK    2  A    between atoms: CB_2  and  OG1_3
REMARK    3  A    between atoms: CB_2  and  CA_4
REMARK    4  A    between atoms: CA_4  and  N_5
REMARK    5  A    between atoms: CA_4  and  C_15
REMARK    6  A    between atoms: C_6  and  CA_8
REMARK    7  A    between atoms: CA_8  and  N_9
REMARK    8  A    between atoms: CA_8  and  CB_10
REMARK    9  A    between atoms: CB_10  and  CG_11
REMARK   10  A    between atoms: CG_11  and  CD_12
REMARK   11  A    between atoms: CD_12  and  OE2_14
REMARK   12  A    between atoms: N_17  and  CA_18
REMARK   13  A    between atoms: CA_18  and  C_19
REMARK   14  A    between atoms: N_21  and  CA_22
REMARK   15  A    between atoms: CA_22  and  CB_23
REMARK   16  A    between atoms: CA_22  and  C_28
REMARK   17  A    between atoms: CB_23  and  CG_24
REMARK   18  A    between atoms: CG_24  and  CD_25
REMARK   19  A    between atoms: CD_25  and  OE2_27
REMARK   20  A    between atoms: C_28  and  OXT_30
REMARK                            x       y       z     vdW  Elec       q    Type
REMARK                         _______ _______ _______ _____ _____    ______ ____
ROOT
ATOM      1  C   THR A   2       7.112   5.668  17.874  0.00  0.00    +0.000 C 
ATOM      2  O   THR A   2       7.802   4.939  18.580  0.00  0.00    +0.000 OA
ATOM      3  N   GLY A   3       7.307   7.032  17.813  0.00  0.00    +0.000 N 
ATOM      4  H   GLY A   3       6.880   7.539  17.042  0.00  0.00    +0.000 HD
ENDROOT
BRANCH   3   5
ATOM      5  CA  GLY A   3       8.381   7.642  18.594  0.00  0.00    +0.000 C 
BRANCH   5   6
ATOM      6  C   GLY A   3       8.457   9.166  18.398  0.00  0.00    +0.000 C 
ATOM      7  O   GLY A   3       7.861   9.754  17.500  0.00  0.00    +0.000 OA
ATOM      8  N   GLU A   4       9.332   9.808  19.259  0.00  0.00    +0.000 N 
ATOM      9  H   GLU A   4      10.099   9.261  19.639  0.00  0.00    +0.000 HD
BRANCH   8  10
ATOM     10  CA  GLU A   4       9.553  11.256  19.155  0.00  0.00    +0.000 C 
BRANCH  10  11
ATOM     11  C   GLU A   4      10.951  11.499  18.576  0.00  0.00    +0.000 C 
ATOM     12  O   GLU A   4      11.952  11.593  19.274  0.00  0.00    +0.000 OA
BRANCH  11  13
ATOM     13  OXT GLU A   4      10.987  11.618  17.231  0.00  0.00    +0.000 OA
ATOM     14  HXT GLU A   4      10.379  11.013  16.747  0.00  0.00    +0.000 HD
ENDBRANCH  11  13
ENDBRANCH  10  11
BRANCH  10  15
ATOM     15  CB  GLU A   4       9.425  11.866  20.557  0.00  0.00    +0.000 C 
BRANCH  15  16
ATOM     16  CG  GLU A   4       8.892  10.930  21.639  0.00  0.00    +0.000 C 
BRANCH  16  17
ATOM     17  CD  GLU A   4       8.177  11.676  22.734  0.00  0.00    +0.000 C 
ATOM     18  OE1 GLU A   4       8.005  11.206  23.849  0.00  0.00    +0.000 OA
BRANCH  17  19
ATOM     19  OE2 GLU A   4       7.752  12.907  22.384  0.00  0.00    +0.000 OA
ATOM     20  HE2 GLU A   4       7.605  13.046  21.429  0.00  0.00    +0.000 HD
ENDBRANCH  17  19
ENDBRANCH  16  17
ENDBRANCH  15  16
ENDBRANCH  10  15
ENDBRANCH   8  10
ENDBRANCH   5   6
ENDBRANCH   3   5
BRANCH   1  21
ATOM     21  CA  THR A   2       6.037   5.073  16.938  0.00  0.00    +0.000 C 
BRANCH  21  22
ATOM     22  N   THR A   2       4.682   5.506  17.312  0.00  0.00    +0.000 N 
ATOM     23  C   GLU A   1       3.712   4.540  17.517  0.00  0.00    +0.000 C 
ATOM     24  O   GLU A   1       3.880   3.360  17.212  0.00  0.00    +0.000 OA
ATOM     25  H   THR A   2       4.570   6.407  17.763  0.00  0.00    +0.000 HD
BRANCH  23  26
ATOM     26  CA  GLU A   1       2.374   5.055  18.092  0.00  0.00    +0.000 C 
BRANCH  26  27
ATOM     27  N   GLU A   1       1.303   4.098  17.749  0.00  0.00    +0.000 NA
ATOM     28  H1  GLU A   1       1.386   3.283  18.361  0.00  0.00    +0.000 HD
ATOM     29  H2  GLU A   1       1.461   3.744  16.806  0.00  0.00    +0.000 HD
ENDBRANCH  26  27
BRANCH  26  30
ATOM     30  CB  GLU A   1       2.441   5.177  19.627  0.00  0.00    +0.000 C 
BRANCH  30  31
ATOM     31  CG  GLU A   1       1.259   4.525  20.344  0.00  0.00    +0.000 C 
BRANCH  31  32
ATOM     32  CD  GLU A   1       1.642   3.183  20.909  0.00  0.00    +0.000 C 
ATOM     33  OE1 GLU A   1       1.550   2.139  20.280  0.00  0.00    +0.000 OA
BRANCH  32  34
ATOM     34  OE2 GLU A   1       2.175   3.247  22.146  0.00  0.00    +0.000 OA
ATOM     35  HE2 GLU A   1       2.114   4.127  22.565  0.00  0.00    +0.000 HD
ENDBRANCH  32  34
ENDBRANCH  31  32
ENDBRANCH  30  31
ENDBRANCH  26  30
ENDBRANCH  23  26
ENDBRANCH  21  22
BRANCH  21  37
ATOM     36  CG2 THR A   2       6.002   4.181  14.535  0.00  0.00    +0.000 C 
ATOM     37  CB  THR A   2       6.344   5.357  15.448  0.00  0.00    +0.000 C 
BRANCH  37  38
ATOM     38  OG1 THR A   2       7.721   5.731  15.265  0.00  0.00    +0.000 OA
ATOM     39  HG1 THR A   2       7.922   5.658  14.316  0.00  0.00    +0.000 HD
ENDBRANCH  37  38
ENDBRANCH  21  37
ENDBRANCH   1  21
TORSDOF 19
ENDMDL
MODEL 4
REMARK VINA RESULT:      -6.7      4.925      7.751
REMARK  Name = 
REMARK  20 active torsions:
REMARK  status: ('A' for Active; 'I' for Inactive)
REMARK    1  A    between atoms: CG2_1  and  CB_2
REMARK    2  A    between atoms: CB_2  and  OG1_3
REMARK    3  A    between atoms: CB_2  and  CA_4
REMARK    4  A    between atoms: CA_4  and  N_5
REMARK    5  A    between atoms: CA_4  and  C_15
REMARK    6  A    between atoms: C_6  and  CA_8
REMARK    7  A    between atoms: CA_8  and  N_9
REMARK    8  A    between atoms: CA_8  and  CB_10
REMARK    9  A    between atoms: CB_10  and  CG_11
REMARK   10  A    between atoms: CG_11  and  CD_12
REMARK   11  A    between atoms: CD_12  and  OE2_14
REMARK   12  A    between atoms: N_17  and  CA_18
REMARK   13  A    between atoms: CA_18  and  C_19
REMARK   14  A    between atoms: N_21  and  CA_22
REMARK   15  A    between atoms: CA_22  and  CB_23
REMARK   16  A    between atoms: CA_22  and  C_28
REMARK   17  A    between atoms: CB_23  and  CG_24
REMARK   18  A    between atoms: CG_24  and  CD_25
REMARK   19  A    between atoms: CD_25  and  OE2_27
REMARK   20  A    between atoms: C_28  and  OXT_30
REMARK                            x       y       z     vdW  Elec       q    Type
REMARK                         _______ _______ _______ _____ _____    ______ ____
ROOT
ATOM      1  C   THR A   2       6.295   6.836  16.917  0.00  0.00    +0.000 C 
ATOM      2  O   THR A   2       5.199   7.285  17.238  0.00  0.00    +0.000 OA
ATOM      3  N   GLY A   3       7.451   7.582  17.007  0.00  0.00    +0.000 N 
ATOM      4  H   GLY A   3       8.339   7.089  16.964  0.00  0.00    +0.000 HD
ENDROOT
BRANCH   3   5
ATOM      5  CA  GLY A   3       7.388   8.949  17.520  0.00  0.00    +0.000 C 
BRANCH   5   6
ATOM      6  C   GLY A   3       8.608   9.308  18.386  0.00  0.00    +0.000 C 
ATOM      7  O   GLY A   3       9.051   8.564  19.256  0.00  0.00    +0.000 OA
ATOM      8  N   GLU A   4       9.104  10.583  18.171  0.00  0.00    +0.000 N 
ATOM      9  H   GLU A   4       8.460  11.280  17.807  0.00  0.00    +0.000 HD
BRANCH   8  10
ATOM     10  CA  GLU A   4      10.232  11.089  18.964  0.00  0.00    +0.000 C 
BRANCH  10  11
ATOM     11  C   GLU A   4       9.683  11.965  20.095  0.00  0.00    +0.000 C 
ATOM     12  O   GLU A   4       8.802  12.797  19.922  0.00  0.00    +0.000 OA
BRANCH  11  13
ATOM     13  OXT GLU A   4      10.263  11.757  21.296  0.00  0.00    +0.000 OA
ATOM     14  HXT GLU A   4      10.969  11.071  21.299  0.00  0.00    +0.000 HD
ENDBRANCH  11  13
ENDBRANCH  10  11
BRANCH  10  15
ATOM     15  CB  GLU A   4      11.150  11.897  18.037  0.00  0.00    +0.000 C 
BRANCH  15  16
ATOM     16  CG  GLU A   4      10.456  12.944  17.169  0.00  0.00    +0.000 C 
BRANCH  16  17
ATOM     17  CD  GLU A   4      11.124  14.291  17.260  0.00  0.00    +0.000 C 
ATOM     18  OE1 GLU A   4      11.581  14.731  18.304  0.00  0.00    +0.000 OA
BRANCH  17  19
ATOM     19  OE2 GLU A   4      11.181  14.964  16.093  0.00  0.00    +0.000 OA
ATOM     20  HE2 GLU A   4      10.575  15.726  16.016  0.00  0.00    +0.000 HD
ENDBRANCH  17  19
ENDBRANCH  16  17
ENDBRANCH  15  16
ENDBRANCH  10  15
ENDBRANCH   8  10
ENDBRANCH   5   6
ENDBRANCH   3   5
BRANCH   1  21
ATOM     21  CA  THR A   2       6.446   5.363  16.476  0.00  0.00    +0.000 C 
BRANCH  21  22
ATOM     22  N   THR A   2       5.381   4.512  17.028  0.00  0.00    +0.000 N 
ATOM     23  C   GLU A   1       5.465   4.123  18.354  0.00  0.00    +0.000 C 
ATOM     24  O   GLU A   1       6.481   4.292  19.027  0.00  0.00    +0.000 OA
ATOM     25  H   THR A   2       4.467   4.535  16.589  0.00  0.00    +0.000 HD
BRANCH  23  26
ATOM     26  CA  GLU A   1       4.222   3.397  18.913  0.00  0.00    +0.000 C 
BRANCH  26  27
ATOM     27  N   GLU A   1       4.659   2.375  19.886  0.00  0.00    +0.000 NA
ATOM     28  H1  GLU A   1       4.216   2.573  20.786  0.00  0.00    +0.000 HD
ATOM     29  H2  GLU A   1       5.660   2.477  20.050  0.00  0.00    +0.000 HD
ENDBRANCH  26  27
BRANCH  26  30
ATOM     30  CB  GLU A   1       3.283   4.383  19.635  0.00  0.00    +0.000 C 
BRANCH  30  31
ATOM     31  CG  GLU A   1       1.874   3.833  19.857  0.00  0.00    +0.000 C 
BRANCH  31  32
ATOM     32  CD  GLU A   1       1.324   3.227  18.594  0.00  0.00    +0.000 C 
ATOM     33  OE1 GLU A   1       0.984   2.056  18.504  0.00  0.00    +0.000 OA
BRANCH  32  34
ATOM     34  OE2 GLU A   1       1.162   4.114  17.591  0.00  0.00    +0.000 OA
ATOM     35  HE2 GLU A   1       1.862   4.793  17.538  0.00  0.00    +0.000 HD
ENDBRANCH  32  34
ENDBRANCH  31  32
ENDBRANCH  30  31
ENDBRANCH  26  30
ENDBRANCH  23  26
ENDBRANCH  21  22
BRANCH  21  37
ATOM     36  CG2 THR A   2       6.168   3.837  14.435  0.00  0.00    +0.000 C 
ATOM     37  CB  THR A   2       6.555   5.227  14.939  0.00  0.00    +0.000 C 
BRANCH  37  38
ATOM     38  OG1 THR A   2       7.879   5.558  14.482  0.00  0.00    +0.000 OA
ATOM     39  HG1 THR A   2       7.883   5.482  13.512  0.00  0.00    +0.000 HD
ENDBRANCH  37  38
ENDBRANCH  21  37
ENDBRANCH   1  21
TORSDOF 19
ENDMDL
MODEL 5
REMARK VINA RESULT:      -6.5      2.119      4.506
REMARK  Name = 
REMARK  20 active torsions:
REMARK  status: ('A' for Active; 'I' for Inactive)
REMARK    1  A    between atoms: CG2_1  and  CB_2
REMARK    2  A    between atoms: CB_2  and  OG1_3
REMARK    3  A    between atoms: CB_2  and  CA_4
REMARK    4  A    between atoms: CA_4  and  N_5
REMARK    5  A    between atoms: CA_4  and  C_15
REMARK    6  A    between atoms: C_6  and  CA_8
REMARK    7  A    between atoms: CA_8  and  N_9
REMARK    8  A    between atoms: CA_8  and  CB_10
REMARK    9  A    between atoms: CB_10  and  CG_11
REMARK   10  A    between atoms: CG_11  and  CD_12
REMARK   11  A    between atoms: CD_12  and  OE2_14
REMARK   12  A    between atoms: N_17  and  CA_18
REMARK   13  A    between atoms: CA_18  and  C_19
REMARK   14  A    between atoms: N_21  and  CA_22
REMARK   15  A    between atoms: CA_22  and  CB_23
REMARK   16  A    between atoms: CA_22  and  C_28
REMARK   17  A    between atoms: CB_23  and  CG_24
REMARK   18  A    between atoms: CG_24  and  CD_25
REMARK   19  A    between atoms: CD_25  and  OE2_27
REMARK   20  A    between atoms: C_28  and  OXT_30
REMARK                            x       y       z     vdW  Elec       q    Type
REMARK                         _______ _______ _______ _____ _____    ______ ____
ROOT
ATOM      1  C   THR A   2       4.703   4.540  18.888  0.00  0.00    +0.000 C 
ATOM      2  O   THR A   2       4.025   3.520  18.808  0.00  0.00    +0.000 OA
ATOM      3  N   GLY A   3       4.179   5.740  19.320  0.00  0.00    +0.000 N 
ATOM      4  H   GLY A   3       4.830   6.471  19.596  0.00  0.00    +0.000 HD
ENDROOT
BRANCH   3   5
ATOM      5  CA  GLY A   3       2.775   5.812  19.718  0.00  0.00    +0.000 C 
BRANCH   5   6
ATOM      6  C   GLY A   3       2.241   7.254  19.731  0.00  0.00    +0.000 C 
ATOM      7  O   GLY A   3       2.301   7.996  18.755  0.00  0.00    +0.000 OA
ATOM      8  N   GLU A   4       1.776   7.679  20.964  0.00  0.00    +0.000 N 
ATOM      9  H   GLU A   4       2.156   7.223  21.789  0.00  0.00    +0.000 HD
BRANCH   8  10
ATOM     10  CA  GLU A   4       1.286   9.052  21.145  0.00  0.00    +0.000 C 
BRANCH  10  11
ATOM     11  C   GLU A   4       1.357   9.406  22.635  0.00  0.00    +0.000 C 
ATOM     12  O   GLU A   4       0.375   9.736  23.287  0.00  0.00    +0.000 OA
BRANCH  11  13
ATOM     13  OXT GLU A   4       2.597   9.341  23.166  0.00  0.00    +0.000 OA
ATOM     14  HXT GLU A   4       2.834  10.093  23.754  0.00  0.00    +0.000 HD
ENDBRANCH  11  13
ENDBRANCH  10  11
BRANCH  10  15
ATOM     15  CB  GLU A   4      -0.158   9.121  20.631  0.00  0.00    +0.000 C 
BRANCH  15  16
ATOM     16  CG  GLU A   4      -0.546  10.417  19.924  0.00  0.00    +0.000 C 
BRANCH  16  17
ATOM     17  CD  GLU A   4       0.357  10.720  18.757  0.00  0.00    +0.000 C 
ATOM     18  OE1 GLU A   4       1.098  11.691  18.731  0.00  0.00    +0.000 OA
BRANCH  17  19
ATOM     19  OE2 GLU A   4       0.284   9.826  17.750  0.00  0.00    +0.000 OA
ATOM     20  HE2 GLU A   4       0.963   9.125  17.758  0.00  0.00    +0.000 HD
ENDBRANCH  17  19
ENDBRANCH  16  17
ENDBRANCH  15  16
ENDBRANCH  10  15
ENDBRANCH   8  10
ENDBRANCH   5   6
ENDBRANCH   3   5
BRANCH   1  21
ATOM     21  CA  THR A   2       6.219   4.504  18.592  0.00  0.00    +0.000 C 
BRANCH  21  22
ATOM     22  N   THR A   2       6.495   4.401  17.151  0.00  0.00    +0.000 N 
ATOM     23  C   GLU A   1       5.696   5.111  16.272  0.00  0.00    +0.000 C 
ATOM     24  O   GLU A   1       4.655   5.662  16.625  0.00  0.00    +0.000 OA
ATOM     25  H   THR A   2       7.431   4.146  16.855  0.00  0.00    +0.000 HD
BRANCH  23  26
ATOM     26  CA  GLU A   1       6.163   5.107  14.800  0.00  0.00    +0.000 C 
BRANCH  26  27
ATOM     27  N   GLU A   1       7.630   5.268  14.760  0.00  0.00    +0.000 NA
ATOM     28  H1  GLU A   1       7.889   6.044  15.373  0.00  0.00    +0.000 HD
ATOM     29  H2  GLU A   1       7.909   5.559  13.823  0.00  0.00    +0.000 HD
ENDBRANCH  26  27
BRANCH  26  30
ATOM     30  CB  GLU A   1       5.803   3.777  14.108  0.00  0.00    +0.000 C 
BRANCH  30  31
ATOM     31  CG  GLU A   1       6.312   3.679  12.670  0.00  0.00    +0.000 C 
BRANCH  31  32
ATOM     32  CD  GLU A   1       5.426   2.787  11.842  0.00  0.00    +0.000 C 
ATOM     33  OE1 GLU A   1       5.738   1.651  11.513  0.00  0.00    +0.000 OA
BRANCH  32  34
ATOM     34  OE2 GLU A   1       4.221   3.323  11.566  0.00  0.00    +0.000 OA
ATOM     35  HE2 GLU A   1       3.587   2.702  11.159  0.00  0.00    +0.000 HD
ENDBRANCH  32  34
ENDBRANCH  31  32
ENDBRANCH  30  31
ENDBRANCH  26  30
ENDBRANCH  23  26
ENDBRANCH  21  22
BRANCH  21  37
ATOM     36  CG2 THR A   2       7.768   6.514  18.229  0.00  0.00    +0.000 C 
ATOM     37  CB  THR A   2       6.964   5.697  19.239  0.00  0.00    +0.000 C 
BRANCH  37  38
ATOM     38  OG1 THR A   2       7.825   5.254  20.303  0.00  0.00    +0.000 OA
ATOM     39  HG1 THR A   2       7.548   4.355  20.551  0.00  0.00    +0.000 HD
ENDBRANCH  37  38
ENDBRANCH  21  37
ENDBRANCH   1  21
TORSDOF 19
ENDMDL
MODEL 6
REMARK VINA RESULT:      -6.5      1.787      2.870
REMARK  Name = 
REMARK  20 active torsions:
REMARK  status: ('A' for Active; 'I' for Inactive)
REMARK    1  A    between atoms: CG2_1  and  CB_2
REMARK    2  A    between atoms: CB_2  and  OG1_3
REMARK    3  A    between atoms: CB_2  and  CA_4
REMARK    4  A    between atoms: CA_4  and  N_5
REMARK    5  A    between atoms: CA_4  and  C_15
REMARK    6  A    between atoms: C_6  and  CA_8
REMARK    7  A    between atoms: CA_8  and  N_9
REMARK    8  A    between atoms: CA_8  and  CB_10
REMARK    9  A    between atoms: CB_10  and  CG_11
REMARK   10  A    between atoms: CG_11  and  CD_12
REMARK   11  A    between atoms: CD_12  and  OE2_14
REMARK   12  A    between atoms: N_17  and  CA_18
REMARK   13  A    between atoms: CA_18  and  C_19
REMARK   14  A    between atoms: N_21  and  CA_22
REMARK   15  A    between atoms: CA_22  and  CB_23
REMARK   16  A    between atoms: CA_22  and  C_28
REMARK   17  A    between atoms: CB_23  and  CG_24
REMARK   18  A    between atoms: CG_24  and  CD_25
REMARK   19  A    between atoms: CD_25  and  OE2_27
REMARK   20  A    between atoms: C_28  and  OXT_30
REMARK                            x       y       z     vdW  Elec       q    Type
REMARK                         _______ _______ _______ _____ _____    ______ ____
ROOT
ATOM      1  C   THR A   2       2.044   4.786  19.580  0.00  0.00    +0.000 C 
ATOM      2  O   THR A   2       1.059   4.305  20.131  0.00  0.00    +0.000 OA
ATOM      3  N   GLY A   3       2.517   6.045  19.885  0.00  0.00    +0.000 N 
ATOM      4  H   GLY A   3       3.458   6.285  19.585  0.00  0.00    +0.000 HD
ENDROOT
BRANCH   3   5
ATOM      5  CA  GLY A   3       1.845   6.837  20.912  0.00  0.00    +0.000 C 
BRANCH   5   6
ATOM      6  C   GLY A   3       1.439   8.232  20.406  0.00  0.00    +0.000 C 
ATOM      7  O   GLY A   3       1.936   8.751  19.411  0.00  0.00    +0.000 OA
ATOM      8  N   GLU A   4       0.539   8.895  21.224  0.00  0.00    +0.000 N 
ATOM      9  H   GLU A   4       0.523   8.638  22.207  0.00  0.00    +0.000 HD
BRANCH   8  10
ATOM     10  CA  GLU A   4       0.103  10.260  20.900  0.00  0.00    +0.000 C 
BRANCH  10  11
ATOM     11  C   GLU A   4      -0.389  10.935  22.186  0.00  0.00    +0.000 C 
ATOM     12  O   GLU A   4      -0.151  10.493  23.302  0.00  0.00    +0.000 OA
BRANCH  11  13
ATOM     13  OXT GLU A   4      -1.124  12.050  21.985  0.00  0.00    +0.000 OA
ATOM     14  HXT GLU A   4      -0.696  12.730  21.416  0.00  0.00    +0.000 HD
ENDBRANCH  11  13
ENDBRANCH  10  11
BRANCH  10  15
ATOM     15  CB  GLU A   4      -1.022  10.173  19.860  0.00  0.00    +0.000 C 
BRANCH  15  16
ATOM     16  CG  GLU A   4      -0.695  10.749  18.484  0.00  0.00    +0.000 C 
BRANCH  16  17
ATOM     17  CD  GLU A   4      -1.338  12.092  18.263  0.00  0.00    +0.000 C 
ATOM     18  OE1 GLU A   4      -1.593  12.860  19.179  0.00  0.00    +0.000 OA
BRANCH  17  19
ATOM     19  OE2 GLU A   4      -1.603  12.377  16.971  0.00  0.00    +0.000 OA
ATOM     20  HE2 GLU A   4      -1.534  13.320  16.726  0.00  0.00    +0.000 HD
ENDBRANCH  17  19
ENDBRANCH  16  17
ENDBRANCH  15  16
ENDBRANCH  10  15
ENDBRANCH   8  10
ENDBRANCH   5   6
ENDBRANCH   3   5
BRANCH   1  21
ATOM     21  CA  THR A   2       2.868   3.956  18.569  0.00  0.00    +0.000 C 
BRANCH  21  22
ATOM     22  N   THR A   2       4.110   4.639  18.180  0.00  0.00    +0.000 N 
ATOM     23  C   GLU A   1       4.530   4.552  16.864  0.00  0.00    +0.000 C 
ATOM     24  O   GLU A   1       4.019   3.773  16.060  0.00  0.00    +0.000 OA
ATOM     25  H   THR A   2       4.421   5.429  18.734  0.00  0.00    +0.000 HD
BRANCH  23  26
ATOM     26  CA  GLU A   1       5.730   5.448  16.488  0.00  0.00    +0.000 C 
BRANCH  26  27
ATOM     27  N   GLU A   1       5.393   6.218  15.274  0.00  0.00    +0.000 NA
ATOM     28  H1  GLU A   1       4.380   6.353  15.244  0.00  0.00    +0.000 HD
ATOM     29  H2  GLU A   1       5.615   5.658  14.451  0.00  0.00    +0.000 HD
ENDBRANCH  26  27
BRANCH  26  30
ATOM     30  CB  GLU A   1       6.052   6.445  17.619  0.00  0.00    +0.000 C 
BRANCH  30  31
ATOM     31  CG  GLU A   1       7.456   6.279  18.199  0.00  0.00    +0.000 C 
BRANCH  31  32
ATOM     32  CD  GLU A   1       7.414   5.565  19.523  0.00  0.00    +0.000 C 
ATOM     33  OE1 GLU A   1       6.385   5.127  20.018  0.00  0.00    +0.000 OA
BRANCH  32  34
ATOM     34  OE2 GLU A   1       8.628   5.378  20.078  0.00  0.00    +0.000 OA
ATOM     35  HE2 GLU A   1       8.793   4.467  20.390  0.00  0.00    +0.000 HD
ENDBRANCH  32  34
ENDBRANCH  31  32
ENDBRANCH  30  31
ENDBRANCH  26  30
ENDBRANCH  23  26
ENDBRANCH  21  22
BRANCH  21  37
ATOM     36  CG2 THR A   2       4.422   2.407  19.894  0.00  0.00    +0.000 C 
ATOM     37  CB  THR A   2       3.134   2.520  19.079  0.00  0.00    +0.000 C 
BRANCH  37  38
ATOM     38  OG1 THR A   2       3.162   1.580  17.991  0.00  0.00    +0.000 OA
ATOM     39  HG1 THR A   2       2.280   1.174  17.929  0.00  0.00    +0.000 HD
ENDBRANCH  37  38
ENDBRANCH  21  37
ENDBRANCH   1  21
TORSDOF 19
ENDMDL
MODEL 7
REMARK VINA RESULT:      -6.4      2.946      9.173
REMARK  Name = 
REMARK  20 active torsions:
REMARK  status: ('A' for Active; 'I' for Inactive)
REMARK    1  A    between atoms: CG2_1  and  CB_2
REMARK    2  A    between atoms: CB_2  and  OG1_3
REMARK    3  A    between atoms: CB_2  and  CA_4
REMARK    4  A    between atoms: CA_4  and  N_5
REMARK    5  A    between atoms: CA_4  and  C_15
REMARK    6  A    between atoms: C_6  and  CA_8
REMARK    7  A    between atoms: CA_8  and  N_9
REMARK    8  A    between atoms: CA_8  and  CB_10
REMARK    9  A    between atoms: CB_10  and  CG_11
REMARK   10  A    between atoms: CG_11  and  CD_12
REMARK   11  A    between atoms: CD_12  and  OE2_14
REMARK   12  A    between atoms: N_17  and  CA_18
REMARK   13  A    between atoms: CA_18  and  C_19
REMARK   14  A    between atoms: N_21  and  CA_22
REMARK   15  A    between atoms: CA_22  and  CB_23
REMARK   16  A    between atoms: CA_22  and  C_28
REMARK   17  A    between atoms: CB_23  and  CG_24
REMARK   18  A    between atoms: CG_24  and  CD_25
REMARK   19  A    between atoms: CD_25  and  OE2_27
REMARK   20  A    between atoms: C_28  and  OXT_30
REMARK                            x       y       z     vdW  Elec       q    Type
REMARK                         _______ _______ _______ _____ _____    ______ ____
ROOT
ATOM      1  C   THR A   2       1.183   8.087  20.753  0.00  0.00    +0.000 C 
ATOM      2  O   THR A   2       0.671   7.494  21.696  0.00  0.00    +0.000 OA
ATOM      3  N   GLY A   3       2.002   7.454  19.842  0.00  0.00    +0.000 N 
ATOM      4  H   GLY A   3       2.192   7.928  18.963  0.00  0.00    +0.000 HD
ENDROOT
BRANCH   3   5
ATOM      5  CA  GLY A   3       2.261   6.022  19.979  0.00  0.00    +0.000 C 
BRANCH   5   6
ATOM      6  C   GLY A   3       3.259   5.502  18.931  0.00  0.00    +0.000 C 
ATOM      7  O   GLY A   3       2.965   4.655  18.093  0.00  0.00    +0.000 OA
ATOM      8  N   GLU A   4       4.545   5.996  19.075  0.00  0.00    +0.000 N 
ATOM      9  H   GLU A   4       4.827   6.303  20.002  0.00  0.00    +0.000 HD
BRANCH   8  10
ATOM     10  CA  GLU A   4       5.621   5.546  18.182  0.00  0.00    +0.000 C 
BRANCH  10  11
ATOM     11  C   GLU A   4       6.964   5.738  18.897  0.00  0.00    +0.000 C 
ATOM     12  O   GLU A   4       7.200   5.269  20.003  0.00  0.00    +0.000 OA
BRANCH  11  13
ATOM     13  OXT GLU A   4       7.860   6.481  18.213  0.00  0.00    +0.000 OA
ATOM     14  HXT GLU A   4       8.321   6.006  17.485  0.00  0.00    +0.000 HD
ENDBRANCH  11  13
ENDBRANCH  10  11
BRANCH  10  15
ATOM     15  CB  GLU A   4       5.560   6.379  16.895  0.00  0.00    +0.000 C 
BRANCH  15  16
ATOM     16  CG  GLU A   4       5.269   5.597  15.616  0.00  0.00    +0.000 C 
BRANCH  16  17
ATOM     17  CD  GLU A   4       6.521   5.027  15.002  0.00  0.00    +0.000 C 
ATOM     18  OE1 GLU A   4       6.500   4.113  14.191  0.00  0.00    +0.000 OA
BRANCH  17  19
ATOM     19  OE2 GLU A   4       7.662   5.613  15.418  0.00  0.00    +0.000 OA
ATOM     20  HE2 GLU A   4       8.069   6.238  14.787  0.00  0.00    +0.000 HD
ENDBRANCH  17  19
ENDBRANCH  16  17
ENDBRANCH  15  16
ENDBRANCH  10  15
ENDBRANCH   8  10
ENDBRANCH   5   6
ENDBRANCH   3   5
BRANCH   1  21
ATOM     21  CA  THR A   2       0.858   9.574  20.485  0.00  0.00    +0.000 C 
BRANCH  21  22
ATOM     22  N   THR A   2      -0.445   9.741  19.825  0.00  0.00    +0.000 N 
ATOM     23  C   GLU A   1      -0.579  10.730  18.866  0.00  0.00    +0.000 C 
ATOM     24  O   GLU A   1       0.278  11.594  18.685  0.00  0.00    +0.000 OA
ATOM     25  H   THR A   2      -1.076   8.948  19.792  0.00  0.00    +0.000 HD
BRANCH  23  26
ATOM     26  CA  GLU A   1      -1.911  10.720  18.083  0.00  0.00    +0.000 C 
BRANCH  26  27
ATOM     27  N   GLU A   1      -2.266  12.107  17.721  0.00  0.00    +0.000 NA
ATOM     28  H1  GLU A   1      -3.140  12.353  18.190  0.00  0.00    +0.000 HD
ATOM     29  H2  GLU A   1      -2.475  12.148  16.723  0.00  0.00    +0.000 HD
ENDBRANCH  26  27
BRANCH  26  30
ATOM     30  CB  GLU A   1      -1.784   9.898  16.785  0.00  0.00    +0.000 C 
BRANCH  30  31
ATOM     31  CG  GLU A   1      -3.127   9.587  16.126  0.00  0.00    +0.000 C 
BRANCH  31  32
ATOM     32  CD  GLU A   1      -3.348  10.451  14.913  0.00  0.00    +0.000 C 
ATOM     33  OE1 GLU A   1      -3.507  10.000  13.788  0.00  0.00    +0.000 OA
BRANCH  32  34
ATOM     34  OE2 GLU A   1      -3.437  11.767  15.193  0.00  0.00    +0.000 OA
ATOM     35  HE2 GLU A   1      -2.880  12.058  15.941  0.00  0.00    +0.000 HD
ENDBRANCH  32  34
ENDBRANCH  31  32
ENDBRANCH  30  31
ENDBRANCH  26  30
ENDBRANCH  23  26
ENDBRANCH  21  22
BRANCH  21  37
ATOM     36  CG2 THR A   2      -0.342  10.512  22.547  0.00  0.00    +0.000 C 
ATOM     37  CB  THR A   2       0.970  10.432  21.768  0.00  0.00    +0.000 C 
BRANCH  37  38
ATOM     38  OG1 THR A   2       1.439  11.758  21.466  0.00  0.00    +0.000 OA
ATOM     39  HG1 THR A   2       2.411  11.730  21.452  0.00  0.00    +0.000 HD
ENDBRANCH  37  38
ENDBRANCH  21  37
ENDBRANCH   1  21
TORSDOF 19
ENDMDL
MODEL 8
REMARK VINA RESULT:      -6.4      2.501      4.661
REMARK  Name = 
REMARK  20 active torsions:
REMARK  status: ('A' for Active; 'I' for Inactive)
REMARK    1  A    between atoms: CG2_1  and  CB_2
REMARK    2  A    between atoms: CB_2  and  OG1_3
REMARK    3  A    between atoms: CB_2  and  CA_4
REMARK    4  A    between atoms: CA_4  and  N_5
REMARK    5  A    between atoms: CA_4  and  C_15
REMARK    6  A    between atoms: C_6  and  CA_8
REMARK    7  A    between atoms: CA_8  and  N_9
REMARK    8  A    between atoms: CA_8  and  CB_10
REMARK    9  A    between atoms: CB_10  and  CG_11
REMARK   10  A    between atoms: CG_11  and  CD_12
REMARK   11  A    between atoms: CD_12  and  OE2_14
REMARK   12  A    between atoms: N_17  and  CA_18
REMARK   13  A    between atoms: CA_18  and  C_19
REMARK   14  A    between atoms: N_21  and  CA_22
REMARK   15  A    between atoms: CA_22  and  CB_23
REMARK   16  A    between atoms: CA_22  and  C_28
REMARK   17  A    between atoms: CB_23  and  CG_24
REMARK   18  A    between atoms: CG_24  and  CD_25
REMARK   19  A    between atoms: CD_25  and  OE2_27
REMARK   20  A    between atoms: C_28  and  OXT_30
REMARK                            x       y       z     vdW  Elec       q    Type
REMARK                         _______ _______ _______ _____ _____    ______ ____
ROOT
ATOM      1  C   THR A   2       4.751   6.822  17.299  0.00  0.00    +0.000 C 
ATOM      2  O   THR A   2       4.659   6.722  16.080  0.00  0.00    +0.000 OA
ATOM      3  N   GLY A   3       3.806   7.480  18.058  0.00  0.00    +0.000 N 
ATOM      4  H   GLY A   3       3.807   7.320  19.061  0.00  0.00    +0.000 HD
ENDROOT
BRANCH   3   5
ATOM      5  CA  GLY A   3       2.638   8.065  17.404  0.00  0.00    +0.000 C 
BRANCH   5   6
ATOM      6  C   GLY A   3       1.727   8.816  18.390  0.00  0.00    +0.000 C 
ATOM      7  O   GLY A   3       1.664   8.539  19.584  0.00  0.00    +0.000 OA
ATOM      8  N   GLU A   4       0.909   9.766  17.800  0.00  0.00    +0.000 N 
ATOM      9  H   GLU A   4       0.674   9.636  16.820  0.00  0.00    +0.000 HD
BRANCH   8  10
ATOM     10  CA  GLU A   4      -0.056  10.524  18.607  0.00  0.00    +0.000 C 
BRANCH  10  11
ATOM     11  C   GLU A   4      -1.337  10.715  17.788  0.00  0.00    +0.000 C 
ATOM     12  O   GLU A   4      -2.209   9.859  17.709  0.00  0.00    +0.000 OA
BRANCH  11  13
ATOM     13  OXT GLU A   4      -1.418  11.899  17.144  0.00  0.00    +0.000 OA
ATOM     14  HXT GLU A   4      -1.830  12.625  17.666  0.00  0.00    +0.000 HD
ENDBRANCH  11  13
ENDBRANCH  10  11
BRANCH  10  15
ATOM     15  CB  GLU A   4       0.573  11.876  18.967  0.00  0.00    +0.000 C 
BRANCH  15  16
ATOM     16  CG  GLU A   4       0.022  12.549  20.222  0.00  0.00    +0.000 C 
BRANCH  16  17
ATOM     17  CD  GLU A   4      -0.303  14.001  19.993  0.00  0.00    +0.000 C 
ATOM     18  OE1 GLU A   4       0.160  14.898  20.682  0.00  0.00    +0.000 OA
BRANCH  17  19
ATOM     19  OE2 GLU A   4      -1.140  14.228  18.960  0.00  0.00    +0.000 OA
ATOM     20  HE2 GLU A   4      -0.713  14.483  18.120  0.00  0.00    +0.000 HD
ENDBRANCH  17  19
ENDBRANCH  16  17
ENDBRANCH  15  16
ENDBRANCH  10  15
ENDBRANCH   8  10
ENDBRANCH   5   6
ENDBRANCH   3   5
BRANCH   1  21
ATOM     21  CA  THR A   2       5.902   6.128  18.063  0.00  0.00    +0.000 C 
BRANCH  21  22
ATOM     22  N   THR A   2       5.672   4.683  18.206  0.00  0.00    +0.000 N 
ATOM     23  C   GLU A   1       4.672   4.252  19.060  0.00  0.00    +0.000 C 
ATOM     24  O   GLU A   1       4.103   5.010  19.845  0.00  0.00    +0.000 OA
ATOM     25  H   THR A   2       5.958   4.071  17.449  0.00  0.00    +0.000 HD
BRANCH  23  26
ATOM     26  CA  GLU A   1       4.363   2.739  19.011  0.00  0.00    +0.000 C 
BRANCH  26  27
ATOM     27  N   GLU A   1       3.781   2.326  20.304  0.00  0.00    +0.000 NA
ATOM     28  H1  GLU A   1       3.294   1.437  20.173  0.00  0.00    +0.000 HD
ATOM     29  H2  GLU A   1       3.058   2.993  20.574  0.00  0.00    +0.000 HD
ENDBRANCH  26  27
BRANCH  26  30
ATOM     30  CB  GLU A   1       3.346   2.417  17.898  0.00  0.00    +0.000 C 
BRANCH  30  31
ATOM     31  CG  GLU A   1       2.252   3.473  17.745  0.00  0.00    +0.000 C 
BRANCH  31  32
ATOM     32  CD  GLU A   1       1.101   3.200  18.676  0.00  0.00    +0.000 C 
ATOM     33  OE1 GLU A   1       0.277   2.318  18.483  0.00  0.00    +0.000 OA
BRANCH  32  34
ATOM     34  OE2 GLU A   1       1.109   3.963  19.787  0.00  0.00    +0.000 OA
ATOM     35  HE2 GLU A   1       0.238   4.332  20.029  0.00  0.00    +0.000 HD
ENDBRANCH  32  34
ENDBRANCH  31  32
ENDBRANCH  30  31
ENDBRANCH  26  30
ENDBRANCH  23  26
ENDBRANCH  21  22
BRANCH  21  37
ATOM     36  CG2 THR A   2       7.678   7.906  17.559  0.00  0.00    +0.000 C 
ATOM     37  CB  THR A   2       7.282   6.435  17.436  0.00  0.00    +0.000 C 
BRANCH  37  38
ATOM     38  OG1 THR A   2       7.324   6.034  16.055  0.00  0.00    +0.000 OA
ATOM     39  HG1 THR A   2       6.468   5.627  15.840  0.00  0.00    +0.000 HD
ENDBRANCH  37  38
ENDBRANCH  21  37
ENDBRANCH   1  21
TORSDOF 19
ENDMDL
MODEL 9
REMARK VINA RESULT:      -6.4      2.692      8.786
REMARK  Name = 
REMARK  20 active torsions:
REMARK  status: ('A' for Active; 'I' for Inactive)
REMARK    1  A    between atoms: CG2_1  and  CB_2
REMARK    2  A    between atoms: CB_2  and  OG1_3
REMARK    3  A    between atoms: CB_2  and  CA_4
REMARK    4  A    between atoms: CA_4  and  N_5
REMARK    5  A    between atoms: CA_4  and  C_15
REMARK    6  A    between atoms: C_6  and  CA_8
REMARK    7  A    between atoms: CA_8  and  N_9
REMARK    8  A    between atoms: CA_8  and  CB_10
REMARK    9  A    between atoms: CB_10  and  CG_11
REMARK   10  A    between atoms: CG_11  and  CD_12
REMARK   11  A    between atoms: CD_12  and  OE2_14
REMARK   12  A    between atoms: N_17  and  CA_18
REMARK   13  A    between atoms: CA_18  and  C_19
REMARK   14  A    between atoms: N_21  and  CA_22
REMARK   15  A    between atoms: CA_22  and  CB_23
REMARK   16  A    between atoms: CA_22  and  C_28
REMARK   17  A    between atoms: CB_23  and  CG_24
REMARK   18  A    between atoms: CG_24  and  CD_25
REMARK   19  A    between atoms: CD_25  and  OE2_27
REMARK   20  A    between atoms: C_28  and  OXT_30
REMARK                            x       y       z     vdW  Elec       q    Type
REMARK                         _______ _______ _______ _____ _____    ______ ____
ROOT
ATOM      1  C   THR A   2       1.607   7.697  20.329  0.00  0.00    +0.000 C 
ATOM      2  O   THR A   2       1.430   6.647  20.937  0.00  0.00    +0.000 OA
ATOM      3  N   GLY A   3       2.191   7.735  19.080  0.00  0.00    +0.000 N 
ATOM      4  H   GLY A   3       2.088   8.585  18.532  0.00  0.00    +0.000 HD
ENDROOT
BRANCH   3   5
ATOM      5  CA  GLY A   3       2.601   6.488  18.439  0.00  0.00    +0.000 C 
BRANCH   5   6
ATOM      6  C   GLY A   3       3.797   6.680  17.491  0.00  0.00    +0.000 C 
ATOM      7  O   GLY A   3       4.082   7.762  16.987  0.00  0.00    +0.000 OA
ATOM      8  N   GLU A   4       4.467   5.509  17.175  0.00  0.00    +0.000 N 
ATOM      9  H   GLU A   4       3.944   4.641  17.235  0.00  0.00    +0.000 HD
BRANCH   8  10
ATOM     10  CA  GLU A   4       5.597   5.527  16.236  0.00  0.00    +0.000 C 
BRANCH  10  11
ATOM     11  C   GLU A   4       5.840   4.099  15.734  0.00  0.00    +0.000 C 
ATOM     12  O   GLU A   4       6.439   3.852  14.696  0.00  0.00    +0.000 OA
BRANCH  11  13
ATOM     13  OXT GLU A   4       5.322   3.134  16.524  0.00  0.00    +0.000 OA
ATOM     14  HXT GLU A   4       4.404   3.303  16.834  0.00  0.00    +0.000 HD
ENDBRANCH  11  13
ENDBRANCH  10  11
BRANCH  10  15
ATOM     15  CB  GLU A   4       6.829   6.068  16.973  0.00  0.00    +0.000 C 
BRANCH  15  16
ATOM     16  CG  GLU A   4       7.607   5.046  17.798  0.00  0.00    +0.000 C 
BRANCH  16  17
ATOM     17  CD  GLU A   4       7.452   5.274  19.278  0.00  0.00    +0.000 C 
ATOM     18  OE1 GLU A   4       8.397   5.248  20.053  0.00  0.00    +0.000 OA
BRANCH  17  19
ATOM     19  OE2 GLU A   4       6.186   5.517  19.675  0.00  0.00    +0.000 OA
ATOM     20  HE2 GLU A   4       5.900   6.450  19.625  0.00  0.00    +0.000 HD
ENDBRANCH  17  19
ENDBRANCH  16  17
ENDBRANCH  15  16
ENDBRANCH  10  15
ENDBRANCH   8  10
ENDBRANCH   5   6
ENDBRANCH   3   5
BRANCH   1  21
ATOM     21  CA  THR A   2       1.093   9.038  20.901  0.00  0.00    +0.000 C 
BRANCH  21  22
ATOM     22  N   THR A   2      -0.188   9.436  20.300  0.00  0.00    +0.000 N 
ATOM     23  C   GLU A   1      -0.169  10.208  19.151  0.00  0.00    +0.000 C 
ATOM     24  O   GLU A   1       0.859  10.734  18.727  0.00  0.00    +0.000 OA
ATOM     25  H   THR A   2      -1.007   8.868  20.485  0.00  0.00    +0.000 HD
BRANCH  23  26
ATOM     26  CA  GLU A   1      -1.540  10.424  18.472  0.00  0.00    +0.000 C 
BRANCH  26  27
ATOM     27  N   GLU A   1      -1.832  11.871  18.429  0.00  0.00    +0.000 NA
ATOM     28  H1  GLU A   1      -1.108  12.333  17.875  0.00  0.00    +0.000 HD
ATOM     29  H2  GLU A   1      -1.741  12.258  19.369  0.00  0.00    +0.000 HD
ENDBRANCH  26  27
BRANCH  26  30
ATOM     30  CB  GLU A   1      -1.533   9.888  17.027  0.00  0.00    +0.000 C 
BRANCH  30  31
ATOM     31  CG  GLU A   1      -2.929   9.610  16.472  0.00  0.00    +0.000 C 
BRANCH  31  32
ATOM     32  CD  GLU A   1      -3.201  10.441  15.247  0.00  0.00    +0.000 C 
ATOM     33  OE1 GLU A   1      -3.441   9.960  14.149  0.00  0.00    +0.000 OA
BRANCH  32  34
ATOM     34  OE2 GLU A   1      -3.236  11.767  15.487  0.00  0.00    +0.000 OA
ATOM     35  HE2 GLU A   1      -3.852  12.031  16.198  0.00  0.00    +0.000 HD
ENDBRANCH  32  34
ENDBRANCH  31  32
ENDBRANCH  30  31
ENDBRANCH  26  30
ENDBRANCH  23  26
ENDBRANCH  21  22
BRANCH  21  37
ATOM     36  CG2 THR A   2      -0.118   9.868  23.002  0.00  0.00    +0.000 C 
ATOM     37  CB  THR A   2       1.025   9.019  22.446  0.00  0.00    +0.000 C 
BRANCH  37  38
ATOM     38  OG1 THR A   2       2.272   9.444  23.025  0.00  0.00    +0.000 OA
ATOM     39  HG1 THR A   2       2.113  10.291  23.476  0.00  0.00    +0.000 HD
ENDBRANCH  37  38
ENDBRANCH  21  37
ENDBRANCH   1  21
TORSDOF 19
ENDMDL
