MODEL 1
REMARK VINA RESULT:      -7.7      0.000      0.000
REMARK  Name = 
REMARK  7 active torsions:
REMARK  status: ('A' for Active; 'I' for Inactive)
REMARK    1  A    between atoms: C_1  and  N_2
REMARK    2  A    between atoms: N_2  and  C_3
REMARK    3  A    between atoms: C_3  and  C_4
REMARK    4  A    between atoms: C_4  and  C_5
REMARK    5  A    between atoms: C_5  and  N_6
REMARK    6  A    between atoms: N_13  and  C_14
REMARK    7  A    between atoms: C_18  and  C_19
REMARK                            x       y       z     vdW  Elec       q    Type
REMARK                         _______ _______ _______ _____ _____    ______ ____
ROOT
ATOM      1  C   UNL     1       8.192   5.519  19.343  0.00  0.00    +0.000 C 
ATOM      2  N   UNL     1       7.206   6.196  18.505  0.00  0.00    +0.000 N 
ATOM      3  C   UNL     1       5.946   5.619  18.486  0.00  0.00    +0.000 C 
ATOM      4  O   UNL     1       5.672   4.638  19.183  0.00  0.00    +0.000 OA
ATOM      5  N   UNL     1       5.033   6.167  17.626  0.00  0.00    +0.000 N 
ATOM      6  H   UNL     1       5.145   7.140  17.398  0.00  0.00    +0.000 HD
ENDROOT
BRANCH   5   7
ATOM      7  C   UNL     1       3.692   5.605  17.518  0.00  0.00    +0.000 C 
ATOM      8  C   UNL     1       3.723   4.103  17.236  0.00  0.00    +0.000 C 
ATOM      9  C   UNL     1       2.324   3.631  17.600  0.00  0.00    +0.000 C 
ATOM     10  C   UNL     1       1.866   4.528  18.746  0.00  0.00    +0.000 C 
ATOM     11  C   UNL     1       2.881   5.690  18.829  0.00  0.00    +0.000 C 
BRANCH  11  12
ATOM     12  C   UNL     1       2.191   7.017  19.078  0.00  0.00    +0.000 A 
ATOM     13  C   UNL     1       2.089   7.969  18.049  0.00  0.00    +0.000 A 
ATOM     14  C   UNL     1       1.567   9.237  18.312  0.00  0.00    +0.000 A 
ATOM     15  C   UNL     1       1.138   9.554  19.596  0.00  0.00    +0.000 A 
ATOM     16  F   UNL     1       0.679  10.785  19.855  0.00  0.00    +0.000 F 
ATOM     17  C   UNL     1       1.203   8.621  20.620  0.00  0.00    +0.000 A 
ATOM     18  C   UNL     1       1.716   7.352  20.358  0.00  0.00    +0.000 A 
ENDBRANCH  11  12
ENDBRANCH   5   7
BRANCH   2  19
ATOM     19  C   UNL     1       7.641   7.339  17.697  0.00  0.00    +0.000 C 
BRANCH  19  20
ATOM     20  C   UNL     1       8.524   8.324  18.469  0.00  0.00    +0.000 C 
BRANCH  20  21
ATOM     21  C   UNL     1       8.364   9.768  18.002  0.00  0.00    +0.000 C 
BRANCH  21  22
ATOM     22  N   UNL     1       9.334  10.650  18.620  0.00  0.00    +0.000 N 
ATOM     23  C   UNL     1       9.479  10.891  19.955  0.00  0.00    +0.000 A 
ATOM     24  C   UNL     1      10.508  11.798  20.049  0.00  0.00    +0.000 A 
ATOM     25  N   UNL     1      10.985  12.113  18.803  0.00  0.00    +0.000 NA
ATOM     26  C   UNL     1      10.257  11.413  17.962  0.00  0.00    +0.000 A 
ENDBRANCH  21  22
ENDBRANCH  20  21
ENDBRANCH  19  20
ENDBRANCH   2  19
TORSDOF 6
ENDMDL
MODEL 2
REMARK VINA RESULT:      -7.6      3.728      6.212
REMARK  Name = 
REMARK  7 active torsions:
REMARK  status: ('A' for Active; 'I' for Inactive)
REMARK    1  A    between atoms: C_1  and  N_2
REMARK    2  A    between atoms: N_2  and  C_3
REMARK    3  A    between atoms: C_3  and  C_4
REMARK    4  A    between atoms: C_4  and  C_5
REMARK    5  A    between atoms: C_5  and  N_6
REMARK    6  A    between atoms: N_13  and  C_14
REMARK    7  A    between atoms: C_18  and  C_19
REMARK                            x       y       z     vdW  Elec       q    Type
REMARK                         _______ _______ _______ _____ _____    ______ ____
ROOT
ATOM      1  C   UNL     1       1.154   8.627  21.635  0.00  0.00    +0.000 C 
ATOM      2  N   UNL     1       1.434   8.280  20.244  0.00  0.00    +0.000 N 
ATOM      3  C   UNL     1       1.936   7.004  20.041  0.00  0.00    +0.000 C 
ATOM      4  O   UNL     1       2.072   6.205  20.971  0.00  0.00    +0.000 OA
ATOM      5  N   UNL     1       2.310   6.689  18.762  0.00  0.00    +0.000 N 
ATOM      6  H   UNL     1       1.841   7.171  18.015  0.00  0.00    +0.000 HD
ENDROOT
BRANCH   5   7
ATOM      7  C   UNL     1       2.876   5.379  18.461  0.00  0.00    +0.000 C 
ATOM      8  C   UNL     1       1.815   4.403  17.949  0.00  0.00    +0.000 C 
ATOM      9  C   UNL     1       2.623   3.300  17.283  0.00  0.00    +0.000 C 
ATOM     10  C   UNL     1       3.864   3.977  16.713  0.00  0.00    +0.000 C 
ATOM     11  C   UNL     1       3.904   5.402  17.310  0.00  0.00    +0.000 C 
BRANCH  11  12
ATOM     12  C   UNL     1       5.311   5.800  17.709  0.00  0.00    +0.000 A 
ATOM     13  C   UNL     1       5.930   5.208  18.823  0.00  0.00    +0.000 A 
ATOM     14  C   UNL     1       7.174   5.664  19.264  0.00  0.00    +0.000 A 
ATOM     15  C   UNL     1       7.806   6.703  18.591  0.00  0.00    +0.000 A 
ATOM     16  F   UNL     1       8.977   7.169  19.044  0.00  0.00    +0.000 F 
ATOM     17  C   UNL     1       7.226   7.285  17.473  0.00  0.00    +0.000 A 
ATOM     18  C   UNL     1       5.989   6.826  17.026  0.00  0.00    +0.000 A 
ENDBRANCH  11  12
ENDBRANCH   5   7
BRANCH   2  19
ATOM     19  C   UNL     1       1.264   9.311  19.217  0.00  0.00    +0.000 C 
BRANCH  19  20
ATOM     20  C   UNL     1       0.690  10.621  19.766  0.00  0.00    +0.000 C 
BRANCH  20  21
ATOM     21  C   UNL     1       0.633  11.735  18.723  0.00  0.00    +0.000 C 
BRANCH  21  22
ATOM     22  N   UNL     1       1.634  12.756  18.962  0.00  0.00    +0.000 N 
ATOM     23  C   UNL     1       1.684  13.611  20.024  0.00  0.00    +0.000 A 
ATOM     24  C   UNL     1       2.793  14.394  19.805  0.00  0.00    +0.000 A 
ATOM     25  N   UNL     1       3.411  14.034  18.635  0.00  0.00    +0.000 NA
ATOM     26  C   UNL     1       2.689  13.051  18.146  0.00  0.00    +0.000 A 
ENDBRANCH  21  22
ENDBRANCH  20  21
ENDBRANCH  19  20
ENDBRANCH   2  19
TORSDOF 6
ENDMDL
MODEL 3
REMARK VINA RESULT:      -7.6      4.028      7.144
REMARK  Name = 
REMARK  7 active torsions:
REMARK  status: ('A' for Active; 'I' for Inactive)
REMARK    1  A    between atoms: C_1  and  N_2
REMARK    2  A    between atoms: N_2  and  C_3
REMARK    3  A    between atoms: C_3  and  C_4
REMARK    4  A    between atoms: C_4  and  C_5
REMARK    5  A    between atoms: C_5  and  N_6
REMARK    6  A    between atoms: N_13  and  C_14
REMARK    7  A    between atoms: C_18  and  C_19
REMARK                            x       y       z     vdW  Elec       q    Type
REMARK                         _______ _______ _______ _____ _____    ______ ____
ROOT
ATOM      1  C   UNL     1       1.189   8.934  21.244  0.00  0.00    +0.000 C 
ATOM      2  N   UNL     1       1.455   8.466  19.886  0.00  0.00    +0.000 N 
ATOM      3  C   UNL     1       1.958   7.178  19.791  0.00  0.00    +0.000 C 
ATOM      4  O   UNL     1       2.105   6.464  20.787  0.00  0.00    +0.000 OA
ATOM      5  N   UNL     1       2.319   6.752  18.541  0.00  0.00    +0.000 N 
ATOM      6  H   UNL     1       1.840   7.165  17.759  0.00  0.00    +0.000 HD
ENDROOT
BRANCH   5   7
ATOM      7  C   UNL     1       2.885   5.421  18.351  0.00  0.00    +0.000 C 
ATOM      8  C   UNL     1       1.838   4.420  17.860  0.00  0.00    +0.000 C 
ATOM      9  C   UNL     1       2.662   3.270  17.303  0.00  0.00    +0.000 C 
ATOM     10  C   UNL     1       3.932   3.900  16.742  0.00  0.00    +0.000 C 
ATOM     11  C   UNL     1       3.960   5.361  17.246  0.00  0.00    +0.000 C 
BRANCH  11  12
ATOM     12  C   UNL     1       5.353   5.776  17.676  0.00  0.00    +0.000 A 
ATOM     13  C   UNL     1       5.945   5.205  18.815  0.00  0.00    +0.000 A 
ATOM     14  C   UNL     1       7.173   5.677  19.283  0.00  0.00    +0.000 A 
ATOM     15  C   UNL     1       7.816   6.711  18.612  0.00  0.00    +0.000 A 
ATOM     16  F   UNL     1       8.971   7.192  19.089  0.00  0.00    +0.000 F 
ATOM     17  C   UNL     1       7.263   7.271  17.469  0.00  0.00    +0.000 A 
ATOM     18  C   UNL     1       6.042   6.796  16.996  0.00  0.00    +0.000 A 
ENDBRANCH  11  12
ENDBRANCH   5   7
BRANCH   2  19
ATOM     19  C   UNL     1       1.271   9.402  18.774  0.00  0.00    +0.000 C 
BRANCH  19  20
ATOM     20  C   UNL     1      -0.002  10.245  18.898  0.00  0.00    +0.000 C 
BRANCH  20  21
ATOM     21  C   UNL     1       0.278  11.737  19.053  0.00  0.00    +0.000 C 
BRANCH  21  22
ATOM     22  N   UNL     1      -0.173  12.245  20.334  0.00  0.00    +0.000 N 
ATOM     23  C   UNL     1       0.391  13.260  21.050  0.00  0.00    +0.000 A 
ATOM     24  C   UNL     1      -0.371  13.365  22.189  0.00  0.00    +0.000 A 
ATOM     25  N   UNL     1      -1.379  12.436  22.180  0.00  0.00    +0.000 NA
ATOM     26  C   UNL     1      -1.233  11.771  21.055  0.00  0.00    +0.000 A 
ENDBRANCH  21  22
ENDBRANCH  20  21
ENDBRANCH  19  20
ENDBRANCH   2  19
TORSDOF 6
ENDMDL
MODEL 4
REMARK VINA RESULT:      -7.5      1.748      2.551
REMARK  Name = 
REMARK  7 active torsions:
REMARK  status: ('A' for Active; 'I' for Inactive)
REMARK    1  A    between atoms: C_1  and  N_2
REMARK    2  A    between atoms: N_2  and  C_3
REMARK    3  A    between atoms: C_3  and  C_4
REMARK    4  A    between atoms: C_4  and  C_5
REMARK    5  A    between atoms: C_5  and  N_6
REMARK    6  A    between atoms: N_13  and  C_14
REMARK    7  A    between atoms: C_18  and  C_19
REMARK                            x       y       z     vdW  Elec       q    Type
REMARK                         _______ _______ _______ _____ _____    ______ ____
ROOT
ATOM      1  C   UNL     1       6.602   4.364  15.215  0.00  0.00    +0.000 C 
ATOM      2  N   UNL     1       6.378   4.432  16.657  0.00  0.00    +0.000 N 
ATOM      3  C   UNL     1       5.066   4.249  17.063  0.00  0.00    +0.000 C 
ATOM      4  O   UNL     1       4.169   3.986  16.258  0.00  0.00    +0.000 OA
ATOM      5  N   UNL     1       4.809   4.416  18.398  0.00  0.00    +0.000 N 
ATOM      6  H   UNL     1       5.564   4.235  19.036  0.00  0.00    +0.000 HD
ENDROOT
BRANCH   5   7
ATOM      7  C   UNL     1       3.451   4.272  18.910  0.00  0.00    +0.000 C 
ATOM      8  C   UNL     1       3.250   2.938  19.629  0.00  0.00    +0.000 C 
ATOM      9  C   UNL     1       1.990   3.151  20.453  0.00  0.00    +0.000 C 
ATOM     10  C   UNL     1       1.992   4.624  20.845  0.00  0.00    +0.000 C 
ATOM     11  C   UNL     1       3.091   5.305  19.998  0.00  0.00    +0.000 C 
BRANCH  11  12
ATOM     12  C   UNL     1       2.640   6.657  19.482  0.00  0.00    +0.000 A 
ATOM     13  C   UNL     1       1.878   7.512  20.297  0.00  0.00    +0.000 A 
ATOM     14  C   UNL     1       1.357   8.700  19.780  0.00  0.00    +0.000 A 
ATOM     15  C   UNL     1       1.603   9.042  18.455  0.00  0.00    +0.000 A 
ATOM     16  F   UNL     1       1.065  10.159  17.949  0.00  0.00    +0.000 F 
ATOM     17  C   UNL     1       2.375   8.227  17.640  0.00  0.00    +0.000 A 
ATOM     18  C   UNL     1       2.903   7.045  18.156  0.00  0.00    +0.000 A 
ENDBRANCH  11  12
ENDBRANCH   5   7
BRANCH   2  19
ATOM     19  C   UNL     1       7.508   4.777  17.525  0.00  0.00    +0.000 C 
BRANCH  19  20
ATOM     20  C   UNL     1       7.306   6.092  18.284  0.00  0.00    +0.000 C 
BRANCH  20  21
ATOM     21  C   UNL     1       7.258   7.313  17.369  0.00  0.00    +0.000 C 
BRANCH  21  22
ATOM     22  N   UNL     1       7.993   8.435  17.921  0.00  0.00    +0.000 N 
ATOM     23  C   UNL     1       8.767   8.425  19.045  0.00  0.00    +0.000 A 
ATOM     24  C   UNL     1       9.239   9.710  19.170  0.00  0.00    +0.000 A 
ATOM     25  N   UNL     1       8.764  10.496  18.152  0.00  0.00    +0.000 NA
ATOM     26  C   UNL     1       8.013   9.705  17.419  0.00  0.00    +0.000 A 
ENDBRANCH  21  22
ENDBRANCH  20  21
ENDBRANCH  19  20
ENDBRANCH   2  19
TORSDOF 6
ENDMDL
MODEL 5
REMARK VINA RESULT:      -7.5      4.037      7.830
REMARK  Name = 
REMARK  7 active torsions:
REMARK  status: ('A' for Active; 'I' for Inactive)
REMARK    1  A    between atoms: C_1  and  N_2
REMARK    2  A    between atoms: N_2  and  C_3
REMARK    3  A    between atoms: C_3  and  C_4
REMARK    4  A    between atoms: C_4  and  C_5
REMARK    5  A    between atoms: C_5  and  N_6
REMARK    6  A    between atoms: N_13  and  C_14
REMARK    7  A    between atoms: C_18  and  C_19
REMARK                            x       y       z     vdW  Elec       q    Type
REMARK                         _______ _______ _______ _____ _____    ______ ____
ROOT
ATOM      1  C   UNL     1       1.440   9.364  20.667  0.00  0.00    +0.000 C 
ATOM      2  N   UNL     1       1.483   8.645  19.397  0.00  0.00    +0.000 N 
ATOM      3  C   UNL     1       2.026   7.371  19.455  0.00  0.00    +0.000 C 
ATOM      4  O   UNL     1       2.385   6.868  20.523  0.00  0.00    +0.000 OA
ATOM      5  N   UNL     1       2.179   6.715  18.263  0.00  0.00    +0.000 N 
ATOM      6  H   UNL     1       1.548   6.960  17.520  0.00  0.00    +0.000 HD
ENDROOT
BRANCH   5   7
ATOM      7  C   UNL     1       2.769   5.381  18.227  0.00  0.00    +0.000 C 
ATOM      8  C   UNL     1       1.750   4.317  17.820  0.00  0.00    +0.000 C 
ATOM      9  C   UNL     1       2.604   3.129  17.405  0.00  0.00    +0.000 C 
ATOM     10  C   UNL     1       3.878   3.719  16.810  0.00  0.00    +0.000 C 
ATOM     11  C   UNL     1       3.872   5.225  17.158  0.00  0.00    +0.000 C 
BRANCH  11  12
ATOM     12  C   UNL     1       5.248   5.707  17.574  0.00  0.00    +0.000 A 
ATOM     13  C   UNL     1       5.873   5.175  18.714  0.00  0.00    +0.000 A 
ATOM     14  C   UNL     1       7.082   5.708  19.168  0.00  0.00    +0.000 A 
ATOM     15  C   UNL     1       7.672   6.762  18.481  0.00  0.00    +0.000 A 
ATOM     16  F   UNL     1       8.808   7.300  18.944  0.00  0.00    +0.000 F 
ATOM     17  C   UNL     1       7.087   7.285  17.337  0.00  0.00    +0.000 A 
ATOM     18  C   UNL     1       5.885   6.750  16.878  0.00  0.00    +0.000 A 
ENDBRANCH  11  12
ENDBRANCH   5   7
BRANCH   2  19
ATOM     19  C   UNL     1       1.056   9.343  18.181  0.00  0.00    +0.000 C 
BRANCH  19  20
ATOM     20  C   UNL     1       0.222  10.596  18.466  0.00  0.00    +0.000 C 
BRANCH  20  21
ATOM     21  C   UNL     1      -1.252  10.293  18.719  0.00  0.00    +0.000 C 
BRANCH  21  22
ATOM     22  N   UNL     1      -2.041  10.381  17.506  0.00  0.00    +0.000 N 
ATOM     23  C   UNL     1      -2.884   9.427  17.014  0.00  0.00    +0.000 A 
ATOM     24  C   UNL     1      -3.387   9.956  15.848  0.00  0.00    +0.000 A 
ATOM     25  N   UNL     1      -2.864  11.204  15.624  0.00  0.00    +0.000 NA
ATOM     26  C   UNL     1      -2.053  11.432  16.633  0.00  0.00    +0.000 A 
ENDBRANCH  21  22
ENDBRANCH  20  21
ENDBRANCH  19  20
ENDBRANCH   2  19
TORSDOF 6
ENDMDL
MODEL 6
REMARK VINA RESULT:      -7.5      4.505      8.305
REMARK  Name = 
REMARK  7 active torsions:
REMARK  status: ('A' for Active; 'I' for Inactive)
REMARK    1  A    between atoms: C_1  and  N_2
REMARK    2  A    between atoms: N_2  and  C_3
REMARK    3  A    between atoms: C_3  and  C_4
REMARK    4  A    between atoms: C_4  and  C_5
REMARK    5  A    between atoms: C_5  and  N_6
REMARK    6  A    between atoms: N_13  and  C_14
REMARK    7  A    between atoms: C_18  and  C_19
REMARK                            x       y       z     vdW  Elec       q    Type
REMARK                         _______ _______ _______ _____ _____    ______ ____
ROOT
ATOM      1  C   UNL     1       0.862  10.635  21.176  0.00  0.00    +0.000 C 
ATOM      2  N   UNL     1       0.931   9.575  20.174  0.00  0.00    +0.000 N 
ATOM      3  C   UNL     1       1.487   8.382  20.609  0.00  0.00    +0.000 C 
ATOM      4  O   UNL     1       1.837   8.220  21.782  0.00  0.00    +0.000 OA
ATOM      5  N   UNL     1       1.665   7.408  19.664  0.00  0.00    +0.000 N 
ATOM      6  H   UNL     1       1.041   7.415  18.876  0.00  0.00    +0.000 HD
ENDROOT
BRANCH   5   7
ATOM      7  C   UNL     1       2.270   6.131  20.027  0.00  0.00    +0.000 C 
ATOM      8  C   UNL     1       1.256   5.176  20.656  0.00  0.00    +0.000 C 
ATOM      9  C   UNL     1       1.918   3.812  20.546  0.00  0.00    +0.000 C 
ATOM     10  C   UNL     1       2.747   3.852  19.266  0.00  0.00    +0.000 C 
ATOM     11  C   UNL     1       2.789   5.330  18.814  0.00  0.00    +0.000 C 
BRANCH  11  12
ATOM     12  C   UNL     1       4.167   5.723  18.321  0.00  0.00    +0.000 A 
ATOM     13  C   UNL     1       5.314   5.341  19.036  0.00  0.00    +0.000 A 
ATOM     14  C   UNL     1       6.573   5.809  18.652  0.00  0.00    +0.000 A 
ATOM     15  C   UNL     1       6.690   6.649  17.550  0.00  0.00    +0.000 A 
ATOM     16  F   UNL     1       7.892   7.132  17.211  0.00  0.00    +0.000 F 
ATOM     17  C   UNL     1       5.574   7.017  16.813  0.00  0.00    +0.000 A 
ATOM     18  C   UNL     1       4.319   6.545  17.189  0.00  0.00    +0.000 A 
ENDBRANCH  11  12
ENDBRANCH   5   7
BRANCH   2  19
ATOM     19  C   UNL     1       0.512   9.879  18.803  0.00  0.00    +0.000 C 
BRANCH  19  20
ATOM     20  C   UNL     1      -0.997  10.101  18.667  0.00  0.00    +0.000 C 
BRANCH  20  21
ATOM     21  C   UNL     1      -1.351  11.383  17.918  0.00  0.00    +0.000 C 
BRANCH  21  22
ATOM     22  N   UNL     1      -2.539  11.226  17.103  0.00  0.00    +0.000 N 
ATOM     23  C   UNL     1      -2.590  10.760  15.821  0.00  0.00    +0.000 A 
ATOM     24  C   UNL     1      -3.919  10.808  15.471  0.00  0.00    +0.000 A 
ATOM     25  N   UNL     1      -4.671  11.295  16.509  0.00  0.00    +0.000 NA
ATOM     26  C   UNL     1      -3.815  11.544  17.476  0.00  0.00    +0.000 A 
ENDBRANCH  21  22
ENDBRANCH  20  21
ENDBRANCH  19  20
ENDBRANCH   2  19
TORSDOF 6
ENDMDL
MODEL 7
REMARK VINA RESULT:      -7.5      4.088      7.203
REMARK  Name = 
REMARK  7 active torsions:
REMARK  status: ('A' for Active; 'I' for Inactive)
REMARK    1  A    between atoms: C_1  and  N_2
REMARK    2  A    between atoms: N_2  and  C_3
REMARK    3  A    between atoms: C_3  and  C_4
REMARK    4  A    between atoms: C_4  and  C_5
REMARK    5  A    between atoms: C_5  and  N_6
REMARK    6  A    between atoms: N_13  and  C_14
REMARK    7  A    between atoms: C_18  and  C_19
REMARK                            x       y       z     vdW  Elec       q    Type
REMARK                         _______ _______ _______ _____ _____    ______ ____
ROOT
ATOM      1  C   UNL     1       1.054   9.138  20.882  0.00  0.00    +0.000 C 
ATOM      2  N   UNL     1       1.403   8.600  19.569  0.00  0.00    +0.000 N 
ATOM      3  C   UNL     1       1.901   7.307  19.571  0.00  0.00    +0.000 C 
ATOM      4  O   UNL     1       1.978   6.644  20.609  0.00  0.00    +0.000 OA
ATOM      5  N   UNL     1       2.338   6.817  18.370  0.00  0.00    +0.000 N 
ATOM      6  H   UNL     1       1.914   7.192  17.539  0.00  0.00    +0.000 HD
ENDROOT
BRANCH   5   7
ATOM      7  C   UNL     1       2.904   5.475  18.284  0.00  0.00    +0.000 C 
ATOM      8  C   UNL     1       1.866   4.445  17.841  0.00  0.00    +0.000 C 
ATOM      9  C   UNL     1       2.699   3.258  17.381  0.00  0.00    +0.000 C 
ATOM     10  C   UNL     1       3.982   3.847  16.805  0.00  0.00    +0.000 C 
ATOM     11  C   UNL     1       4.003   5.339  17.208  0.00  0.00    +0.000 C 
BRANCH  11  12
ATOM     12  C   UNL     1       5.387   5.781  17.639  0.00  0.00    +0.000 A 
ATOM     13  C   UNL     1       6.008   5.191  18.752  0.00  0.00    +0.000 A 
ATOM     14  C   UNL     1       7.227   5.684  19.224  0.00  0.00    +0.000 A 
ATOM     15  C   UNL     1       7.832   6.758  18.581  0.00  0.00    +0.000 A 
ATOM     16  F   UNL     1       8.977   7.258  19.062  0.00  0.00    +0.000 F 
ATOM     17  C   UNL     1       7.250   7.339  17.463  0.00  0.00    +0.000 A 
ATOM     18  C   UNL     1       6.039   6.843  16.986  0.00  0.00    +0.000 A 
ENDBRANCH  11  12
ENDBRANCH   5   7
BRANCH   2  19
ATOM     19  C   UNL     1       1.298   9.480  18.402  0.00  0.00    +0.000 C 
BRANCH  19  20
ATOM     20  C   UNL     1       1.066  10.949  18.772  0.00  0.00    +0.000 C 
BRANCH  20  21
ATOM     21  C   UNL     1      -0.399  11.367  18.681  0.00  0.00    +0.000 C 
BRANCH  21  22
ATOM     22  N   UNL     1      -0.599  12.741  19.098  0.00  0.00    +0.000 N 
ATOM     23  C   UNL     1       0.050  13.840  18.614  0.00  0.00    +0.000 A 
ATOM     24  C   UNL     1      -0.462  14.902  19.320  0.00  0.00    +0.000 A 
ATOM     25  N   UNL     1      -1.403  14.471  20.221  0.00  0.00    +0.000 NA
ATOM     26  C   UNL     1      -1.460  13.166  20.070  0.00  0.00    +0.000 A 
ENDBRANCH  21  22
ENDBRANCH  20  21
ENDBRANCH  19  20
ENDBRANCH   2  19
TORSDOF 6
ENDMDL
MODEL 8
REMARK VINA RESULT:      -7.5      4.019      6.034
REMARK  Name = 
REMARK  7 active torsions:
REMARK  status: ('A' for Active; 'I' for Inactive)
REMARK    1  A    between atoms: C_1  and  N_2
REMARK    2  A    between atoms: N_2  and  C_3
REMARK    3  A    between atoms: C_3  and  C_4
REMARK    4  A    between atoms: C_4  and  C_5
REMARK    5  A    between atoms: C_5  and  N_6
REMARK    6  A    between atoms: N_13  and  C_14
REMARK    7  A    between atoms: C_18  and  C_19
REMARK                            x       y       z     vdW  Elec       q    Type
REMARK                         _______ _______ _______ _____ _____    ______ ____
ROOT
ATOM      1  C   UNL     1       7.316   4.541  17.605  0.00  0.00    +0.000 C 
ATOM      2  N   UNL     1       5.935   4.331  17.178  0.00  0.00    +0.000 N 
ATOM      3  C   UNL     1       4.978   4.476  18.169  0.00  0.00    +0.000 C 
ATOM      4  O   UNL     1       5.280   4.822  19.315  0.00  0.00    +0.000 OA
ATOM      5  N   UNL     1       3.687   4.179  17.824  0.00  0.00    +0.000 N 
ATOM      6  H   UNL     1       3.433   4.293  16.858  0.00  0.00    +0.000 HD
ENDROOT
BRANCH   5   7
ATOM      7  C   UNL     1       2.619   4.275  18.812  0.00  0.00    +0.000 C 
ATOM      8  C   UNL     1       2.507   3.006  19.657  0.00  0.00    +0.000 C 
ATOM      9  C   UNL     1       1.700   3.443  20.870  0.00  0.00    +0.000 C 
ATOM     10  C   UNL     1       2.072   4.901  21.117  0.00  0.00    +0.000 C 
ATOM     11  C   UNL     1       2.858   5.372  19.872  0.00  0.00    +0.000 C 
BRANCH  11  12
ATOM     12  C   UNL     1       2.454   6.773  19.455  0.00  0.00    +0.000 A 
ATOM     13  C   UNL     1       1.786   7.618  20.356  0.00  0.00    +0.000 A 
ATOM     14  C   UNL     1       1.304   8.859  19.933  0.00  0.00    +0.000 A 
ATOM     15  C   UNL     1       1.495   9.261  18.616  0.00  0.00    +0.000 A 
ATOM     16  F   UNL     1       0.992  10.431  18.202  0.00  0.00    +0.000 F 
ATOM     17  C   UNL     1       2.176   8.454  17.716  0.00  0.00    +0.000 A 
ATOM     18  C   UNL     1       2.665   7.220  18.138  0.00  0.00    +0.000 A 
ENDBRANCH  11  12
ENDBRANCH   5   7
BRANCH   2  19
ATOM     19  C   UNL     1       5.687   3.897  15.800  0.00  0.00    +0.000 C 
BRANCH  19  20
ATOM     20  C   UNL     1       5.977   4.987  14.762  0.00  0.00    +0.000 C 
BRANCH  20  21
ATOM     21  C   UNL     1       6.862   4.504  13.616  0.00  0.00    +0.000 C 
BRANCH  21  22
ATOM     22  N   UNL     1       6.142   3.641  12.700  0.00  0.00    +0.000 N 
ATOM     23  C   UNL     1       6.643   2.555  12.042  0.00  0.00    +0.000 A 
ATOM     24  C   UNL     1       5.599   2.076  11.287  0.00  0.00    +0.000 A 
ATOM     25  N   UNL     1       4.481   2.849  11.470  0.00  0.00    +0.000 NA
ATOM     26  C   UNL     1       4.838   3.787  12.319  0.00  0.00    +0.000 A 
ENDBRANCH  21  22
ENDBRANCH  20  21
ENDBRANCH  19  20
ENDBRANCH   2  19
TORSDOF 6
ENDMDL
MODEL 9
REMARK VINA RESULT:      -7.5      4.318      6.811
REMARK  Name = 
REMARK  7 active torsions:
REMARK  status: ('A' for Active; 'I' for Inactive)
REMARK    1  A    between atoms: C_1  and  N_2
REMARK    2  A    between atoms: N_2  and  C_3
REMARK    3  A    between atoms: C_3  and  C_4
REMARK    4  A    between atoms: C_4  and  C_5
REMARK    5  A    between atoms: C_5  and  N_6
REMARK    6  A    between atoms: N_13  and  C_14
REMARK    7  A    between atoms: C_18  and  C_19
REMARK                            x       y       z     vdW  Elec       q    Type
REMARK                         _______ _______ _______ _____ _____    ______ ____
ROOT
ATOM      1  C   UNL     1       7.965   4.335  17.519  0.00  0.00    +0.000 C 
ATOM      2  N   UNL     1       6.640   4.626  16.979  0.00  0.00    +0.000 N 
ATOM      3  C   UNL     1       5.867   5.490  17.739  0.00  0.00    +0.000 C 
ATOM      4  O   UNL     1       6.305   6.019  18.764  0.00  0.00    +0.000 OA
ATOM      5  N   UNL     1       4.582   5.696  17.315  0.00  0.00    +0.000 N 
ATOM      6  H   UNL     1       4.400   5.590  16.332  0.00  0.00    +0.000 HD
ENDROOT
BRANCH   5   7
ATOM      7  C   UNL     1       3.688   6.567  18.070  0.00  0.00    +0.000 C 
ATOM      8  C   UNL     1       3.559   7.948  17.426  0.00  0.00    +0.000 C 
ATOM      9  C   UNL     1       2.300   8.528  18.052  0.00  0.00    +0.000 C 
ATOM     10  C   UNL     1       1.377   7.342  18.310  0.00  0.00    +0.000 C 
ATOM     11  C   UNL     1       2.227   6.068  18.106  0.00  0.00    +0.000 C 
BRANCH  11  12
ATOM     12  C   UNL     1       1.928   5.022  19.162  0.00  0.00    +0.000 A 
ATOM     13  C   UNL     1       2.350   5.210  20.489  0.00  0.00    +0.000 A 
ATOM     14  C   UNL     1       2.185   4.193  21.432  0.00  0.00    +0.000 A 
ATOM     15  C   UNL     1       1.593   2.993  21.056  0.00  0.00    +0.000 A 
ATOM     16  F   UNL     1       1.477   2.003  21.950  0.00  0.00    +0.000 F 
ATOM     17  C   UNL     1       1.143   2.796  19.758  0.00  0.00    +0.000 A 
ATOM     18  C   UNL     1       1.299   3.812  18.818  0.00  0.00    +0.000 A 
ENDBRANCH  11  12
ENDBRANCH   5   7
BRANCH   2  19
ATOM     19  C   UNL     1       6.207   3.924  15.768  0.00  0.00    +0.000 C 
BRANCH  19  20
ATOM     20  C   UNL     1       6.194   4.818  14.524  0.00  0.00    +0.000 C 
BRANCH  20  21
ATOM     21  C   UNL     1       6.969   4.225  13.350  0.00  0.00    +0.000 C 
BRANCH  21  22
ATOM     22  N   UNL     1       6.115   3.448  12.473  0.00  0.00    +0.000 N 
ATOM     23  C   UNL     1       4.828   3.740  12.123  0.00  0.00    +0.000 A 
ATOM     24  C   UNL     1       4.437   2.714  11.296  0.00  0.00    +0.000 A 
ATOM     25  N   UNL     1       5.454   1.808  11.141  0.00  0.00    +0.000 NA
ATOM     26  C   UNL     1       6.449   2.271  11.865  0.00  0.00    +0.000 A 
ENDBRANCH  21  22
ENDBRANCH  20  21
ENDBRANCH  19  20
ENDBRANCH   2  19
TORSDOF 6
ENDMDL
