MODEL 1
REMARK VINA RESULT:      -7.7      0.000      0.000
REMARK  Name = 
REMARK  9 active torsions:
REMARK  status: ('A' for Active; 'I' for Inactive)
REMARK    1  A    between atoms: C_1  and  C_2
REMARK    2  A    between atoms: C_2  and  C_3
REMARK    3  A    between atoms: C_2  and  O_4
REMARK    4  A    between atoms: C_2  and  C_5
REMARK    5  A    between atoms: C_5  and  N_6
REMARK    6  A    between atoms: C_7  and  C_9
REMARK    7  A    between atoms: C_14  and  O_15
REMARK    8  A    between atoms: O_15  and  C_16
REMARK    9  A    between atoms: C_19  and  C_20
REMARK                            x       y       z     vdW  Elec       q    Type
REMARK                         _______ _______ _______ _____ _____    ______ ____
ROOT
ATOM      1  C   UNL     1       1.138   9.783  19.316  0.00  0.00    +0.000 A 
ATOM      2  C   UNL     1       1.741   9.854  18.067  0.00  0.00    +0.000 A 
ATOM      3  C   UNL     1       2.458   8.751  17.621  0.00  0.00    +0.000 A 
ATOM      4  C   UNL     1       2.559   7.615  18.431  0.00  0.00    +0.000 A 
ATOM      5  C   UNL     1       3.269   6.476  18.009  0.00  0.00    +0.000 A 
ATOM      6  C   UNL     1       3.358   5.355  18.831  0.00  0.00    +0.000 A 
ATOM      7  C   UNL     1       2.796   5.403  20.106  0.00  0.00    +0.000 A 
ATOM      8  C   UNL     1       2.061   6.525  20.509  0.00  0.00    +0.000 A 
ATOM      9  C   UNL     1       1.922   7.641  19.696  0.00  0.00    +0.000 A 
ATOM     10  N   UNL     1       1.212   8.697  20.133  0.00  0.00    +0.000 NA
ENDROOT
BRANCH   1  12
ATOM     11  N   UNL     1      -0.718  10.698  20.612  0.00  0.00    +0.000 N 
ATOM     12  C   UNL     1       0.372  10.972  19.815  0.00  0.00    +0.000 C 
ATOM     13  O   UNL     1       0.720  12.111  19.515  0.00  0.00    +0.000 OA
ATOM     14  H   UNL     1      -0.924   9.725  20.822  0.00  0.00    +0.000 HD
BRANCH  11  15
ATOM     15  C   UNL     1      -1.558  11.740  21.180  0.00  0.00    +0.000 C 
BRANCH  15  17
ATOM     16  C   UNL     1      -1.036  10.437  23.266  0.00  0.00    +0.000 C 
ATOM     17  C   UNL     1      -1.511  11.790  22.724  0.00  0.00    +0.000 C 
ATOM     18  C   UNL     1      -2.866  12.151  23.337  0.00  0.00    +0.000 C 
BRANCH  17  19
ATOM     19  O   UNL     1      -0.552  12.783  23.118  0.00  0.00    +0.000 OA
ATOM     20  H   UNL     1      -0.990  13.650  23.072  0.00  0.00    +0.000 HD
ENDBRANCH  17  19
ENDBRANCH  15  17
ENDBRANCH  11  15
ENDBRANCH   1  12
BRANCH   6  21
ATOM     21  O   UNL     1       4.060   4.283  18.324  0.00  0.00    +0.000 OA
BRANCH  21  22
ATOM     22  C   UNL     1       4.983   4.482  17.322  0.00  0.00    +0.000 A 
ATOM     23  C   UNL     1       6.310   4.865  17.541  0.00  0.00    +0.000 A 
ATOM     24  C   UNL     1       7.159   5.102  16.458  0.00  0.00    +0.000 A 
ATOM     25  C   UNL     1       6.706   4.896  15.151  0.00  0.00    +0.000 A 
ATOM     26  C   UNL     1       5.405   4.433  14.935  0.00  0.00    +0.000 A 
ATOM     27  C   UNL     1       4.546   4.225  16.020  0.00  0.00    +0.000 A 
BRANCH  25  28
ATOM     28  C   UNL     1       7.573   5.160  14.040  0.00  0.00    +0.000 C 
ATOM     29  N   UNL     1       8.273   5.389  13.142  0.00  0.00    +0.000 NA
ENDBRANCH  25  28
ENDBRANCH  21  22
ENDBRANCH   6  21
TORSDOF 7
ENDMDL
MODEL 2
REMARK VINA RESULT:      -7.6      2.714      9.904
REMARK  Name = 
REMARK  9 active torsions:
REMARK  status: ('A' for Active; 'I' for Inactive)
REMARK    1  A    between atoms: C_1  and  C_2
REMARK    2  A    between atoms: C_2  and  C_3
REMARK    3  A    between atoms: C_2  and  O_4
REMARK    4  A    between atoms: C_2  and  C_5
REMARK    5  A    between atoms: C_5  and  N_6
REMARK    6  A    between atoms: C_7  and  C_9
REMARK    7  A    between atoms: C_14  and  O_15
REMARK    8  A    between atoms: O_15  and  C_16
REMARK    9  A    between atoms: C_19  and  C_20
REMARK                            x       y       z     vdW  Elec       q    Type
REMARK                         _______ _______ _______ _____ _____    ______ ____
ROOT
ATOM      1  C   UNL     1       2.859   6.972  18.701  0.00  0.00    +0.000 A 
ATOM      2  C   UNL     1       2.829   7.811  17.595  0.00  0.00    +0.000 A 
ATOM      3  C   UNL     1       2.080   8.978  17.677  0.00  0.00    +0.000 A 
ATOM      4  C   UNL     1       1.380   9.272  18.851  0.00  0.00    +0.000 A 
ATOM      5  C   UNL     1       0.617  10.448  18.974  0.00  0.00    +0.000 A 
ATOM      6  C   UNL     1      -0.073  10.723  20.152  0.00  0.00    +0.000 A 
ATOM      7  C   UNL     1      -0.058   9.782  21.182  0.00  0.00    +0.000 A 
ATOM      8  C   UNL     1       0.729   8.629  21.068  0.00  0.00    +0.000 A 
ATOM      9  C   UNL     1       1.459   8.349  19.922  0.00  0.00    +0.000 A 
ATOM     10  N   UNL     1       2.193   7.222  19.861  0.00  0.00    +0.000 NA
ENDROOT
BRANCH   1  12
ATOM     11  N   UNL     1       5.023   5.848  18.589  0.00  0.00    +0.000 N 
ATOM     12  C   UNL     1       3.654   5.702  18.621  0.00  0.00    +0.000 C 
ATOM     13  O   UNL     1       3.090   4.613  18.589  0.00  0.00    +0.000 OA
ATOM     14  H   UNL     1       5.407   6.788  18.636  0.00  0.00    +0.000 HD
BRANCH  11  15
ATOM     15  C   UNL     1       5.932   4.714  18.519  0.00  0.00    +0.000 C 
BRANCH  15  17
ATOM     16  C   UNL     1       7.281   6.265  17.072  0.00  0.00    +0.000 C 
ATOM     17  C   UNL     1       6.926   4.798  17.339  0.00  0.00    +0.000 C 
ATOM     18  C   UNL     1       6.373   4.155  16.064  0.00  0.00    +0.000 C 
BRANCH  17  19
ATOM     19  O   UNL     1       8.131   4.112  17.710  0.00  0.00    +0.000 OA
ATOM     20  H   UNL     1       8.873   4.561  17.269  0.00  0.00    +0.000 HD
ENDBRANCH  17  19
ENDBRANCH  15  17
ENDBRANCH  11  15
ENDBRANCH   1  12
BRANCH   6  21
ATOM     21  O   UNL     1      -0.777  11.907  20.184  0.00  0.00    +0.000 OA
BRANCH  21  22
ATOM     22  C   UNL     1      -2.076  11.942  19.728  0.00  0.00    +0.000 A 
ATOM     23  C   UNL     1      -2.505  11.351  18.535  0.00  0.00    +0.000 A 
ATOM     24  C   UNL     1      -3.832  11.490  18.121  0.00  0.00    +0.000 A 
ATOM     25  C   UNL     1      -4.753  12.165  18.928  0.00  0.00    +0.000 A 
ATOM     26  C   UNL     1      -4.342  12.684  20.160  0.00  0.00    +0.000 A 
ATOM     27  C   UNL     1      -3.006  12.571  20.559  0.00  0.00    +0.000 A 
BRANCH  25  28
ATOM     28  C   UNL     1      -6.110  12.324  18.493  0.00  0.00    +0.000 C 
ATOM     29  N   UNL     1      -7.209  12.437  18.138  0.00  0.00    +0.000 NA
ENDBRANCH  25  28
ENDBRANCH  21  22
ENDBRANCH   6  21
TORSDOF 7
ENDMDL
MODEL 3
REMARK VINA RESULT:      -7.6      3.258     10.568
REMARK  Name = 
REMARK  9 active torsions:
REMARK  status: ('A' for Active; 'I' for Inactive)
REMARK    1  A    between atoms: C_1  and  C_2
REMARK    2  A    between atoms: C_2  and  C_3
REMARK    3  A    between atoms: C_2  and  O_4
REMARK    4  A    between atoms: C_2  and  C_5
REMARK    5  A    between atoms: C_5  and  N_6
REMARK    6  A    between atoms: C_7  and  C_9
REMARK    7  A    between atoms: C_14  and  O_15
REMARK    8  A    between atoms: O_15  and  C_16
REMARK    9  A    between atoms: C_19  and  C_20
REMARK                            x       y       z     vdW  Elec       q    Type
REMARK                         _______ _______ _______ _____ _____    ______ ____
ROOT
ATOM      1  C   UNL     1       1.847   7.864  19.653  0.00  0.00    +0.000 A 
ATOM      2  C   UNL     1       1.726   8.841  18.675  0.00  0.00    +0.000 A 
ATOM      3  C   UNL     1       1.048  10.010  18.995  0.00  0.00    +0.000 A 
ATOM      4  C   UNL     1       0.507  10.170  20.274  0.00  0.00    +0.000 A 
ATOM      5  C   UNL     1      -0.179  11.344  20.637  0.00  0.00    +0.000 A 
ATOM      6  C   UNL     1      -0.711  11.484  21.917  0.00  0.00    +0.000 A 
ATOM      7  C   UNL     1      -0.619  10.417  22.810  0.00  0.00    +0.000 A 
ATOM      8  C   UNL     1       0.093   9.263  22.456  0.00  0.00    +0.000 A 
ATOM      9  C   UNL     1       0.668   9.113  21.202  0.00  0.00    +0.000 A 
ATOM     10  N   UNL     1       1.336   7.981  20.910  0.00  0.00    +0.000 NA
ENDROOT
BRANCH   1  12
ATOM     11  N   UNL     1       1.977   5.429  19.764  0.00  0.00    +0.000 N 
ATOM     12  C   UNL     1       2.566   6.591  19.317  0.00  0.00    +0.000 C 
ATOM     13  O   UNL     1       3.614   6.615  18.678  0.00  0.00    +0.000 OA
ATOM     14  H   UNL     1       1.100   5.501  20.273  0.00  0.00    +0.000 HD
BRANCH  11  15
ATOM     15  C   UNL     1       2.546   4.114  19.513  0.00  0.00    +0.000 C 
BRANCH  15  17
ATOM     16  C   UNL     1       0.689   2.493  19.014  0.00  0.00    +0.000 C 
ATOM     17  C   UNL     1       1.813   3.334  18.398  0.00  0.00    +0.000 C 
ATOM     18  C   UNL     1       2.758   2.433  17.598  0.00  0.00    +0.000 C 
BRANCH  17  19
ATOM     19  O   UNL     1       1.215   4.279  17.499  0.00  0.00    +0.000 OA
ATOM     20  H   UNL     1       0.254   4.133  17.514  0.00  0.00    +0.000 HD
ENDBRANCH  17  19
ENDBRANCH  15  17
ENDBRANCH  11  15
ENDBRANCH   1  12
BRANCH   6  21
ATOM     21  O   UNL     1      -1.350  12.675  22.185  0.00  0.00    +0.000 OA
BRANCH  21  22
ATOM     22  C   UNL     1      -2.690  12.677  22.502  0.00  0.00    +0.000 A 
ATOM     23  C   UNL     1      -3.720  12.715  21.557  0.00  0.00    +0.000 A 
ATOM     24  C   UNL     1      -5.052  12.774  21.973  0.00  0.00    +0.000 A 
ATOM     25  C   UNL     1      -5.365  12.731  23.336  0.00  0.00    +0.000 A 
ATOM     26  C   UNL     1      -4.338  12.609  24.277  0.00  0.00    +0.000 A 
ATOM     27  C   UNL     1      -3.004  12.580  23.860  0.00  0.00    +0.000 A 
BRANCH  25  28
ATOM     28  C   UNL     1      -6.731  12.812  23.762  0.00  0.00    +0.000 C 
ATOM     29  N   UNL     1      -7.842  12.867  24.096  0.00  0.00    +0.000 NA
ENDBRANCH  25  28
ENDBRANCH  21  22
ENDBRANCH   6  21
TORSDOF 7
ENDMDL
MODEL 4
REMARK VINA RESULT:      -7.6      2.932      9.313
REMARK  Name = 
REMARK  9 active torsions:
REMARK  status: ('A' for Active; 'I' for Inactive)
REMARK    1  A    between atoms: C_1  and  C_2
REMARK    2  A    between atoms: C_2  and  C_3
REMARK    3  A    between atoms: C_2  and  O_4
REMARK    4  A    between atoms: C_2  and  C_5
REMARK    5  A    between atoms: C_5  and  N_6
REMARK    6  A    between atoms: C_7  and  C_9
REMARK    7  A    between atoms: C_14  and  O_15
REMARK    8  A    between atoms: O_15  and  C_16
REMARK    9  A    between atoms: C_19  and  C_20
REMARK                            x       y       z     vdW  Elec       q    Type
REMARK                         _______ _______ _______ _____ _____    ______ ____
ROOT
ATOM      1  C   UNL     1       2.840   6.833  18.707  0.00  0.00    +0.000 A 
ATOM      2  C   UNL     1       2.699   7.709  17.640  0.00  0.00    +0.000 A 
ATOM      3  C   UNL     1       1.972   8.875  17.839  0.00  0.00    +0.000 A 
ATOM      4  C   UNL     1       1.402   9.133  19.089  0.00  0.00    +0.000 A 
ATOM      5  C   UNL     1       0.667  10.308  19.331  0.00  0.00    +0.000 A 
ATOM      6  C   UNL     1       0.107  10.545  20.584  0.00  0.00    +0.000 A 
ATOM      7  C   UNL     1       0.224   9.571  21.575  0.00  0.00    +0.000 A 
ATOM      8  C   UNL     1       0.985   8.418  21.341  0.00  0.00    +0.000 A 
ATOM      9  C   UNL     1       1.587   8.174  20.115  0.00  0.00    +0.000 A 
ATOM     10  N   UNL     1       2.302   7.047  19.940  0.00  0.00    +0.000 NA
ENDROOT
BRANCH   1  12
ATOM     11  N   UNL     1       4.973   5.702  18.346  0.00  0.00    +0.000 N 
ATOM     12  C   UNL     1       3.611   5.563  18.502  0.00  0.00    +0.000 C 
ATOM     13  O   UNL     1       3.036   4.479  18.479  0.00  0.00    +0.000 OA
ATOM     14  H   UNL     1       5.367   6.638  18.395  0.00  0.00    +0.000 HD
BRANCH  11  15
ATOM     15  C   UNL     1       5.860   4.567  18.146  0.00  0.00    +0.000 C 
BRANCH  15  17
ATOM     16  C   UNL     1       7.461   6.371  17.435  0.00  0.00    +0.000 C 
ATOM     17  C   UNL     1       7.082   4.895  17.259  0.00  0.00    +0.000 C 
ATOM     18  C   UNL     1       6.828   4.595  15.780  0.00  0.00    +0.000 C 
BRANCH  17  19
ATOM     19  O   UNL     1       8.192   4.099  17.702  0.00  0.00    +0.000 OA
ATOM     20  H   UNL     1       8.332   3.397  17.044  0.00  0.00    +0.000 HD
ENDBRANCH  17  19
ENDBRANCH  15  17
ENDBRANCH  11  15
ENDBRANCH   1  12
BRANCH   6  21
ATOM     21  O   UNL     1      -0.580  11.731  20.730  0.00  0.00    +0.000 OA
BRANCH  21  22
ATOM     22  C   UNL     1      -0.027  12.904  20.266  0.00  0.00    +0.000 A 
ATOM     23  C   UNL     1      -0.564  13.667  19.225  0.00  0.00    +0.000 A 
ATOM     24  C   UNL     1       0.100  14.813  18.780  0.00  0.00    +0.000 A 
ATOM     25  C   UNL     1       1.271  15.238  19.416  0.00  0.00    +0.000 A 
ATOM     26  C   UNL     1       1.762  14.520  20.511  0.00  0.00    +0.000 A 
ATOM     27  C   UNL     1       1.113  13.356  20.935  0.00  0.00    +0.000 A 
BRANCH  25  28
ATOM     28  C   UNL     1       1.962  16.402  18.945  0.00  0.00    +0.000 C 
ATOM     29  N   UNL     1       2.511  17.347  18.552  0.00  0.00    +0.000 NA
ENDBRANCH  25  28
ENDBRANCH  21  22
ENDBRANCH   6  21
TORSDOF 7
ENDMDL
MODEL 5
REMARK VINA RESULT:      -7.6      3.012     10.076
REMARK  Name = 
REMARK  9 active torsions:
REMARK  status: ('A' for Active; 'I' for Inactive)
REMARK    1  A    between atoms: C_1  and  C_2
REMARK    2  A    between atoms: C_2  and  C_3
REMARK    3  A    between atoms: C_2  and  O_4
REMARK    4  A    between atoms: C_2  and  C_5
REMARK    5  A    between atoms: C_5  and  N_6
REMARK    6  A    between atoms: C_7  and  C_9
REMARK    7  A    between atoms: C_14  and  O_15
REMARK    8  A    between atoms: O_15  and  C_16
REMARK    9  A    between atoms: C_19  and  C_20
REMARK                            x       y       z     vdW  Elec       q    Type
REMARK                         _______ _______ _______ _____ _____    ______ ____
ROOT
ATOM      1  C   UNL     1       2.330   7.433  18.701  0.00  0.00    +0.000 A 
ATOM      2  C   UNL     1       2.190   8.465  17.784  0.00  0.00    +0.000 A 
ATOM      3  C   UNL     1       1.618   9.654  18.215  0.00  0.00    +0.000 A 
ATOM      4  C   UNL     1       1.196   9.780  19.542  0.00  0.00    +0.000 A 
ATOM      5  C   UNL     1       0.620  10.972  20.018  0.00  0.00    +0.000 A 
ATOM      6  C   UNL     1       0.207  11.077  21.344  0.00  0.00    +0.000 A 
ATOM      7  C   UNL     1       0.305   9.962  22.175  0.00  0.00    +0.000 A 
ATOM      8  C   UNL     1       0.910   8.788  21.707  0.00  0.00    +0.000 A 
ATOM      9  C   UNL     1       1.367   8.668  20.403  0.00  0.00    +0.000 A 
ATOM     10  N   UNL     1       1.934   7.515  20.002  0.00  0.00    +0.000 NA
ENDROOT
BRANCH   1  12
ATOM     11  N   UNL     1       2.094   5.047  18.240  0.00  0.00    +0.000 N 
ATOM     12  C   UNL     1       2.935   6.138  18.245  0.00  0.00    +0.000 C 
ATOM     13  O   UNL     1       4.112   6.086  17.901  0.00  0.00    +0.000 OA
ATOM     14  H   UNL     1       1.129   5.185  18.526  0.00  0.00    +0.000 HD
BRANCH  11  15
ATOM     15  C   UNL     1       2.527   3.724  17.818  0.00  0.00    +0.000 C 
BRANCH  15  17
ATOM     16  C   UNL     1       1.345   2.967  19.904  0.00  0.00    +0.000 C 
ATOM     17  C   UNL     1       2.521   2.684  18.961  0.00  0.00    +0.000 C 
ATOM     18  C   UNL     1       3.832   2.677  19.751  0.00  0.00    +0.000 C 
BRANCH  17  19
ATOM     19  O   UNL     1       2.324   1.382  18.390  0.00  0.00    +0.000 OA
ATOM     20  H   UNL     1       3.185   0.929  18.386  0.00  0.00    +0.000 HD
ENDBRANCH  17  19
ENDBRANCH  15  17
ENDBRANCH  11  15
ENDBRANCH   1  12
BRANCH   6  21
ATOM     21  O   UNL     1      -0.330  12.289  21.721  0.00  0.00    +0.000 OA
BRANCH  21  22
ATOM     22  C   UNL     1      -1.696  12.428  21.828  0.00  0.00    +0.000 A 
ATOM     23  C   UNL     1      -2.555  12.601  20.739  0.00  0.00    +0.000 A 
ATOM     24  C   UNL     1      -3.923  12.795  20.948  0.00  0.00    +0.000 A 
ATOM     25  C   UNL     1      -4.449  12.753  22.243  0.00  0.00    +0.000 A 
ATOM     26  C   UNL     1      -3.601  12.497  23.325  0.00  0.00    +0.000 A 
ATOM     27  C   UNL     1      -2.227  12.334  23.117  0.00  0.00    +0.000 A 
BRANCH  25  28
ATOM     28  C   UNL     1      -5.849  12.972  22.457  0.00  0.00    +0.000 C 
ATOM     29  N   UNL     1      -6.982  13.165  22.626  0.00  0.00    +0.000 NA
ENDBRANCH  25  28
ENDBRANCH  21  22
ENDBRANCH   6  21
TORSDOF 7
ENDMDL
MODEL 6
REMARK VINA RESULT:      -7.6      3.217     10.499
REMARK  Name = 
REMARK  9 active torsions:
REMARK  status: ('A' for Active; 'I' for Inactive)
REMARK    1  A    between atoms: C_1  and  C_2
REMARK    2  A    between atoms: C_2  and  C_3
REMARK    3  A    between atoms: C_2  and  O_4
REMARK    4  A    between atoms: C_2  and  C_5
REMARK    5  A    between atoms: C_5  and  N_6
REMARK    6  A    between atoms: C_7  and  C_9
REMARK    7  A    between atoms: C_14  and  O_15
REMARK    8  A    between atoms: O_15  and  C_16
REMARK    9  A    between atoms: C_19  and  C_20
REMARK                            x       y       z     vdW  Elec       q    Type
REMARK                         _______ _______ _______ _____ _____    ______ ____
ROOT
ATOM      1  C   UNL     1       1.746   8.101  19.488  0.00  0.00    +0.000 A 
ATOM      2  C   UNL     1       1.638   9.142  18.576  0.00  0.00    +0.000 A 
ATOM      3  C   UNL     1       0.985  10.301  18.977  0.00  0.00    +0.000 A 
ATOM      4  C   UNL     1       0.454  10.387  20.267  0.00  0.00    +0.000 A 
ATOM      5  C   UNL     1      -0.207  11.548  20.711  0.00  0.00    +0.000 A 
ATOM      6  C   UNL     1      -0.728  11.614  22.001  0.00  0.00    +0.000 A 
ATOM      7  C   UNL     1      -0.652  10.489  22.822  0.00  0.00    +0.000 A 
ATOM      8  C   UNL     1       0.036   9.348  22.388  0.00  0.00    +0.000 A 
ATOM      9  C   UNL     1       0.600   9.269  21.124  0.00  0.00    +0.000 A 
ATOM     10  N   UNL     1       1.244   8.146  20.753  0.00  0.00    +0.000 NA
ENDROOT
BRANCH   1  12
ATOM     11  N   UNL     1       3.130   6.170  20.048  0.00  0.00    +0.000 N 
ATOM     12  C   UNL     1       2.437   6.840  19.064  0.00  0.00    +0.000 C 
ATOM     13  O   UNL     1       2.370   6.451  17.902  0.00  0.00    +0.000 OA
ATOM     14  H   UNL     1       3.119   6.556  20.989  0.00  0.00    +0.000 HD
BRANCH  11  15
ATOM     15  C   UNL     1       3.846   4.929  19.799  0.00  0.00    +0.000 C 
BRANCH  15  17
ATOM     16  C   UNL     1       2.081   3.873  21.245  0.00  0.00    +0.000 C 
ATOM     17  C   UNL     1       2.981   3.668  20.021  0.00  0.00    +0.000 C 
ATOM     18  C   UNL     1       3.826   2.405  20.201  0.00  0.00    +0.000 C 
BRANCH  17  19
ATOM     19  O   UNL     1       2.134   3.491  18.876  0.00  0.00    +0.000 OA
ATOM     20  H   UNL     1       1.281   3.915  19.071  0.00  0.00    +0.000 HD
ENDBRANCH  17  19
ENDBRANCH  15  17
ENDBRANCH  11  15
ENDBRANCH   1  12
BRANCH   6  21
ATOM     21  O   UNL     1      -1.342  12.797  22.350  0.00  0.00    +0.000 OA
BRANCH  21  22
ATOM     22  C   UNL     1      -2.660  12.792  22.751  0.00  0.00    +0.000 A 
ATOM     23  C   UNL     1      -3.074  12.780  24.087  0.00  0.00    +0.000 A 
ATOM     24  C   UNL     1      -4.433  12.714  24.400  0.00  0.00    +0.000 A 
ATOM     25  C   UNL     1      -5.390  12.724  23.379  0.00  0.00    +0.000 A 
ATOM     26  C   UNL     1      -4.978  12.820  22.046  0.00  0.00    +0.000 A 
ATOM     27  C   UNL     1      -3.615  12.855  21.734  0.00  0.00    +0.000 A 
BRANCH  25  28
ATOM     28  C   UNL     1      -6.784  12.636  23.701  0.00  0.00    +0.000 C 
ATOM     29  N   UNL     1      -7.916  12.578  23.953  0.00  0.00    +0.000 NA
ENDBRANCH  25  28
ENDBRANCH  21  22
ENDBRANCH   6  21
TORSDOF 7
ENDMDL
MODEL 7
REMARK VINA RESULT:      -7.6      2.638      9.742
REMARK  Name = 
REMARK  9 active torsions:
REMARK  status: ('A' for Active; 'I' for Inactive)
REMARK    1  A    between atoms: C_1  and  C_2
REMARK    2  A    between atoms: C_2  and  C_3
REMARK    3  A    between atoms: C_2  and  O_4
REMARK    4  A    between atoms: C_2  and  C_5
REMARK    5  A    between atoms: C_5  and  N_6
REMARK    6  A    between atoms: C_7  and  C_9
REMARK    7  A    between atoms: C_14  and  O_15
REMARK    8  A    between atoms: O_15  and  C_16
REMARK    9  A    between atoms: C_19  and  C_20
REMARK                            x       y       z     vdW  Elec       q    Type
REMARK                         _______ _______ _______ _____ _____    ______ ____
ROOT
ATOM      1  C   UNL     1       2.813   6.316  19.296  0.00  0.00    +0.000 A 
ATOM      2  C   UNL     1       2.131   6.321  20.504  0.00  0.00    +0.000 A 
ATOM      3  C   UNL     1       1.375   7.441  20.828  0.00  0.00    +0.000 A 
ATOM      4  C   UNL     1       1.326   8.523  19.944  0.00  0.00    +0.000 A 
ATOM      5  C   UNL     1       0.565   9.671  20.233  0.00  0.00    +0.000 A 
ATOM      6  C   UNL     1       0.529  10.738  19.339  0.00  0.00    +0.000 A 
ATOM      7  C   UNL     1       1.314  10.685  18.188  0.00  0.00    +0.000 A 
ATOM      8  C   UNL     1       2.044   9.528  17.887  0.00  0.00    +0.000 A 
ATOM      9  C   UNL     1       2.066   8.434  18.739  0.00  0.00    +0.000 A 
ATOM     10  N   UNL     1       2.790   7.348  18.408  0.00  0.00    +0.000 NA
ENDROOT
BRANCH   1  12
ATOM     11  N   UNL     1       4.840   5.378  18.311  0.00  0.00    +0.000 N 
ATOM     12  C   UNL     1       3.643   5.118  18.940  0.00  0.00    +0.000 C 
ATOM     13  O   UNL     1       3.252   3.986  19.209  0.00  0.00    +0.000 OA
ATOM     14  H   UNL     1       5.092   6.348  18.142  0.00  0.00    +0.000 HD
BRANCH  11  15
ATOM     15  C   UNL     1       5.760   4.326  17.909  0.00  0.00    +0.000 C 
BRANCH  15  17
ATOM     16  C   UNL     1       7.290   6.307  17.668  0.00  0.00    +0.000 C 
ATOM     17  C   UNL     1       7.040   4.860  17.227  0.00  0.00    +0.000 C 
ATOM     18  C   UNL     1       6.961   4.786  15.700  0.00  0.00    +0.000 C 
BRANCH  17  19
ATOM     19  O   UNL     1       8.153   4.067  17.665  0.00  0.00    +0.000 OA
ATOM     20  H   UNL     1       8.914   4.663  17.777  0.00  0.00    +0.000 HD
ENDBRANCH  17  19
ENDBRANCH  15  17
ENDBRANCH  11  15
ENDBRANCH   1  12
BRANCH   6  21
ATOM     21  O   UNL     1      -0.258  11.810  19.701  0.00  0.00    +0.000 OA
BRANCH  21  22
ATOM     22  C   UNL     1      -1.598  11.814  19.381  0.00  0.00    +0.000 A 
ATOM     23  C   UNL     1      -2.575  12.505  20.105  0.00  0.00    +0.000 A 
ATOM     24  C   UNL     1      -3.920  12.402  19.742  0.00  0.00    +0.000 A 
ATOM     25  C   UNL     1      -4.289  11.660  18.615  0.00  0.00    +0.000 A 
ATOM     26  C   UNL     1      -3.303  11.038  17.844  0.00  0.00    +0.000 A 
ATOM     27  C   UNL     1      -1.959  11.117  18.226  0.00  0.00    +0.000 A 
BRANCH  25  28
ATOM     28  C   UNL     1      -5.671  11.539  18.256  0.00  0.00    +0.000 C 
ATOM     29  N   UNL     1      -6.789  11.453  17.953  0.00  0.00    +0.000 NA
ENDBRANCH  25  28
ENDBRANCH  21  22
ENDBRANCH   6  21
TORSDOF 7
ENDMDL
MODEL 8
REMARK VINA RESULT:      -7.5      3.220      9.858
REMARK  Name = 
REMARK  9 active torsions:
REMARK  status: ('A' for Active; 'I' for Inactive)
REMARK    1  A    between atoms: C_1  and  C_2
REMARK    2  A    between atoms: C_2  and  C_3
REMARK    3  A    between atoms: C_2  and  O_4
REMARK    4  A    between atoms: C_2  and  C_5
REMARK    5  A    between atoms: C_5  and  N_6
REMARK    6  A    between atoms: C_7  and  C_9
REMARK    7  A    between atoms: C_14  and  O_15
REMARK    8  A    between atoms: O_15  and  C_16
REMARK    9  A    between atoms: C_19  and  C_20
REMARK                            x       y       z     vdW  Elec       q    Type
REMARK                         _______ _______ _______ _____ _____    ______ ____
ROOT
ATOM      1  C   UNL     1       2.608   6.950  19.290  0.00  0.00    +0.000 A 
ATOM      2  C   UNL     1       2.686   7.597  18.065  0.00  0.00    +0.000 A 
ATOM      3  C   UNL     1       1.987   8.787  17.904  0.00  0.00    +0.000 A 
ATOM      4  C   UNL     1       1.229   9.293  18.964  0.00  0.00    +0.000 A 
ATOM      5  C   UNL     1       0.515  10.500  18.842  0.00  0.00    +0.000 A 
ATOM      6  C   UNL     1      -0.235  10.988  19.909  0.00  0.00    +0.000 A 
ATOM      7  C   UNL     1      -0.329  10.229  21.075  0.00  0.00    +0.000 A 
ATOM      8  C   UNL     1       0.410   9.046  21.205  0.00  0.00    +0.000 A 
ATOM      9  C   UNL     1       1.198   8.556  20.173  0.00  0.00    +0.000 A 
ATOM     10  N   UNL     1       1.882   7.410  20.346  0.00  0.00    +0.000 NA
ENDROOT
BRANCH   1  12
ATOM     11  N   UNL     1       2.568   4.530  19.609  0.00  0.00    +0.000 N 
ATOM     12  C   UNL     1       3.347   5.658  19.472  0.00  0.00    +0.000 C 
ATOM     13  O   UNL     1       4.575   5.637  19.492  0.00  0.00    +0.000 OA
ATOM     14  H   UNL     1       1.558   4.637  19.564  0.00  0.00    +0.000 HD
BRANCH  11  15
ATOM     15  C   UNL     1       3.134   3.202  19.785  0.00  0.00    +0.000 C 
BRANCH  15  17
ATOM     16  C   UNL     1       3.905   1.194  18.482  0.00  0.00    +0.000 C 
ATOM     17  C   UNL     1       2.785   2.231  18.634  0.00  0.00    +0.000 C 
ATOM     18  C   UNL     1       2.564   2.957  17.305  0.00  0.00    +0.000 C 
BRANCH  17  19
ATOM     19  O   UNL     1       1.580   1.531  18.978  0.00  0.00    +0.000 OA
ATOM     20  H   UNL     1       0.875   2.193  19.085  0.00  0.00    +0.000 HD
ENDBRANCH  17  19
ENDBRANCH  15  17
ENDBRANCH  11  15
ENDBRANCH   1  12
BRANCH   6  21
ATOM     21  O   UNL     1      -0.886  12.185  19.701  0.00  0.00    +0.000 OA
BRANCH  21  22
ATOM     22  C   UNL     1      -2.249  12.197  19.505  0.00  0.00    +0.000 A 
ATOM     23  C   UNL     1      -2.895  11.562  18.440  0.00  0.00    +0.000 A 
ATOM     24  C   UNL     1      -4.278  11.679  18.288  0.00  0.00    +0.000 A 
ATOM     25  C   UNL     1      -5.033  12.379  19.235  0.00  0.00    +0.000 A 
ATOM     26  C   UNL     1      -4.396  12.944  20.345  0.00  0.00    +0.000 A 
ATOM     27  C   UNL     1      -3.007  12.851  20.479  0.00  0.00    +0.000 A 
BRANCH  25  28
ATOM     28  C   UNL     1      -6.450  12.515  19.067  0.00  0.00    +0.000 C 
ATOM     29  N   UNL     1      -7.595  12.633  18.916  0.00  0.00    +0.000 NA
ENDBRANCH  25  28
ENDBRANCH  21  22
ENDBRANCH   6  21
TORSDOF 7
ENDMDL
MODEL 9
REMARK VINA RESULT:      -7.5      1.334      1.840
REMARK  Name = 
REMARK  9 active torsions:
REMARK  status: ('A' for Active; 'I' for Inactive)
REMARK    1  A    between atoms: C_1  and  C_2
REMARK    2  A    between atoms: C_2  and  C_3
REMARK    3  A    between atoms: C_2  and  O_4
REMARK    4  A    between atoms: C_2  and  C_5
REMARK    5  A    between atoms: C_5  and  N_6
REMARK    6  A    between atoms: C_7  and  C_9
REMARK    7  A    between atoms: C_14  and  O_15
REMARK    8  A    between atoms: O_15  and  C_16
REMARK    9  A    between atoms: C_19  and  C_20
REMARK                            x       y       z     vdW  Elec       q    Type
REMARK                         _______ _______ _______ _____ _____    ______ ____
ROOT
ATOM      1  C   UNL     1       1.167   9.161  19.910  0.00  0.00    +0.000 A 
ATOM      2  C   UNL     1       1.632   9.370  18.619  0.00  0.00    +0.000 A 
ATOM      3  C   UNL     1       2.319   8.338  17.993  0.00  0.00    +0.000 A 
ATOM      4  C   UNL     1       2.528   7.133  18.670  0.00  0.00    +0.000 A 
ATOM      5  C   UNL     1       3.212   6.062  18.065  0.00  0.00    +0.000 A 
ATOM      6  C   UNL     1       3.410   4.870  18.757  0.00  0.00    +0.000 A 
ATOM      7  C   UNL     1       2.986   4.776  20.082  0.00  0.00    +0.000 A 
ATOM      8  C   UNL     1       2.277   5.832  20.670  0.00  0.00    +0.000 A 
ATOM      9  C   UNL     1       2.030   7.016  19.991  0.00  0.00    +0.000 A 
ATOM     10  N   UNL     1       1.350   8.003  20.603  0.00  0.00    +0.000 NA
ENDROOT
BRANCH   1  12
ATOM     11  N   UNL     1      -0.597  10.848  19.896  0.00  0.00    +0.000 N 
ATOM     12  C   UNL     1       0.436  10.272  20.603  0.00  0.00    +0.000 C 
ATOM     13  O   UNL     1       0.760  10.625  21.733  0.00  0.00    +0.000 OA
ATOM     14  H   UNL     1      -0.807  10.482  18.971  0.00  0.00    +0.000 HD
BRANCH  11  15
ATOM     15  C   UNL     1      -1.407  11.930  20.432  0.00  0.00    +0.000 C 
BRANCH  15  17
ATOM     16  C   UNL     1      -0.583  13.137  18.386  0.00  0.00    +0.000 C 
ATOM     17  C   UNL     1      -1.056  13.311  19.834  0.00  0.00    +0.000 C 
ATOM     18  C   UNL     1       0.014  14.044  20.647  0.00  0.00    +0.000 C 
BRANCH  17  19
ATOM     19  O   UNL     1      -2.245  14.115  19.815  0.00  0.00    +0.000 OA
ATOM     20  H   UNL     1      -2.715  13.927  18.984  0.00  0.00    +0.000 HD
ENDBRANCH  17  19
ENDBRANCH  15  17
ENDBRANCH  11  15
ENDBRANCH   1  12
BRANCH   6  21
ATOM     21  O   UNL     1       4.075   3.873  18.076  0.00  0.00    +0.000 OA
BRANCH  21  22
ATOM     22  C   UNL     1       5.008   4.205  17.119  0.00  0.00    +0.000 A 
ATOM     23  C   UNL     1       6.306   4.639  17.405  0.00  0.00    +0.000 A 
ATOM     24  C   UNL     1       7.166   5.011  16.370  0.00  0.00    +0.000 A 
ATOM     25  C   UNL     1       6.756   4.891  15.038  0.00  0.00    +0.000 A 
ATOM     26  C   UNL     1       5.487   4.378  14.749  0.00  0.00    +0.000 A 
ATOM     27  C   UNL     1       4.616   4.034  15.789  0.00  0.00    +0.000 A 
BRANCH  25  28
ATOM     28  C   UNL     1       7.632   5.293  13.977  0.00  0.00    +0.000 C 
ATOM     29  N   UNL     1       8.354   5.610  13.125  0.00  0.00    +0.000 NA
ENDBRANCH  25  28
ENDBRANCH  21  22
ENDBRANCH   6  21
TORSDOF 7
ENDMDL
