MODEL 1
REMARK VINA RESULT:      -6.8      0.000      0.000
REMARK  Name = 
REMARK  22 active torsions:
REMARK  status: ('A' for Active; 'I' for Inactive)
REMARK    1  A    between atoms: C_1  and  C_2
REMARK    2  A    between atoms: C_2  and  C_3
REMARK    3  A    between atoms: C_4  and  C_5
REMARK    4  A    between atoms: C_5  and  C_6
REMARK    5  A    between atoms: C_6  and  C_7
REMARK    6  A    between atoms: C_7  and  C_8
REMARK    7  A    between atoms: C_9  and  C_10
REMARK    8  A    between atoms: C_10  and  C_11
REMARK    9  A    between atoms: C_11  and  C_12
REMARK   10  A    between atoms: C_12  and  C_13
REMARK   11  A    between atoms: C_14  and  C_15
REMARK   12  A    between atoms: C_15  and  S_16
REMARK   13  A    between atoms: S_16  and  C_17
REMARK   14  A    between atoms: C_17  and  C_18
REMARK   15  A    between atoms: C_18  and  N_19
REMARK   16  A    between atoms: C_18  and  C_27
REMARK   17  A    between atoms: C_20  and  O_22
REMARK   18  A    between atoms: O_22  and  C_23
REMARK   19  A    between atoms: C_23  and  C_24
REMARK   20  A    between atoms: C_23  and  C_25
REMARK   21  A    between atoms: C_23  and  C_26
REMARK   22  A    between atoms: C_27  and  C_29
REMARK                            x       y       z     vdW  Elec       q    Type
REMARK                         _______ _______ _______ _____ _____    ______ ____
ROOT
ATOM      1  S   UNL     1       3.542   3.170  17.611  0.00  0.00    +0.000 S 
ENDROOT
BRANCH   1   2
ATOM      2  C   UNL     1       2.247   4.454  17.612  0.00  0.00    +0.000 C 
BRANCH   2   5
ATOM      3  C   UNL     1       2.411   6.586  19.007  0.00  0.00    +0.000 C 
ATOM      4  C   UNL     1       2.583   7.469  17.798  0.00  0.00    +0.000 C 
ATOM      5  C   UNL     1       2.293   5.245  18.884  0.00  0.00    +0.000 C 
BRANCH   3   6
ATOM      6  C   UNL     1       2.435   7.300  20.359  0.00  0.00    +0.000 C 
BRANCH   6   7
ATOM      7  C   UNL     1       1.046   7.452  20.992  0.00  0.00    +0.000 C 
BRANCH   7  10
ATOM      8  C   UNL     1       0.019   9.593  21.748  0.00  0.00    +0.000 C 
ATOM      9  C   UNL     1       0.470   9.281  23.158  0.00  0.00    +0.000 C 
ATOM     10  C   UNL     1       0.313   8.742  20.740  0.00  0.00    +0.000 C 
BRANCH   8  11
ATOM     11  C   UNL     1      -0.772  10.858  21.459  0.00  0.00    +0.000 C 
BRANCH  11  12
ATOM     12  C   UNL     1      -0.555  11.478  20.074  0.00  0.00    +0.000 C 
BRANCH  12  16
ATOM     13  C   UNL     1      -3.420  11.456  17.441  0.00  0.00    +0.000 C 
ATOM     14  C   UNL     1      -2.153  11.088  18.157  0.00  0.00    +0.000 C 
ATOM     15  C   UNL     1      -1.286  10.028  17.535  0.00  0.00    +0.000 C 
ATOM     16  C   UNL     1      -1.834  11.697  19.315  0.00  0.00    +0.000 C 
ENDBRANCH  12  16
ENDBRANCH  11  12
ENDBRANCH   8  11
ENDBRANCH   7  10
ENDBRANCH   6   7
ENDBRANCH   3   6
ENDBRANCH   2   5
ENDBRANCH   1   2
BRANCH   1  17
ATOM     17  C   UNL     1       4.944   4.123  18.319  0.00  0.00    +0.000 C 
BRANCH  17  18
ATOM     18  C   UNL     1       5.885   4.587  17.191  0.00  0.00    +0.000 C 
BRANCH  18  19
ATOM     19  N   UNL     1       5.925   3.714  16.021  0.00  0.00    +0.000 N 
ATOM     20  C   UNL     1       6.307   4.194  14.801  0.00  0.00    +0.000 C 
ATOM     21  O   UNL     1       6.471   5.375  14.557  0.00  0.00    +0.000 OA
ATOM     22  H   UNL     1       6.101   2.726  16.148  0.00  0.00    +0.000 HD
BRANCH  20  23
ATOM     23  O   UNL     1       6.453   3.173  13.921  0.00  0.00    +0.000 OA
BRANCH  23  24
ATOM     24  C   UNL     1       6.140   3.416  12.522  0.00  0.00    +0.000 C 
ATOM     25  C   UNL     1       7.147   4.383  11.887  0.00  0.00    +0.000 C 
ATOM     26  C   UNL     1       6.269   2.057  11.813  0.00  0.00    +0.000 C 
ATOM     27  C   UNL     1       4.690   3.893  12.359  0.00  0.00    +0.000 C 
ENDBRANCH  23  24
ENDBRANCH  20  23
ENDBRANCH  18  19
BRANCH  18  28
ATOM     28  C   UNL     1       7.300   4.812  17.732  0.00  0.00    +0.000 C 
ATOM     29  O   UNL     1       8.275   4.096  17.554  0.00  0.00    +0.000 OA
BRANCH  28  30
ATOM     30  C   UNL     1       7.546   6.039  18.543  0.00  0.00    +0.000 C 
ATOM     31  N   UNL     1       7.619   7.145  17.851  0.00  0.00    +0.000 NA
ATOM     32  N   UNL     1       7.696   8.104  17.240  0.00  0.00    +0.000 NA
ENDBRANCH  28  30
ENDBRANCH  18  28
ENDBRANCH  17  18
ENDBRANCH   1  17
TORSDOF 15
ENDMDL
MODEL 2
REMARK VINA RESULT:      -6.8      6.603     11.535
REMARK  Name = 
REMARK  22 active torsions:
REMARK  status: ('A' for Active; 'I' for Inactive)
REMARK    1  A    between atoms: C_1  and  C_2
REMARK    2  A    between atoms: C_2  and  C_3
REMARK    3  A    between atoms: C_4  and  C_5
REMARK    4  A    between atoms: C_5  and  C_6
REMARK    5  A    between atoms: C_6  and  C_7
REMARK    6  A    between atoms: C_7  and  C_8
REMARK    7  A    between atoms: C_9  and  C_10
REMARK    8  A    between atoms: C_10  and  C_11
REMARK    9  A    between atoms: C_11  and  C_12
REMARK   10  A    between atoms: C_12  and  C_13
REMARK   11  A    between atoms: C_14  and  C_15
REMARK   12  A    between atoms: C_15  and  S_16
REMARK   13  A    between atoms: S_16  and  C_17
REMARK   14  A    between atoms: C_17  and  C_18
REMARK   15  A    between atoms: C_18  and  N_19
REMARK   16  A    between atoms: C_18  and  C_27
REMARK   17  A    between atoms: C_20  and  O_22
REMARK   18  A    between atoms: O_22  and  C_23
REMARK   19  A    between atoms: C_23  and  C_24
REMARK   20  A    between atoms: C_23  and  C_25
REMARK   21  A    between atoms: C_23  and  C_26
REMARK   22  A    between atoms: C_27  and  C_29
REMARK                            x       y       z     vdW  Elec       q    Type
REMARK                         _______ _______ _______ _____ _____    ______ ____
ROOT
ATOM      1  S   UNL     1      -1.221  10.383  18.886  0.00  0.00    +0.000 S 
ENDROOT
BRANCH   1   2
ATOM      2  C   UNL     1       0.506  10.351  19.471  0.00  0.00    +0.000 C 
BRANCH   2   5
ATOM      3  C   UNL     1       2.026   8.479  18.632  0.00  0.00    +0.000 C 
ATOM      4  C   UNL     1       1.968   7.727  19.935  0.00  0.00    +0.000 C 
ATOM      5  C   UNL     1       1.384   9.659  18.474  0.00  0.00    +0.000 C 
BRANCH   3   6
ATOM      6  C   UNL     1       2.893   7.849  17.540  0.00  0.00    +0.000 C 
BRANCH   6   7
ATOM      7  C   UNL     1       3.737   6.670  18.038  0.00  0.00    +0.000 C 
BRANCH   7  10
ATOM      8  C   UNL     1       3.960   4.188  18.053  0.00  0.00    +0.000 C 
ATOM      9  C   UNL     1       5.173   4.328  18.945  0.00  0.00    +0.000 C 
ATOM     10  C   UNL     1       3.283   5.288  17.653  0.00  0.00    +0.000 C 
BRANCH   8  11
ATOM     11  C   UNL     1       3.499   2.813  17.597  0.00  0.00    +0.000 C 
BRANCH  11  12
ATOM     12  C   UNL     1       2.094   2.398  18.048  0.00  0.00    +0.000 C 
BRANCH  12  16
ATOM     13  C   UNL     1       1.584   2.456  21.904  0.00  0.00    +0.000 C 
ATOM     14  C   UNL     1       1.527   2.870  20.463  0.00  0.00    +0.000 C 
ATOM     15  C   UNL     1       0.905   4.203  20.147  0.00  0.00    +0.000 C 
ATOM     16  C   UNL     1       2.015   2.055  19.509  0.00  0.00    +0.000 C 
ENDBRANCH  12  16
ENDBRANCH  11  12
ENDBRANCH   8  11
ENDBRANCH   7  10
ENDBRANCH   6   7
ENDBRANCH   3   6
ENDBRANCH   2   5
ENDBRANCH   1   2
BRANCH   1  17
ATOM     17  C   UNL     1      -1.508  12.197  18.822  0.00  0.00    +0.000 C 
BRANCH  17  18
ATOM     18  C   UNL     1      -2.127  12.676  20.148  0.00  0.00    +0.000 C 
BRANCH  18  19
ATOM     19  N   UNL     1      -3.513  13.127  20.056  0.00  0.00    +0.000 N 
ATOM     20  C   UNL     1      -4.377  12.958  21.100  0.00  0.00    +0.000 C 
ATOM     21  O   UNL     1      -4.127  12.289  22.086  0.00  0.00    +0.000 OA
ATOM     22  H   UNL     1      -3.737  13.914  19.461  0.00  0.00    +0.000 HD
BRANCH  20  23
ATOM     23  O   UNL     1      -5.535  13.620  20.862  0.00  0.00    +0.000 OA
BRANCH  23  24
ATOM     24  C   UNL     1      -6.736  12.842  20.603  0.00  0.00    +0.000 C 
ATOM     25  C   UNL     1      -6.395  11.492  19.959  0.00  0.00    +0.000 C 
ATOM     26  C   UNL     1      -7.375  12.571  21.975  0.00  0.00    +0.000 C 
ATOM     27  C   UNL     1      -7.743  13.649  19.770  0.00  0.00    +0.000 C 
ENDBRANCH  23  24
ENDBRANCH  20  23
ENDBRANCH  18  19
BRANCH  18  28
ATOM     28  C   UNL     1      -1.257  13.764  20.784  0.00  0.00    +0.000 C 
ATOM     29  O   UNL     1      -1.376  14.973  20.643  0.00  0.00    +0.000 OA
BRANCH  28  30
ATOM     30  C   UNL     1      -0.158  13.330  21.693  0.00  0.00    +0.000 C 
ATOM     31  N   UNL     1      -0.419  12.257  22.393  0.00  0.00    +0.000 NA
ATOM     32  N   UNL     1      -0.659  11.330  23.010  0.00  0.00    +0.000 NA
ENDBRANCH  28  30
ENDBRANCH  18  28
ENDBRANCH  17  18
ENDBRANCH   1  17
TORSDOF 15
ENDMDL
MODEL 3
REMARK VINA RESULT:      -6.8      2.165      3.503
REMARK  Name = 
REMARK  22 active torsions:
REMARK  status: ('A' for Active; 'I' for Inactive)
REMARK    1  A    between atoms: C_1  and  C_2
REMARK    2  A    between atoms: C_2  and  C_3
REMARK    3  A    between atoms: C_4  and  C_5
REMARK    4  A    between atoms: C_5  and  C_6
REMARK    5  A    between atoms: C_6  and  C_7
REMARK    6  A    between atoms: C_7  and  C_8
REMARK    7  A    between atoms: C_9  and  C_10
REMARK    8  A    between atoms: C_10  and  C_11
REMARK    9  A    between atoms: C_11  and  C_12
REMARK   10  A    between atoms: C_12  and  C_13
REMARK   11  A    between atoms: C_14  and  C_15
REMARK   12  A    between atoms: C_15  and  S_16
REMARK   13  A    between atoms: S_16  and  C_17
REMARK   14  A    between atoms: C_17  and  C_18
REMARK   15  A    between atoms: C_18  and  N_19
REMARK   16  A    between atoms: C_18  and  C_27
REMARK   17  A    between atoms: C_20  and  O_22
REMARK   18  A    between atoms: O_22  and  C_23
REMARK   19  A    between atoms: C_23  and  C_24
REMARK   20  A    between atoms: C_23  and  C_25
REMARK   21  A    between atoms: C_23  and  C_26
REMARK   22  A    between atoms: C_27  and  C_29
REMARK                            x       y       z     vdW  Elec       q    Type
REMARK                         _______ _______ _______ _____ _____    ______ ____
ROOT
ATOM      1  S   UNL     1       4.126   7.323  17.733  0.00  0.00    +0.000 S 
ENDROOT
BRANCH   1   2
ATOM      2  C   UNL     1       2.340   7.264  18.094  0.00  0.00    +0.000 C 
BRANCH   2   5
ATOM      3  C   UNL     1       1.274   9.290  19.225  0.00  0.00    +0.000 C 
ATOM      4  C   UNL     1       1.185   8.607  20.564  0.00  0.00    +0.000 C 
ATOM      5  C   UNL     1       1.769   8.648  18.143  0.00  0.00    +0.000 C 
BRANCH   3   6
ATOM      6  C   UNL     1       0.724  10.716  19.170  0.00  0.00    +0.000 C 
BRANCH   6   7
ATOM      7  C   UNL     1      -0.756  10.814  19.557  0.00  0.00    +0.000 C 
BRANCH   7  10
ATOM      8  C   UNL     1      -2.917  11.446  18.489  0.00  0.00    +0.000 C 
ATOM      9  C   UNL     1      -3.194  12.368  19.656  0.00  0.00    +0.000 C 
ATOM     10  C   UNL     1      -1.765  10.741  18.443  0.00  0.00    +0.000 C 
BRANCH   8  11
ATOM     11  C   UNL     1      -3.934  11.303  17.369  0.00  0.00    +0.000 C 
BRANCH  11  12
ATOM     12  C   UNL     1      -5.379  11.664  17.730  0.00  0.00    +0.000 C 
BRANCH  12  16
ATOM     13  C   UNL     1      -7.452   9.543  20.249  0.00  0.00    +0.000 C 
ATOM     14  C   UNL     1      -6.849  10.733  19.560  0.00  0.00    +0.000 C 
ATOM     15  C   UNL     1      -7.120  12.090  20.152  0.00  0.00    +0.000 C 
ATOM     16  C   UNL     1      -6.104  10.563  18.452  0.00  0.00    +0.000 C 
ENDBRANCH  12  16
ENDBRANCH  11  12
ENDBRANCH   8  11
ENDBRANCH   7  10
ENDBRANCH   6   7
ENDBRANCH   3   6
ENDBRANCH   2   5
ENDBRANCH   1   2
BRANCH   1  17
ATOM     17  C   UNL     1       4.377   5.630  17.063  0.00  0.00    +0.000 C 
BRANCH  17  18
ATOM     18  C   UNL     1       5.530   5.637  16.042  0.00  0.00    +0.000 C 
BRANCH  18  19
ATOM     19  N   UNL     1       5.545   4.507  15.118  0.00  0.00    +0.000 N 
ATOM     20  C   UNL     1       6.452   4.445  14.099  0.00  0.00    +0.000 C 
ATOM     21  O   UNL     1       7.177   5.369  13.779  0.00  0.00    +0.000 OA
ATOM     22  H   UNL     1       5.227   3.601  15.441  0.00  0.00    +0.000 HD
BRANCH  20  23
ATOM     23  O   UNL     1       6.403   3.229  13.501  0.00  0.00    +0.000 OA
BRANCH  23  24
ATOM     24  C   UNL     1       6.142   3.171  12.071  0.00  0.00    +0.000 C 
ATOM     25  C   UNL     1       7.123   4.055  11.291  0.00  0.00    +0.000 C 
ATOM     26  C   UNL     1       6.376   1.710  11.653  0.00  0.00    +0.000 C 
ATOM     27  C   UNL     1       4.676   3.515  11.768  0.00  0.00    +0.000 C 
ENDBRANCH  23  24
ENDBRANCH  20  23
ENDBRANCH  18  19
BRANCH  18  28
ATOM     28  C   UNL     1       6.878   5.755  16.757  0.00  0.00    +0.000 C 
ATOM     29  O   UNL     1       7.677   6.677  16.670  0.00  0.00    +0.000 OA
BRANCH  28  30
ATOM     30  C   UNL     1       7.271   4.653  17.683  0.00  0.00    +0.000 C 
ATOM     31  N   UNL     1       7.374   5.005  18.938  0.00  0.00    +0.000 NA
ATOM     32  N   UNL     1       7.476   5.321  20.027  0.00  0.00    +0.000 NA
ENDBRANCH  28  30
ENDBRANCH  18  28
ENDBRANCH  17  18
ENDBRANCH   1  17
TORSDOF 15
ENDMDL
MODEL 4
REMARK VINA RESULT:      -6.6      3.079      5.840
REMARK  Name = 
REMARK  22 active torsions:
REMARK  status: ('A' for Active; 'I' for Inactive)
REMARK    1  A    between atoms: C_1  and  C_2
REMARK    2  A    between atoms: C_2  and  C_3
REMARK    3  A    between atoms: C_4  and  C_5
REMARK    4  A    between atoms: C_5  and  C_6
REMARK    5  A    between atoms: C_6  and  C_7
REMARK    6  A    between atoms: C_7  and  C_8
REMARK    7  A    between atoms: C_9  and  C_10
REMARK    8  A    between atoms: C_10  and  C_11
REMARK    9  A    between atoms: C_11  and  C_12
REMARK   10  A    between atoms: C_12  and  C_13
REMARK   11  A    between atoms: C_14  and  C_15
REMARK   12  A    between atoms: C_15  and  S_16
REMARK   13  A    between atoms: S_16  and  C_17
REMARK   14  A    between atoms: C_17  and  C_18
REMARK   15  A    between atoms: C_18  and  N_19
REMARK   16  A    between atoms: C_18  and  C_27
REMARK   17  A    between atoms: C_20  and  O_22
REMARK   18  A    between atoms: O_22  and  C_23
REMARK   19  A    between atoms: C_23  and  C_24
REMARK   20  A    between atoms: C_23  and  C_25
REMARK   21  A    between atoms: C_23  and  C_26
REMARK   22  A    between atoms: C_27  and  C_29
REMARK                            x       y       z     vdW  Elec       q    Type
REMARK                         _______ _______ _______ _____ _____    ______ ____
ROOT
ATOM      1  S   UNL     1       2.551   7.581  18.539  0.00  0.00    +0.000 S 
ENDROOT
BRANCH   1   2
ATOM      2  C   UNL     1       2.201   9.360  18.339  0.00  0.00    +0.000 C 
BRANCH   2   5
ATOM      3  C   UNL     1      -0.201  10.225  18.338  0.00  0.00    +0.000 C 
ATOM      4  C   UNL     1      -0.087  10.804  19.723  0.00  0.00    +0.000 C 
ATOM      5  C   UNL     1       0.831   9.563  17.767  0.00  0.00    +0.000 C 
BRANCH   3   6
ATOM      6  C   UNL     1      -1.563  10.388  17.659  0.00  0.00    +0.000 C 
BRANCH   6   7
ATOM      7  C   UNL     1      -2.353  11.601  18.165  0.00  0.00    +0.000 C 
BRANCH   7  10
ATOM      8  C   UNL     1      -4.816  11.347  17.886  0.00  0.00    +0.000 C 
ATOM      9  C   UNL     1      -4.643  11.560  16.398  0.00  0.00    +0.000 C 
ATOM     10  C   UNL     1      -3.736  11.347  18.699  0.00  0.00    +0.000 C 
BRANCH   8  11
ATOM     11  C   UNL     1      -6.202  11.140  18.474  0.00  0.00    +0.000 C 
BRANCH  11  12
ATOM     12  C   UNL     1      -6.810  12.351  19.191  0.00  0.00    +0.000 C 
BRANCH  12  16
ATOM     13  C   UNL     1      -5.653  12.868  22.870  0.00  0.00    +0.000 C 
ATOM     14  C   UNL     1      -5.798  13.071  21.390  0.00  0.00    +0.000 C 
ATOM     15  C   UNL     1      -4.973  14.157  20.754  0.00  0.00    +0.000 C 
ATOM     16  C   UNL     1      -6.646  12.300  20.684  0.00  0.00    +0.000 C 
ENDBRANCH  12  16
ENDBRANCH  11  12
ENDBRANCH   8  11
ENDBRANCH   7  10
ENDBRANCH   6   7
ENDBRANCH   3   6
ENDBRANCH   2   5
ENDBRANCH   1   2
BRANCH   1  17
ATOM     17  C   UNL     1       3.865   7.365  17.273  0.00  0.00    +0.000 C 
BRANCH  17  18
ATOM     18  C   UNL     1       4.390   5.918  17.305  0.00  0.00    +0.000 C 
BRANCH  18  19
ATOM     19  N   UNL     1       4.015   5.149  18.488  0.00  0.00    +0.000 N 
ATOM     20  C   UNL     1       3.303   3.989  18.375  0.00  0.00    +0.000 C 
ATOM     21  O   UNL     1       2.790   3.606  17.339  0.00  0.00    +0.000 OA
ATOM     22  H   UNL     1       4.602   5.192  19.311  0.00  0.00    +0.000 HD
BRANCH  20  23
ATOM     23  O   UNL     1       3.241   3.359  19.573  0.00  0.00    +0.000 OA
BRANCH  23  24
ATOM     24  C   UNL     1       1.938   3.178  20.194  0.00  0.00    +0.000 C 
ATOM     25  C   UNL     1       2.072   2.612  21.613  0.00  0.00    +0.000 C 
ATOM     26  C   UNL     1       1.315   4.581  20.295  0.00  0.00    +0.000 C 
ATOM     27  C   UNL     1       1.022   2.323  19.307  0.00  0.00    +0.000 C 
ENDBRANCH  23  24
ENDBRANCH  20  23
ENDBRANCH  18  19
BRANCH  18  28
ATOM     28  C   UNL     1       5.910   5.894  17.118  0.00  0.00    +0.000 C 
ATOM     29  O   UNL     1       6.580   6.680  16.462  0.00  0.00    +0.000 OA
BRANCH  28  30
ATOM     30  C   UNL     1       6.679   4.827  17.820  0.00  0.00    +0.000 C 
ATOM     31  N   UNL     1       7.095   5.150  19.016  0.00  0.00    +0.000 NA
ATOM     32  N   UNL     1       7.467   5.443  20.052  0.00  0.00    +0.000 NA
ENDBRANCH  28  30
ENDBRANCH  18  28
ENDBRANCH  17  18
ENDBRANCH   1  17
TORSDOF 15
ENDMDL
MODEL 5
REMARK VINA RESULT:      -6.6      2.938      5.319
REMARK  Name = 
REMARK  22 active torsions:
REMARK  status: ('A' for Active; 'I' for Inactive)
REMARK    1  A    between atoms: C_1  and  C_2
REMARK    2  A    between atoms: C_2  and  C_3
REMARK    3  A    between atoms: C_4  and  C_5
REMARK    4  A    between atoms: C_5  and  C_6
REMARK    5  A    between atoms: C_6  and  C_7
REMARK    6  A    between atoms: C_7  and  C_8
REMARK    7  A    between atoms: C_9  and  C_10
REMARK    8  A    between atoms: C_10  and  C_11
REMARK    9  A    between atoms: C_11  and  C_12
REMARK   10  A    between atoms: C_12  and  C_13
REMARK   11  A    between atoms: C_14  and  C_15
REMARK   12  A    between atoms: C_15  and  S_16
REMARK   13  A    between atoms: S_16  and  C_17
REMARK   14  A    between atoms: C_17  and  C_18
REMARK   15  A    between atoms: C_18  and  N_19
REMARK   16  A    between atoms: C_18  and  C_27
REMARK   17  A    between atoms: C_20  and  O_22
REMARK   18  A    between atoms: O_22  and  C_23
REMARK   19  A    between atoms: C_23  and  C_24
REMARK   20  A    between atoms: C_23  and  C_25
REMARK   21  A    between atoms: C_23  and  C_26
REMARK   22  A    between atoms: C_27  and  C_29
REMARK                            x       y       z     vdW  Elec       q    Type
REMARK                         _______ _______ _______ _____ _____    ______ ____
ROOT
ATOM      1  S   UNL     1       2.681   5.655  17.655  0.00  0.00    +0.000 S 
ENDROOT
BRANCH   1   2
ATOM      2  C   UNL     1       3.322   7.109  18.550  0.00  0.00    +0.000 C 
BRANCH   2   5
ATOM      3  C   UNL     1       1.646   8.909  19.233  0.00  0.00    +0.000 C 
ATOM      4  C   UNL     1       1.518   8.382  20.638  0.00  0.00    +0.000 C 
ATOM      5  C   UNL     1       2.438   8.297  18.324  0.00  0.00    +0.000 C 
BRANCH   3   6
ATOM      6  C   UNL     1       0.787  10.130  18.902  0.00  0.00    +0.000 C 
BRANCH   6   7
ATOM      7  C   UNL     1      -0.682   9.973  19.315  0.00  0.00    +0.000 C 
BRANCH   7  10
ATOM      8  C   UNL     1      -2.293  10.921  17.668  0.00  0.00    +0.000 C 
ATOM      9  C   UNL     1      -1.910  12.309  18.131  0.00  0.00    +0.000 C 
ATOM     10  C   UNL     1      -1.696   9.838  18.213  0.00  0.00    +0.000 C 
BRANCH   8  11
ATOM     11  C   UNL     1      -3.352  10.738  16.594  0.00  0.00    +0.000 C 
BRANCH  11  12
ATOM     12  C   UNL     1      -2.862  10.146  15.268  0.00  0.00    +0.000 C 
BRANCH  12  16
ATOM     13  C   UNL     1      -4.863   9.807  11.948  0.00  0.00    +0.000 C 
ATOM     14  C   UNL     1      -3.724   9.767  12.924  0.00  0.00    +0.000 C 
ATOM     15  C   UNL     1      -2.369   9.380  12.395  0.00  0.00    +0.000 C 
ATOM     16  C   UNL     1      -3.936  10.066  14.220  0.00  0.00    +0.000 C 
ENDBRANCH  12  16
ENDBRANCH  11  12
ENDBRANCH   8  11
ENDBRANCH   7  10
ENDBRANCH   6   7
ENDBRANCH   3   6
ENDBRANCH   2   5
ENDBRANCH   1   2
BRANCH   1  17
ATOM     17  C   UNL     1       4.212   5.093  16.809  0.00  0.00    +0.000 C 
BRANCH  17  18
ATOM     18  C   UNL     1       4.988   4.124  17.720  0.00  0.00    +0.000 C 
BRANCH  18  19
ATOM     19  N   UNL     1       4.303   3.753  18.955  0.00  0.00    +0.000 N 
ATOM     20  C   UNL     1       3.469   2.672  18.996  0.00  0.00    +0.000 C 
ATOM     21  O   UNL     1       3.103   2.058  18.011  0.00  0.00    +0.000 OA
ATOM     22  H   UNL     1       4.732   3.975  19.844  0.00  0.00    +0.000 HD
BRANCH  20  23
ATOM     23  O   UNL     1       3.105   2.410  20.276  0.00  0.00    +0.000 OA
BRANCH  23  24
ATOM     24  C   UNL     1       1.933   3.082  20.813  0.00  0.00    +0.000 C 
ATOM     25  C   UNL     1       0.744   2.982  19.849  0.00  0.00    +0.000 C 
ATOM     26  C   UNL     1       1.566   2.334  22.106  0.00  0.00    +0.000 C 
ATOM     27  C   UNL     1       2.259   4.534  21.190  0.00  0.00    +0.000 C 
ENDBRANCH  23  24
ENDBRANCH  20  23
ENDBRANCH  18  19
BRANCH  18  28
ATOM     28  C   UNL     1       6.379   4.682  18.034  0.00  0.00    +0.000 C 
ATOM     29  O   UNL     1       6.924   4.720  19.129  0.00  0.00    +0.000 OA
BRANCH  28  30
ATOM     30  C   UNL     1       7.184   5.219  16.899  0.00  0.00    +0.000 C 
ATOM     31  N   UNL     1       7.427   6.502  16.959  0.00  0.00    +0.000 NA
ATOM     32  N   UNL     1       7.621   7.623  17.011  0.00  0.00    +0.000 NA
ENDBRANCH  28  30
ENDBRANCH  18  28
ENDBRANCH  17  18
ENDBRANCH   1  17
TORSDOF 15
ENDMDL
MODEL 6
REMARK VINA RESULT:      -6.6      2.919      4.845
REMARK  Name = 
REMARK  22 active torsions:
REMARK  status: ('A' for Active; 'I' for Inactive)
REMARK    1  A    between atoms: C_1  and  C_2
REMARK    2  A    between atoms: C_2  and  C_3
REMARK    3  A    between atoms: C_4  and  C_5
REMARK    4  A    between atoms: C_5  and  C_6
REMARK    5  A    between atoms: C_6  and  C_7
REMARK    6  A    between atoms: C_7  and  C_8
REMARK    7  A    between atoms: C_9  and  C_10
REMARK    8  A    between atoms: C_10  and  C_11
REMARK    9  A    between atoms: C_11  and  C_12
REMARK   10  A    between atoms: C_12  and  C_13
REMARK   11  A    between atoms: C_14  and  C_15
REMARK   12  A    between atoms: C_15  and  S_16
REMARK   13  A    between atoms: S_16  and  C_17
REMARK   14  A    between atoms: C_17  and  C_18
REMARK   15  A    between atoms: C_18  and  N_19
REMARK   16  A    between atoms: C_18  and  C_27
REMARK   17  A    between atoms: C_20  and  O_22
REMARK   18  A    between atoms: O_22  and  C_23
REMARK   19  A    between atoms: C_23  and  C_24
REMARK   20  A    between atoms: C_23  and  C_25
REMARK   21  A    between atoms: C_23  and  C_26
REMARK   22  A    between atoms: C_27  and  C_29
REMARK                            x       y       z     vdW  Elec       q    Type
REMARK                         _______ _______ _______ _____ _____    ______ ____
ROOT
ATOM      1  S   UNL     1       4.139   6.776  17.559  0.00  0.00    +0.000 S 
ENDROOT
BRANCH   1   2
ATOM      2  C   UNL     1       2.396   6.517  18.029  0.00  0.00    +0.000 C 
BRANCH   2   5
ATOM      3  C   UNL     1       1.542   8.607  19.219  0.00  0.00    +0.000 C 
ATOM      4  C   UNL     1       1.334   9.362  17.933  0.00  0.00    +0.000 C 
ATOM      5  C   UNL     1       2.045   7.352  19.222  0.00  0.00    +0.000 C 
BRANCH   3   6
ATOM      6  C   UNL     1       1.203   9.372  20.500  0.00  0.00    +0.000 C 
BRANCH   6   7
ATOM      7  C   UNL     1      -0.293   9.679  20.648  0.00  0.00    +0.000 C 
BRANCH   7  10
ATOM      8  C   UNL     1      -1.052  12.014  21.070  0.00  0.00    +0.000 C 
ATOM      9  C   UNL     1      -0.853  11.784  22.552  0.00  0.00    +0.000 C 
ATOM     10  C   UNL     1      -0.766  11.031  20.188  0.00  0.00    +0.000 C 
BRANCH   8  11
ATOM     11  C   UNL     1      -1.579  13.348  20.567  0.00  0.00    +0.000 C 
BRANCH  11  12
ATOM     12  C   UNL     1      -0.547  14.476  20.462  0.00  0.00    +0.000 C 
BRANCH  12  16
ATOM     13  C   UNL     1       2.460  13.839  18.075  0.00  0.00    +0.000 C 
ATOM     14  C   UNL     1       1.611  13.840  19.313  0.00  0.00    +0.000 C 
ATOM     15  C   UNL     1       2.209  13.261  20.566  0.00  0.00    +0.000 C 
ATOM     16  C   UNL     1       0.362  14.340  19.272  0.00  0.00    +0.000 C 
ENDBRANCH  12  16
ENDBRANCH  11  12
ENDBRANCH   8  11
ENDBRANCH   7  10
ENDBRANCH   6   7
ENDBRANCH   3   6
ENDBRANCH   2   5
ENDBRANCH   1   2
BRANCH   1  17
ATOM     17  C   UNL     1       4.530   5.129  16.843  0.00  0.00    +0.000 C 
BRANCH  17  18
ATOM     18  C   UNL     1       5.280   4.272  17.880  0.00  0.00    +0.000 C 
BRANCH  18  19
ATOM     19  N   UNL     1       4.514   3.939  19.077  0.00  0.00    +0.000 N 
ATOM     20  C   UNL     1       3.786   2.785  19.146  0.00  0.00    +0.000 C 
ATOM     21  O   UNL     1       3.580   2.054  18.195  0.00  0.00    +0.000 OA
ATOM     22  H   UNL     1       4.830   4.280  19.976  0.00  0.00    +0.000 HD
BRANCH  20  23
ATOM     23  O   UNL     1       3.323   2.598  20.407  0.00  0.00    +0.000 OA
BRANCH  23  24
ATOM     24  C   UNL     1       2.019   3.141  20.753  0.00  0.00    +0.000 C 
ATOM     25  C   UNL     1       1.394   2.377  21.927  0.00  0.00    +0.000 C 
ATOM     26  C   UNL     1       2.266   4.591  21.202  0.00  0.00    +0.000 C 
ATOM     27  C   UNL     1       1.099   3.181  19.525  0.00  0.00    +0.000 C 
ENDBRANCH  23  24
ENDBRANCH  20  23
ENDBRANCH  18  19
BRANCH  18  28
ATOM     28  C   UNL     1       6.605   4.935  18.266  0.00  0.00    +0.000 C 
ATOM     29  O   UNL     1       7.036   5.106  19.398  0.00  0.00    +0.000 OA
BRANCH  28  30
ATOM     30  C   UNL     1       7.491   5.408  17.165  0.00  0.00    +0.000 C 
ATOM     31  N   UNL     1       7.643   6.705  17.104  0.00  0.00    +0.000 NA
ATOM     32  N   UNL     1       7.759   7.837  17.048  0.00  0.00    +0.000 NA
ENDBRANCH  28  30
ENDBRANCH  18  28
ENDBRANCH  17  18
ENDBRANCH   1  17
TORSDOF 15
ENDMDL
MODEL 7
REMARK VINA RESULT:      -6.6      2.881      5.285
REMARK  Name = 
REMARK  22 active torsions:
REMARK  status: ('A' for Active; 'I' for Inactive)
REMARK    1  A    between atoms: C_1  and  C_2
REMARK    2  A    between atoms: C_2  and  C_3
REMARK    3  A    between atoms: C_4  and  C_5
REMARK    4  A    between atoms: C_5  and  C_6
REMARK    5  A    between atoms: C_6  and  C_7
REMARK    6  A    between atoms: C_7  and  C_8
REMARK    7  A    between atoms: C_9  and  C_10
REMARK    8  A    between atoms: C_10  and  C_11
REMARK    9  A    between atoms: C_11  and  C_12
REMARK   10  A    between atoms: C_12  and  C_13
REMARK   11  A    between atoms: C_14  and  C_15
REMARK   12  A    between atoms: C_15  and  S_16
REMARK   13  A    between atoms: S_16  and  C_17
REMARK   14  A    between atoms: C_17  and  C_18
REMARK   15  A    between atoms: C_18  and  N_19
REMARK   16  A    between atoms: C_18  and  C_27
REMARK   17  A    between atoms: C_20  and  O_22
REMARK   18  A    between atoms: O_22  and  C_23
REMARK   19  A    between atoms: C_23  and  C_24
REMARK   20  A    between atoms: C_23  and  C_25
REMARK   21  A    between atoms: C_23  and  C_26
REMARK   22  A    between atoms: C_27  and  C_29
REMARK                            x       y       z     vdW  Elec       q    Type
REMARK                         _______ _______ _______ _____ _____    ______ ____
ROOT
ATOM      1  S   UNL     1       2.874   6.925  17.783  0.00  0.00    +0.000 S 
ENDROOT
BRANCH   1   2
ATOM      2  C   UNL     1       2.536   7.598  19.444  0.00  0.00    +0.000 C 
BRANCH   2   5
ATOM      3  C   UNL     1       0.791   9.174  20.438  0.00  0.00    +0.000 C 
ATOM      4  C   UNL     1       1.151   8.820  21.857  0.00  0.00    +0.000 C 
ATOM      5  C   UNL     1       1.412   8.587  19.390  0.00  0.00    +0.000 C 
BRANCH   3   6
ATOM      6  C   UNL     1      -0.344  10.186  20.274  0.00  0.00    +0.000 C 
BRANCH   6   7
ATOM      7  C   UNL     1      -0.422  10.791  18.867  0.00  0.00    +0.000 C 
BRANCH   7  10
ATOM      8  C   UNL     1      -2.774  11.148  18.126  0.00  0.00    +0.000 C 
ATOM      9  C   UNL     1      -2.855  12.346  19.046  0.00  0.00    +0.000 C 
ATOM     10  C   UNL     1      -1.625  10.442  18.034  0.00  0.00    +0.000 C 
BRANCH   8  11
ATOM     11  C   UNL     1      -3.984  10.729  17.308  0.00  0.00    +0.000 C 
BRANCH  11  12
ATOM     12  C   UNL     1      -5.321  10.709  18.056  0.00  0.00    +0.000 C 
BRANCH  12  16
ATOM     13  C   UNL     1      -7.916  13.604  18.189  0.00  0.00    +0.000 C 
ATOM     14  C   UNL     1      -7.028  12.479  18.632  0.00  0.00    +0.000 C 
ATOM     15  C   UNL     1      -7.115  12.050  20.072  0.00  0.00    +0.000 C 
ATOM     16  C   UNL     1      -6.190  11.897  17.753  0.00  0.00    +0.000 C 
ENDBRANCH  12  16
ENDBRANCH  11  12
ENDBRANCH   8  11
ENDBRANCH   7  10
ENDBRANCH   6   7
ENDBRANCH   3   6
ENDBRANCH   2   5
ENDBRANCH   1   2
BRANCH   1  17
ATOM     17  C   UNL     1       4.708   6.821  17.842  0.00  0.00    +0.000 C 
BRANCH  17  18
ATOM     18  C   UNL     1       5.143   5.359  18.051  0.00  0.00    +0.000 C 
BRANCH  18  19
ATOM     19  N   UNL     1       4.411   4.637  19.088  0.00  0.00    +0.000 N 
ATOM     20  C   UNL     1       3.806   3.443  18.818  0.00  0.00    +0.000 C 
ATOM     21  O   UNL     1       3.679   2.984  17.698  0.00  0.00    +0.000 OA
ATOM     22  H   UNL     1       4.688   4.749  20.055  0.00  0.00    +0.000 HD
BRANCH  20  23
ATOM     23  O   UNL     1       3.361   2.874  19.965  0.00  0.00    +0.000 OA
BRANCH  23  24
ATOM     24  C   UNL     1       1.934   2.902  20.243  0.00  0.00    +0.000 C 
ATOM     25  C   UNL     1       1.639   2.458  21.682  0.00  0.00    +0.000 C 
ATOM     26  C   UNL     1       1.499   4.370  20.096  0.00  0.00    +0.000 C 
ATOM     27  C   UNL     1       1.157   2.078  19.207  0.00  0.00    +0.000 C 
ENDBRANCH  23  24
ENDBRANCH  20  23
ENDBRANCH  18  19
BRANCH  18  28
ATOM     28  C   UNL     1       6.650   5.280  18.314  0.00  0.00    +0.000 C 
ATOM     29  O   UNL     1       7.258   5.785  19.247  0.00  0.00    +0.000 OA
BRANCH  28  30
ATOM     30  C   UNL     1       7.481   4.491  17.360  0.00  0.00    +0.000 C 
ATOM     31  N   UNL     1       7.492   4.949  16.136  0.00  0.00    +0.000 NA
ATOM     32  N   UNL     1       7.485   5.345  15.068  0.00  0.00    +0.000 NA
ENDBRANCH  28  30
ENDBRANCH  18  28
ENDBRANCH  17  18
ENDBRANCH   1  17
TORSDOF 15
ENDMDL
MODEL 8
REMARK VINA RESULT:      -6.5      3.477      5.607
REMARK  Name = 
REMARK  22 active torsions:
REMARK  status: ('A' for Active; 'I' for Inactive)
REMARK    1  A    between atoms: C_1  and  C_2
REMARK    2  A    between atoms: C_2  and  C_3
REMARK    3  A    between atoms: C_4  and  C_5
REMARK    4  A    between atoms: C_5  and  C_6
REMARK    5  A    between atoms: C_6  and  C_7
REMARK    6  A    between atoms: C_7  and  C_8
REMARK    7  A    between atoms: C_9  and  C_10
REMARK    8  A    between atoms: C_10  and  C_11
REMARK    9  A    between atoms: C_11  and  C_12
REMARK   10  A    between atoms: C_12  and  C_13
REMARK   11  A    between atoms: C_14  and  C_15
REMARK   12  A    between atoms: C_15  and  S_16
REMARK   13  A    between atoms: S_16  and  C_17
REMARK   14  A    between atoms: C_17  and  C_18
REMARK   15  A    between atoms: C_18  and  N_19
REMARK   16  A    between atoms: C_18  and  C_27
REMARK   17  A    between atoms: C_20  and  O_22
REMARK   18  A    between atoms: O_22  and  C_23
REMARK   19  A    between atoms: C_23  and  C_24
REMARK   20  A    between atoms: C_23  and  C_25
REMARK   21  A    between atoms: C_23  and  C_26
REMARK   22  A    between atoms: C_27  and  C_29
REMARK                            x       y       z     vdW  Elec       q    Type
REMARK                         _______ _______ _______ _____ _____    ______ ____
ROOT
ATOM      1  S   UNL     1       2.711   6.622  17.743  0.00  0.00    +0.000 S 
ENDROOT
BRANCH   1   2
ATOM      2  C   UNL     1       2.286   8.390  17.891  0.00  0.00    +0.000 C 
BRANCH   2   5
ATOM      3  C   UNL     1       0.815   9.571  19.610  0.00  0.00    +0.000 C 
ATOM      4  C   UNL     1       0.137  10.428  18.573  0.00  0.00    +0.000 C 
ATOM      5  C   UNL     1       1.787   8.696  19.270  0.00  0.00    +0.000 C 
BRANCH   3   6
ATOM      6  C   UNL     1       0.369   9.801  21.056  0.00  0.00    +0.000 C 
BRANCH   6   7
ATOM      7  C   UNL     1      -0.174  11.213  21.308  0.00  0.00    +0.000 C 
BRANCH   7  10
ATOM      8  C   UNL     1      -2.208  12.244  22.312  0.00  0.00    +0.000 C 
ATOM      9  C   UNL     1      -2.399  13.042  21.042  0.00  0.00    +0.000 C 
ATOM     10  C   UNL     1      -1.177  11.376  22.417  0.00  0.00    +0.000 C 
BRANCH   8  11
ATOM     11  C   UNL     1      -3.168  12.418  23.478  0.00  0.00    +0.000 C 
BRANCH  11  12
ATOM     12  C   UNL     1      -4.501  13.097  23.147  0.00  0.00    +0.000 C 
BRANCH  12  16
ATOM     13  C   UNL     1      -4.970  16.646  24.670  0.00  0.00    +0.000 C 
ATOM     14  C   UNL     1      -4.728  15.558  23.665  0.00  0.00    +0.000 C 
ATOM     15  C   UNL     1      -4.405  15.974  22.256  0.00  0.00    +0.000 C 
ATOM     16  C   UNL     1      -4.809  14.267  24.038  0.00  0.00    +0.000 C 
ENDBRANCH  12  16
ENDBRANCH  11  12
ENDBRANCH   8  11
ENDBRANCH   7  10
ENDBRANCH   6   7
ENDBRANCH   3   6
ENDBRANCH   2   5
ENDBRANCH   1   2
BRANCH   1  17
ATOM     17  C   UNL     1       4.541   6.717  17.881  0.00  0.00    +0.000 C 
BRANCH  17  18
ATOM     18  C   UNL     1       5.104   5.357  18.333  0.00  0.00    +0.000 C 
BRANCH  18  19
ATOM     19  N   UNL     1       4.310   4.664  19.343  0.00  0.00    +0.000 N 
ATOM     20  C   UNL     1       3.755   3.443  19.085  0.00  0.00    +0.000 C 
ATOM     21  O   UNL     1       3.728   2.929  17.981  0.00  0.00    +0.000 OA
ATOM     22  H   UNL     1       4.506   4.827  20.323  0.00  0.00    +0.000 HD
BRANCH  20  23
ATOM     23  O   UNL     1       3.235   2.915  20.220  0.00  0.00    +0.000 OA
BRANCH  23  24
ATOM     24  C   UNL     1       1.839   3.180  20.530  0.00  0.00    +0.000 C 
ATOM     25  C   UNL     1       1.413   2.474  21.823  0.00  0.00    +0.000 C 
ATOM     26  C   UNL     1       1.733   4.698  20.755  0.00  0.00    +0.000 C 
ATOM     27  C   UNL     1       0.936   2.820  19.342  0.00  0.00    +0.000 C 
ENDBRANCH  23  24
ENDBRANCH  20  23
ENDBRANCH  18  19
BRANCH  18  28
ATOM     28  C   UNL     1       6.551   5.507  18.808  0.00  0.00    +0.000 C 
ATOM     29  O   UNL     1       6.974   5.322  19.941  0.00  0.00    +0.000 OA
BRANCH  28  30
ATOM     30  C   UNL     1       7.577   5.893  17.797  0.00  0.00    +0.000 C 
ATOM     31  N   UNL     1       7.510   5.234  16.671  0.00  0.00    +0.000 NA
ATOM     32  N   UNL     1       7.454   4.645  15.697  0.00  0.00    +0.000 NA
ENDBRANCH  28  30
ENDBRANCH  18  28
ENDBRANCH  17  18
ENDBRANCH   1  17
TORSDOF 15
ENDMDL
MODEL 9
REMARK VINA RESULT:      -6.4      2.820      4.951
REMARK  Name = 
REMARK  22 active torsions:
REMARK  status: ('A' for Active; 'I' for Inactive)
REMARK    1  A    between atoms: C_1  and  C_2
REMARK    2  A    between atoms: C_2  and  C_3
REMARK    3  A    between atoms: C_4  and  C_5
REMARK    4  A    between atoms: C_5  and  C_6
REMARK    5  A    between atoms: C_6  and  C_7
REMARK    6  A    between atoms: C_7  and  C_8
REMARK    7  A    between atoms: C_9  and  C_10
REMARK    8  A    between atoms: C_10  and  C_11
REMARK    9  A    between atoms: C_11  and  C_12
REMARK   10  A    between atoms: C_12  and  C_13
REMARK   11  A    between atoms: C_14  and  C_15
REMARK   12  A    between atoms: C_15  and  S_16
REMARK   13  A    between atoms: S_16  and  C_17
REMARK   14  A    between atoms: C_17  and  C_18
REMARK   15  A    between atoms: C_18  and  N_19
REMARK   16  A    between atoms: C_18  and  C_27
REMARK   17  A    between atoms: C_20  and  O_22
REMARK   18  A    between atoms: O_22  and  C_23
REMARK   19  A    between atoms: C_23  and  C_24
REMARK   20  A    between atoms: C_23  and  C_25
REMARK   21  A    between atoms: C_23  and  C_26
REMARK   22  A    between atoms: C_27  and  C_29
REMARK                            x       y       z     vdW  Elec       q    Type
REMARK                         _______ _______ _______ _____ _____    ______ ____
ROOT
ATOM      1  S   UNL     1       4.647   7.516  17.405  0.00  0.00    +0.000 S 
ENDROOT
BRANCH   1   2
ATOM      2  C   UNL     1       2.938   7.299  18.006  0.00  0.00    +0.000 C 
BRANCH   2   5
ATOM      3  C   UNL     1       1.476   9.179  18.925  0.00  0.00    +0.000 C 
ATOM      4  C   UNL     1       1.300   8.508  20.262  0.00  0.00    +0.000 C 
ATOM      5  C   UNL     1       2.189   8.595  17.937  0.00  0.00    +0.000 C 
BRANCH   3   6
ATOM      6  C   UNL     1       0.756  10.518  18.755  0.00  0.00    +0.000 C 
BRANCH   6   7
ATOM      7  C   UNL     1       1.709  11.699  18.539  0.00  0.00    +0.000 C 
BRANCH   7  10
ATOM      8  C   UNL     1       1.473  13.941  19.601  0.00  0.00    +0.000 C 
ATOM      9  C   UNL     1       2.513  13.538  20.622  0.00  0.00    +0.000 C 
ATOM     10  C   UNL     1       1.121  13.081  18.618  0.00  0.00    +0.000 C 
BRANCH   8  11
ATOM     11  C   UNL     1       0.814  15.308  19.677  0.00  0.00    +0.000 C 
BRANCH  11  12
ATOM     12  C   UNL     1      -0.598  15.336  20.271  0.00  0.00    +0.000 C 
BRANCH  12  16
ATOM     13  C   UNL     1      -1.558  12.820  23.080  0.00  0.00    +0.000 C 
ATOM     14  C   UNL     1      -1.440  13.448  21.722  0.00  0.00    +0.000 C 
ATOM     15  C   UNL     1      -2.149  12.770  20.580  0.00  0.00    +0.000 C 
ATOM     16  C   UNL     1      -0.716  14.571  21.560  0.00  0.00    +0.000 C 
ENDBRANCH  12  16
ENDBRANCH  11  12
ENDBRANCH   8  11
ENDBRANCH   7  10
ENDBRANCH   6   7
ENDBRANCH   3   6
ENDBRANCH   2   5
ENDBRANCH   1   2
BRANCH   1  17
ATOM     17  C   UNL     1       4.724   6.171  16.156  0.00  0.00    +0.000 C 
BRANCH  17  18
ATOM     18  C   UNL     1       5.470   4.956  16.740  0.00  0.00    +0.000 C 
BRANCH  18  19
ATOM     19  N   UNL     1       4.997   4.509  18.047  0.00  0.00    +0.000 N 
ATOM     20  C   UNL     1       4.015   3.565  18.153  0.00  0.00    +0.000 C 
ATOM     21  O   UNL     1       3.357   3.162  17.211  0.00  0.00    +0.000 OA
ATOM     22  H   UNL     1       5.629   4.535  18.836  0.00  0.00    +0.000 HD
BRANCH  20  23
ATOM     23  O   UNL     1       3.880   3.173  19.443  0.00  0.00    +0.000 OA
BRANCH  23  24
ATOM     24  C   UNL     1       2.540   3.077  20.000  0.00  0.00    +0.000 C 
ATOM     25  C   UNL     1       2.583   2.745  21.497  0.00  0.00    +0.000 C 
ATOM     26  C   UNL     1       1.908   4.469  19.835  0.00  0.00    +0.000 C 
ATOM     27  C   UNL     1       1.686   2.079  19.205  0.00  0.00    +0.000 C 
ENDBRANCH  23  24
ENDBRANCH  20  23
ENDBRANCH  18  19
BRANCH  18  28
ATOM     28  C   UNL     1       6.977   5.224  16.786  0.00  0.00    +0.000 C 
ATOM     29  O   UNL     1       7.609   5.981  16.063  0.00  0.00    +0.000 OA
BRANCH  28  30
ATOM     30  C   UNL     1       7.776   4.520  17.829  0.00  0.00    +0.000 C 
ATOM     31  N   UNL     1       7.636   4.995  19.039  0.00  0.00    +0.000 NA
ATOM     32  N   UNL     1       7.520   5.424  20.088  0.00  0.00    +0.000 NA
ENDBRANCH  28  30
ENDBRANCH  18  28
ENDBRANCH  17  18
ENDBRANCH   1  17
TORSDOF 15
ENDMDL
