MODEL 1
REMARK VINA RESULT:      -7.2      0.000      0.000
REMARK  Name = 
REMARK  14 active torsions:
REMARK  status: ('A' for Active; 'I' for Inactive)
REMARK    1  A    between atoms: C_1  and  C_2
REMARK    2  A    between atoms: C_2  and  C_3
REMARK    3  A    between atoms: C_3  and  C_4
REMARK    4  A    between atoms: C_4  and  C_5
REMARK    5  A    between atoms: C_5  and  C_6
REMARK    6  A    between atoms: C_6  and  C_7
REMARK    7  A    between atoms: C_7  and  C_8
REMARK    8  A    between atoms: C_8  and  N_9
REMARK    9  A    between atoms: N_12  and  C_13
REMARK   10  A    between atoms: C_13  and  C_14
REMARK   11  A    between atoms: C_14  and  N_15
REMARK   12  A    between atoms: N_18  and  C_19
REMARK   13  A    between atoms: C_24  and  O_25
REMARK   14  A    between atoms: O_25  and  C_26
REMARK                            x       y       z     vdW  Elec       q    Type
REMARK                         _______ _______ _______ _____ _____    ______ ____
ROOT
ATOM      1  N   UNL     1       3.763   5.964  17.639  0.00  0.00    +0.000 N 
ATOM      2  C   UNL     1       3.160   7.060  18.282  0.00  0.00    +0.000 A 
ATOM      3  O   UNL     1       3.252   8.204  17.814  0.00  0.00    +0.000 OA
ATOM      4  N   UNL     1       2.455   6.813  19.448  0.00  0.00    +0.000 N 
ATOM      5  C   UNL     1       1.943   5.564  19.854  0.00  0.00    +0.000 A 
ATOM      6  O   UNL     1       1.188   5.376  20.785  0.00  0.00    +0.000 OA
ATOM      7  C   UNL     1       2.339   4.493  18.981  0.00  0.00    +0.000 A 
ATOM      8  C   UNL     1       1.876   3.190  19.068  0.00  0.00    +0.000 A 
ATOM      9  S   UNL     1       2.510   2.219  17.816  0.00  0.00    +0.000 S 
ATOM     10  C   UNL     1       3.446   3.525  17.206  0.00  0.00    +0.000 A 
ATOM     11  C   UNL     1       3.243   4.692  17.907  0.00  0.00    +0.000 A 
ENDROOT
BRANCH   1  12
ATOM     12  C   UNL     1       4.700   6.234  16.541  0.00  0.00    +0.000 C 
BRANCH  12  13
ATOM     13  C   UNL     1       6.156   5.790  16.807  0.00  0.00    +0.000 C 
BRANCH  13  14
ATOM     14  C   UNL     1       6.644   4.685  15.869  0.00  0.00    +0.000 C 
BRANCH  14  15
ATOM     15  C   UNL     1       6.359   5.038  14.412  0.00  0.00    +0.000 C 
BRANCH  15  16
ATOM     16  C   UNL     1       5.555   3.952  13.716  0.00  0.00    +0.000 C 
BRANCH  16  17
ATOM     17  C   UNL     1       6.386   3.310  12.608  0.00  0.00    +0.000 C 
BRANCH  17  19
ATOM     18  C   UNL     1       4.155   3.327  11.456  0.00  0.00    +0.000 C 
ATOM     19  C   UNL     1       5.480   2.602  11.609  0.00  0.00    +0.000 C 
ENDBRANCH  17  19
ENDBRANCH  16  17
ENDBRANCH  15  16
ENDBRANCH  14  15
ENDBRANCH  13  14
ENDBRANCH  12  13
ENDBRANCH   1  12
BRANCH   4  20
ATOM     20  C   UNL     1       2.010   7.949  20.238  0.00  0.00    +0.000 C 
BRANCH  20  21
ATOM     21  C   UNL     1       0.991   8.850  19.551  0.00  0.00    +0.000 C 
BRANCH  21  22
ATOM     22  N   UNL     1      -0.008   9.573  20.310  0.00  0.00    +0.000 NA
ATOM     23  C   UNL     1       0.502  10.582  21.289  0.00  0.00    +0.000 C 
ATOM     24  C   UNL     1       1.172  11.852  20.699  0.00  0.00    +0.000 C 
ATOM     25  N   UNL     1       0.249  12.462  19.726  0.00  0.00    +0.000 N 
ATOM     26  C   UNL     1      -0.137  11.541  18.649  0.00  0.00    +0.000 C 
ATOM     27  C   UNL     1      -0.834  10.289  19.291  0.00  0.00    +0.000 C 
BRANCH  25  28
ATOM     28  C   UNL     1       0.176  13.837  19.548  0.00  0.00    +0.000 A 
ATOM     29  C   UNL     1      -0.943  14.550  20.043  0.00  0.00    +0.000 A 
ATOM     30  C   UNL     1      -1.094  15.933  19.877  0.00  0.00    +0.000 A 
ATOM     31  C   UNL     1      -0.118  16.660  19.215  0.00  0.00    +0.000 A 
ATOM     32  C   UNL     1       0.997  15.999  18.723  0.00  0.00    +0.000 A 
ATOM     33  C   UNL     1       1.148  14.611  18.861  0.00  0.00    +0.000 A 
BRANCH  33  34
ATOM     34  O   UNL     1       2.316  14.215  18.257  0.00  0.00    +0.000 OA
ATOM     35  C   UNL     1       3.527  14.535  18.906  0.00  0.00    +0.000 C 
ENDBRANCH  33  34
ENDBRANCH  25  28
ENDBRANCH  21  22
ENDBRANCH  20  21
ENDBRANCH   4  20
TORSDOF 12
ENDMDL
MODEL 2
REMARK VINA RESULT:      -7.2      0.939      1.591
REMARK  Name = 
REMARK  14 active torsions:
REMARK  status: ('A' for Active; 'I' for Inactive)
REMARK    1  A    between atoms: C_1  and  C_2
REMARK    2  A    between atoms: C_2  and  C_3
REMARK    3  A    between atoms: C_3  and  C_4
REMARK    4  A    between atoms: C_4  and  C_5
REMARK    5  A    between atoms: C_5  and  C_6
REMARK    6  A    between atoms: C_6  and  C_7
REMARK    7  A    between atoms: C_7  and  C_8
REMARK    8  A    between atoms: C_8  and  N_9
REMARK    9  A    between atoms: N_12  and  C_13
REMARK   10  A    between atoms: C_13  and  C_14
REMARK   11  A    between atoms: C_14  and  N_15
REMARK   12  A    between atoms: N_18  and  C_19
REMARK   13  A    between atoms: C_24  and  O_25
REMARK   14  A    between atoms: O_25  and  C_26
REMARK                            x       y       z     vdW  Elec       q    Type
REMARK                         _______ _______ _______ _____ _____    ______ ____
ROOT
ATOM      1  N   UNL     1       3.769   5.831  17.698  0.00  0.00    +0.000 N 
ATOM      2  C   UNL     1       3.223   6.994  18.272  0.00  0.00    +0.000 A 
ATOM      3  O   UNL     1       3.393   8.104  17.749  0.00  0.00    +0.000 OA
ATOM      4  N   UNL     1       2.483   6.851  19.435  0.00  0.00    +0.000 N 
ATOM      5  C   UNL     1       1.888   5.657  19.893  0.00  0.00    +0.000 A 
ATOM      6  O   UNL     1       1.107   5.564  20.816  0.00  0.00    +0.000 OA
ATOM      7  C   UNL     1       2.233   4.520  19.083  0.00  0.00    +0.000 A 
ATOM      8  C   UNL     1       1.689   3.254  19.225  0.00  0.00    +0.000 A 
ATOM      9  S   UNL     1       2.284   2.183  18.038  0.00  0.00    +0.000 S 
ATOM     10  C   UNL     1       3.309   3.397  17.382  0.00  0.00    +0.000 A 
ATOM     11  C   UNL     1       3.166   4.609  18.019  0.00  0.00    +0.000 A 
ENDROOT
BRANCH   1  12
ATOM     12  C   UNL     1       4.740   5.987  16.607  0.00  0.00    +0.000 C 
BRANCH  12  13
ATOM     13  C   UNL     1       6.188   5.587  16.967  0.00  0.00    +0.000 C 
BRANCH  13  14
ATOM     14  C   UNL     1       6.774   4.509  16.053  0.00  0.00    +0.000 C 
BRANCH  14  15
ATOM     15  C   UNL     1       6.704   4.934  14.590  0.00  0.00    +0.000 C 
BRANCH  15  16
ATOM     16  C   UNL     1       5.777   4.036  13.786  0.00  0.00    +0.000 C 
BRANCH  16  17
ATOM     17  C   UNL     1       6.469   3.573  12.507  0.00  0.00    +0.000 C 
BRANCH  17  19
ATOM     18  C   UNL     1       4.271   3.187  11.358  0.00  0.00    +0.000 C 
ATOM     19  C   UNL     1       5.596   2.570  11.765  0.00  0.00    +0.000 C 
ENDBRANCH  17  19
ENDBRANCH  16  17
ENDBRANCH  15  16
ENDBRANCH  14  15
ENDBRANCH  13  14
ENDBRANCH  12  13
ENDBRANCH   1  12
BRANCH   4  20
ATOM     20  C   UNL     1       2.095   8.051  20.157  0.00  0.00    +0.000 C 
BRANCH  20  21
ATOM     21  C   UNL     1       0.944   8.831  19.535  0.00  0.00    +0.000 C 
BRANCH  21  22
ATOM     22  N   UNL     1       0.014   9.582  20.353  0.00  0.00    +0.000 NA
ATOM     23  C   UNL     1       0.610  10.601  21.272  0.00  0.00    +0.000 C 
ATOM     24  C   UNL     1       1.251  11.850  20.610  0.00  0.00    +0.000 C 
ATOM     25  N   UNL     1       0.266  12.456  19.697  0.00  0.00    +0.000 N 
ATOM     26  C   UNL     1      -0.211  11.523  18.669  0.00  0.00    +0.000 C 
ATOM     27  C   UNL     1      -0.875  10.293  19.385  0.00  0.00    +0.000 C 
BRANCH  25  28
ATOM     28  C   UNL     1       0.198  13.829  19.500  0.00  0.00    +0.000 A 
ATOM     29  C   UNL     1       1.276  14.502  18.874  0.00  0.00    +0.000 A 
ATOM     30  C   UNL     1       1.286  15.888  18.667  0.00  0.00    +0.000 A 
ATOM     31  C   UNL     1       0.205  16.654  19.070  0.00  0.00    +0.000 A 
ATOM     32  C   UNL     1      -0.873  16.031  19.679  0.00  0.00    +0.000 A 
ATOM     33  C   UNL     1      -0.884  14.649  19.916  0.00  0.00    +0.000 A 
BRANCH  33  34
ATOM     34  O   UNL     1      -2.048  14.304  20.560  0.00  0.00    +0.000 OA
ATOM     35  C   UNL     1      -1.988  14.107  21.955  0.00  0.00    +0.000 C 
ENDBRANCH  33  34
ENDBRANCH  25  28
ENDBRANCH  21  22
ENDBRANCH  20  21
ENDBRANCH   4  20
TORSDOF 12
ENDMDL
MODEL 3
REMARK VINA RESULT:      -7.1      2.501      3.183
REMARK  Name = 
REMARK  14 active torsions:
REMARK  status: ('A' for Active; 'I' for Inactive)
REMARK    1  A    between atoms: C_1  and  C_2
REMARK    2  A    between atoms: C_2  and  C_3
REMARK    3  A    between atoms: C_3  and  C_4
REMARK    4  A    between atoms: C_4  and  C_5
REMARK    5  A    between atoms: C_5  and  C_6
REMARK    6  A    between atoms: C_6  and  C_7
REMARK    7  A    between atoms: C_7  and  C_8
REMARK    8  A    between atoms: C_8  and  N_9
REMARK    9  A    between atoms: N_12  and  C_13
REMARK   10  A    between atoms: C_13  and  C_14
REMARK   11  A    between atoms: C_14  and  N_15
REMARK   12  A    between atoms: N_18  and  C_19
REMARK   13  A    between atoms: C_24  and  O_25
REMARK   14  A    between atoms: O_25  and  C_26
REMARK                            x       y       z     vdW  Elec       q    Type
REMARK                         _______ _______ _______ _____ _____    ______ ____
ROOT
ATOM      1  N   UNL     1       4.684   6.065  18.464  0.00  0.00    +0.000 N 
ATOM      2  C   UNL     1       3.664   7.023  18.325  0.00  0.00    +0.000 A 
ATOM      3  O   UNL     1       3.724   7.898  17.449  0.00  0.00    +0.000 OA
ATOM      4  N   UNL     1       2.587   6.947  19.194  0.00  0.00    +0.000 N 
ATOM      5  C   UNL     1       2.202   5.810  19.933  0.00  0.00    +0.000 A 
ATOM      6  O   UNL     1       1.173   5.689  20.563  0.00  0.00    +0.000 OA
ATOM      7  C   UNL     1       3.135   4.723  19.804  0.00  0.00    +0.000 A 
ATOM      8  C   UNL     1       2.941   3.450  20.315  0.00  0.00    +0.000 A 
ATOM      9  S   UNL     1       4.227   2.409  19.898  0.00  0.00    +0.000 S 
ATOM     10  C   UNL     1       5.062   3.678  19.093  0.00  0.00    +0.000 A 
ATOM     11  C   UNL     1       4.356   4.860  19.095  0.00  0.00    +0.000 A 
ENDROOT
BRANCH   1  12
ATOM     12  C   UNL     1       5.931   6.266  17.715  0.00  0.00    +0.000 C 
BRANCH  12  13
ATOM     13  C   UNL     1       5.877   5.823  16.235  0.00  0.00    +0.000 C 
BRANCH  13  14
ATOM     14  C   UNL     1       6.696   4.566  15.939  0.00  0.00    +0.000 C 
BRANCH  14  15
ATOM     15  C   UNL     1       5.899   3.580  15.090  0.00  0.00    +0.000 C 
BRANCH  15  16
ATOM     16  C   UNL     1       5.528   4.171  13.739  0.00  0.00    +0.000 C 
BRANCH  16  17
ATOM     17  C   UNL     1       6.419   3.587  12.646  0.00  0.00    +0.000 C 
BRANCH  17  19
ATOM     18  C   UNL     1       4.224   3.234  11.480  0.00  0.00    +0.000 C 
ATOM     19  C   UNL     1       5.610   2.672  11.736  0.00  0.00    +0.000 C 
ENDBRANCH  17  19
ENDBRANCH  16  17
ENDBRANCH  15  16
ENDBRANCH  14  15
ENDBRANCH  13  14
ENDBRANCH  12  13
ENDBRANCH   1  12
BRANCH   4  20
ATOM     20  C   UNL     1       1.635   8.045  19.209  0.00  0.00    +0.000 C 
BRANCH  20  21
ATOM     21  C   UNL     1       1.203   8.502  20.596  0.00  0.00    +0.000 C 
BRANCH  21  22
ATOM     22  N   UNL     1      -0.197   8.648  20.939  0.00  0.00    +0.000 NA
ATOM     23  C   UNL     1      -0.504   8.903  22.380  0.00  0.00    +0.000 C 
ATOM     24  C   UNL     1      -0.078  10.282  22.953  0.00  0.00    +0.000 C 
ATOM     25  N   UNL     1      -0.628  11.340  22.088  0.00  0.00    +0.000 N 
ATOM     26  C   UNL     1      -0.199  11.214  20.689  0.00  0.00    +0.000 C 
ATOM     27  C   UNL     1      -0.677   9.820  20.147  0.00  0.00    +0.000 C 
BRANCH  25  28
ATOM     28  C   UNL     1      -1.041  12.563  22.599  0.00  0.00    +0.000 A 
ATOM     29  C   UNL     1      -0.228  13.709  22.421  0.00  0.00    +0.000 A 
ATOM     30  C   UNL     1      -0.571  14.968  22.933  0.00  0.00    +0.000 A 
ATOM     31  C   UNL     1      -1.754  15.129  23.636  0.00  0.00    +0.000 A 
ATOM     32  C   UNL     1      -2.581  14.032  23.824  0.00  0.00    +0.000 A 
ATOM     33  C   UNL     1      -2.237  12.762  23.339  0.00  0.00    +0.000 A 
BRANCH  33  34
ATOM     34  O   UNL     1      -3.208  11.858  23.693  0.00  0.00    +0.000 OA
ATOM     35  C   UNL     1      -4.275  12.325  24.490  0.00  0.00    +0.000 C 
ENDBRANCH  33  34
ENDBRANCH  25  28
ENDBRANCH  21  22
ENDBRANCH  20  21
ENDBRANCH   4  20
TORSDOF 12
ENDMDL
MODEL 4
REMARK VINA RESULT:      -6.9      1.681      2.286
REMARK  Name = 
REMARK  14 active torsions:
REMARK  status: ('A' for Active; 'I' for Inactive)
REMARK    1  A    between atoms: C_1  and  C_2
REMARK    2  A    between atoms: C_2  and  C_3
REMARK    3  A    between atoms: C_3  and  C_4
REMARK    4  A    between atoms: C_4  and  C_5
REMARK    5  A    between atoms: C_5  and  C_6
REMARK    6  A    between atoms: C_6  and  C_7
REMARK    7  A    between atoms: C_7  and  C_8
REMARK    8  A    between atoms: C_8  and  N_9
REMARK    9  A    between atoms: N_12  and  C_13
REMARK   10  A    between atoms: C_13  and  C_14
REMARK   11  A    between atoms: C_14  and  N_15
REMARK   12  A    between atoms: N_18  and  C_19
REMARK   13  A    between atoms: C_24  and  O_25
REMARK   14  A    between atoms: O_25  and  C_26
REMARK                            x       y       z     vdW  Elec       q    Type
REMARK                         _______ _______ _______ _____ _____    ______ ____
ROOT
ATOM      1  N   UNL     1       3.400   6.559  18.027  0.00  0.00    +0.000 N 
ATOM      2  C   UNL     1       2.742   7.802  18.055  0.00  0.00    +0.000 A 
ATOM      3  O   UNL     1       2.690   8.520  17.046  0.00  0.00    +0.000 OA
ATOM      4  N   UNL     1       2.149   8.190  19.246  0.00  0.00    +0.000 N 
ATOM      5  C   UNL     1       1.790   7.333  20.306  0.00  0.00    +0.000 A 
ATOM      6  O   UNL     1       1.126   7.642  21.273  0.00  0.00    +0.000 OA
ATOM      7  C   UNL     1       2.223   5.978  20.094  0.00  0.00    +0.000 A 
ATOM      8  C   UNL     1       1.894   4.907  20.908  0.00  0.00    +0.000 A 
ATOM      9  S   UNL     1       2.526   3.444  20.299  0.00  0.00    +0.000 S 
ATOM     10  C   UNL     1       3.287   4.258  18.989  0.00  0.00    +0.000 A 
ATOM     11  C   UNL     1       3.024   5.609  18.984  0.00  0.00    +0.000 A 
ENDROOT
BRANCH   1  12
ATOM     12  C   UNL     1       4.225   6.238  16.856  0.00  0.00    +0.000 C 
BRANCH  12  13
ATOM     13  C   UNL     1       5.738   6.112  17.144  0.00  0.00    +0.000 C 
BRANCH  13  14
ATOM     14  C   UNL     1       6.421   4.986  16.366  0.00  0.00    +0.000 C 
BRANCH  14  15
ATOM     15  C   UNL     1       6.248   5.177  14.862  0.00  0.00    +0.000 C 
BRANCH  15  16
ATOM     16  C   UNL     1       5.881   3.875  14.168  0.00  0.00    +0.000 C 
BRANCH  16  17
ATOM     17  C   UNL     1       6.554   3.798  12.801  0.00  0.00    +0.000 C 
BRANCH  17  19
ATOM     18  C   UNL     1       4.377   3.340  11.638  0.00  0.00    +0.000 C 
ATOM     19  C   UNL     1       5.791   2.849  11.886  0.00  0.00    +0.000 C 
ENDBRANCH  17  19
ENDBRANCH  16  17
ENDBRANCH  15  16
ENDBRANCH  14  15
ENDBRANCH  13  14
ENDBRANCH  12  13
ENDBRANCH   1  12
BRANCH   4  20
ATOM     20  C   UNL     1       1.655   9.552  19.358  0.00  0.00    +0.000 C 
BRANCH  20  21
ATOM     21  C   UNL     1       0.283   9.791  18.744  0.00  0.00    +0.000 C 
BRANCH  21  22
ATOM     22  N   UNL     1      -0.826  10.276  19.540  0.00  0.00    +0.000 NA
ATOM     23  C   UNL     1      -0.473  11.085  20.747  0.00  0.00    +0.000 C 
ATOM     24  C   UNL     1       0.138  12.490  20.493  0.00  0.00    +0.000 C 
ATOM     25  N   UNL     1      -0.753  13.233  19.586  0.00  0.00    +0.000 N 
ATOM     26  C   UNL     1      -0.981  12.538  18.313  0.00  0.00    +0.000 C 
ATOM     27  C   UNL     1      -1.625  11.139  18.619  0.00  0.00    +0.000 C 
BRANCH  25  28
ATOM     28  C   UNL     1      -0.920  14.608  19.688  0.00  0.00    +0.000 A 
ATOM     29  C   UNL     1      -0.307  15.461  18.739  0.00  0.00    +0.000 A 
ATOM     30  C   UNL     1      -0.411  16.858  18.796  0.00  0.00    +0.000 A 
ATOM     31  C   UNL     1      -1.150  17.454  19.805  0.00  0.00    +0.000 A 
ATOM     32  C   UNL     1      -1.773  16.652  20.748  0.00  0.00    +0.000 A 
ATOM     33  C   UNL     1      -1.654  15.254  20.717  0.00  0.00    +0.000 A 
BRANCH  33  34
ATOM     34  O   UNL     1      -2.336  14.713  21.780  0.00  0.00    +0.000 OA
ATOM     35  C   UNL     1      -3.742  14.824  21.778  0.00  0.00    +0.000 C 
ENDBRANCH  33  34
ENDBRANCH  25  28
ENDBRANCH  21  22
ENDBRANCH  20  21
ENDBRANCH   4  20
TORSDOF 12
ENDMDL
MODEL 5
REMARK VINA RESULT:      -6.8      2.565      3.993
REMARK  Name = 
REMARK  14 active torsions:
REMARK  status: ('A' for Active; 'I' for Inactive)
REMARK    1  A    between atoms: C_1  and  C_2
REMARK    2  A    between atoms: C_2  and  C_3
REMARK    3  A    between atoms: C_3  and  C_4
REMARK    4  A    between atoms: C_4  and  C_5
REMARK    5  A    between atoms: C_5  and  C_6
REMARK    6  A    between atoms: C_6  and  C_7
REMARK    7  A    between atoms: C_7  and  C_8
REMARK    8  A    between atoms: C_8  and  N_9
REMARK    9  A    between atoms: N_12  and  C_13
REMARK   10  A    between atoms: C_13  and  C_14
REMARK   11  A    between atoms: C_14  and  N_15
REMARK   12  A    between atoms: N_18  and  C_19
REMARK   13  A    between atoms: C_24  and  O_25
REMARK   14  A    between atoms: O_25  and  C_26
REMARK                            x       y       z     vdW  Elec       q    Type
REMARK                         _______ _______ _______ _____ _____    ______ ____
ROOT
ATOM      1  N   UNL     1       4.695   5.864  18.222  0.00  0.00    +0.000 N 
ATOM      2  C   UNL     1       3.690   6.820  17.990  0.00  0.00    +0.000 A 
ATOM      3  O   UNL     1       3.737   7.569  17.003  0.00  0.00    +0.000 OA
ATOM      4  N   UNL     1       2.645   6.888  18.896  0.00  0.00    +0.000 N 
ATOM      5  C   UNL     1       2.264   5.870  19.794  0.00  0.00    +0.000 A 
ATOM      6  O   UNL     1       1.256   5.861  20.469  0.00  0.00    +0.000 OA
ATOM      7  C   UNL     1       3.169   4.753  19.781  0.00  0.00    +0.000 A 
ATOM      8  C   UNL     1       2.968   3.565  20.465  0.00  0.00    +0.000 A 
ATOM      9  S   UNL     1       4.216   2.445  20.148  0.00  0.00    +0.000 S 
ATOM     10  C   UNL     1       5.047   3.574  19.153  0.00  0.00    +0.000 A 
ATOM     11  C   UNL     1       4.365   4.763  19.020  0.00  0.00    +0.000 A 
ENDROOT
BRANCH   1  12
ATOM     12  C   UNL     1       5.918   5.932  17.411  0.00  0.00    +0.000 C 
BRANCH  12  13
ATOM     13  C   UNL     1       7.156   6.487  18.150  0.00  0.00    +0.000 C 
BRANCH  13  14
ATOM     14  C   UNL     1       7.937   7.528  17.347  0.00  0.00    +0.000 C 
BRANCH  14  15
ATOM     15  C   UNL     1       7.628   8.941  17.834  0.00  0.00    +0.000 C 
BRANCH  15  16
ATOM     16  C   UNL     1       8.817   9.564  18.546  0.00  0.00    +0.000 C 
BRANCH  16  17
ATOM     17  C   UNL     1       8.997  11.014  18.104  0.00  0.00    +0.000 C 
BRANCH  17  19
ATOM     18  C   UNL     1      10.676  12.767  17.466  0.00  0.00    +0.000 C 
ATOM     19  C   UNL     1      10.473  11.328  17.903  0.00  0.00    +0.000 C 
ENDBRANCH  17  19
ENDBRANCH  16  17
ENDBRANCH  15  16
ENDBRANCH  14  15
ENDBRANCH  13  14
ENDBRANCH  12  13
ENDBRANCH   1  12
BRANCH   4  20
ATOM     20  C   UNL     1       1.716   8.002  18.795  0.00  0.00    +0.000 C 
BRANCH  20  21
ATOM     21  C   UNL     1       1.584   8.844  20.057  0.00  0.00    +0.000 C 
BRANCH  21  22
ATOM     22  N   UNL     1       0.390   9.620  20.323  0.00  0.00    +0.000 NA
ATOM     23  C   UNL     1       0.525  10.728  21.319  0.00  0.00    +0.000 C 
ATOM     24  C   UNL     1       1.390  11.946  20.897  0.00  0.00    +0.000 C 
ATOM     25  N   UNL     1       0.899  12.443  19.600  0.00  0.00    +0.000 N 
ATOM     26  C   UNL     1       0.918  11.417  18.550  0.00  0.00    +0.000 C 
ATOM     27  C   UNL     1       0.010  10.221  19.009  0.00  0.00    +0.000 C 
BRANCH  25  28
ATOM     28  C   UNL     1       0.924  13.794  19.277  0.00  0.00    +0.000 A 
ATOM     29  C   UNL     1      -0.293  14.489  19.074  0.00  0.00    +0.000 A 
ATOM     30  C   UNL     1      -0.342  15.844  18.721  0.00  0.00    +0.000 A 
ATOM     31  C   UNL     1       0.833  16.561  18.569  0.00  0.00    +0.000 A 
ATOM     32  C   UNL     1       2.046  15.918  18.767  0.00  0.00    +0.000 A 
ATOM     33  C   UNL     1       2.108  14.555  19.096  0.00  0.00    +0.000 A 
BRANCH  33  34
ATOM     34  O   UNL     1       3.423  14.169  19.199  0.00  0.00    +0.000 OA
ATOM     35  C   UNL     1       4.330  14.683  18.248  0.00  0.00    +0.000 C 
ENDBRANCH  33  34
ENDBRANCH  25  28
ENDBRANCH  21  22
ENDBRANCH  20  21
ENDBRANCH   4  20
TORSDOF 12
ENDMDL
MODEL 6
REMARK VINA RESULT:      -6.7      4.167      9.951
REMARK  Name = 
REMARK  14 active torsions:
REMARK  status: ('A' for Active; 'I' for Inactive)
REMARK    1  A    between atoms: C_1  and  C_2
REMARK    2  A    between atoms: C_2  and  C_3
REMARK    3  A    between atoms: C_3  and  C_4
REMARK    4  A    between atoms: C_4  and  C_5
REMARK    5  A    between atoms: C_5  and  C_6
REMARK    6  A    between atoms: C_6  and  C_7
REMARK    7  A    between atoms: C_7  and  C_8
REMARK    8  A    between atoms: C_8  and  N_9
REMARK    9  A    between atoms: N_12  and  C_13
REMARK   10  A    between atoms: C_13  and  C_14
REMARK   11  A    between atoms: C_14  and  N_15
REMARK   12  A    between atoms: N_18  and  C_19
REMARK   13  A    between atoms: C_24  and  O_25
REMARK   14  A    between atoms: O_25  and  C_26
REMARK                            x       y       z     vdW  Elec       q    Type
REMARK                         _______ _______ _______ _____ _____    ______ ____
ROOT
ATOM      1  N   UNL     1      -3.724  12.730  20.664  0.00  0.00    +0.000 N 
ATOM      2  C   UNL     1      -2.368  12.922  20.346  0.00  0.00    +0.000 A 
ATOM      3  O   UNL     1      -2.026  13.323  19.225  0.00  0.00    +0.000 OA
ATOM      4  N   UNL     1      -1.431  12.656  21.332  0.00  0.00    +0.000 N 
ATOM      5  C   UNL     1      -1.687  12.594  22.717  0.00  0.00    +0.000 A 
ATOM      6  O   UNL     1      -0.847  12.527  23.590  0.00  0.00    +0.000 OA
ATOM      7  C   UNL     1      -3.086  12.710  23.028  0.00  0.00    +0.000 A 
ATOM      8  C   UNL     1      -3.606  12.810  24.309  0.00  0.00    +0.000 A 
ATOM      9  S   UNL     1      -5.300  13.008  24.279  0.00  0.00    +0.000 S 
ATOM     10  C   UNL     1      -5.336  12.894  22.565  0.00  0.00    +0.000 A 
ATOM     11  C   UNL     1      -4.079  12.760  22.018  0.00  0.00    +0.000 A 
ENDROOT
BRANCH   1  12
ATOM     12  C   UNL     1      -4.706  12.781  19.574  0.00  0.00    +0.000 C 
BRANCH  12  13
ATOM     13  C   UNL     1      -5.605  11.530  19.452  0.00  0.00    +0.000 C 
BRANCH  13  14
ATOM     14  C   UNL     1      -6.093  11.260  18.027  0.00  0.00    +0.000 C 
BRANCH  14  15
ATOM     15  C   UNL     1      -5.372  12.154  17.023  0.00  0.00    +0.000 C 
BRANCH  15  16
ATOM     16  C   UNL     1      -4.468  11.352  16.101  0.00  0.00    +0.000 C 
BRANCH  16  17
ATOM     17  C   UNL     1      -3.558  10.440  16.920  0.00  0.00    +0.000 C 
BRANCH  17  19
ATOM     18  C   UNL     1      -2.864   9.886  14.571  0.00  0.00    +0.000 C 
ATOM     19  C   UNL     1      -2.468   9.846  16.036  0.00  0.00    +0.000 C 
ENDBRANCH  17  19
ENDBRANCH  16  17
ENDBRANCH  15  16
ENDBRANCH  14  15
ENDBRANCH  13  14
ENDBRANCH  12  13
ENDBRANCH   1  12
BRANCH   4  20
ATOM     20  C   UNL     1      -0.026  12.642  20.962  0.00  0.00    +0.000 C 
BRANCH  20  21
ATOM     21  C   UNL     1       0.586  11.255  20.817  0.00  0.00    +0.000 C 
BRANCH  21  22
ATOM     22  N   UNL     1      -0.134  10.176  20.172  0.00  0.00    +0.000 NA
ATOM     23  C   UNL     1       0.216   9.906  18.743  0.00  0.00    +0.000 C 
ATOM     24  C   UNL     1       1.625   9.314  18.468  0.00  0.00    +0.000 C 
ATOM     25  N   UNL     1       1.802   8.114  19.304  0.00  0.00    +0.000 N 
ATOM     26  C   UNL     1       1.634   8.386  20.738  0.00  0.00    +0.000 C 
ATOM     27  C   UNL     1       0.188   8.955  20.969  0.00  0.00    +0.000 C 
BRANCH  25  28
ATOM     28  C   UNL     1       2.537   7.019  18.868  0.00  0.00    +0.000 A 
ATOM     29  C   UNL     1       3.450   7.170  17.797  0.00  0.00    +0.000 A 
ATOM     30  C   UNL     1       4.204   6.103  17.289  0.00  0.00    +0.000 A 
ATOM     31  C   UNL     1       4.080   4.842  17.847  0.00  0.00    +0.000 A 
ATOM     32  C   UNL     1       3.202   4.656  18.904  0.00  0.00    +0.000 A 
ATOM     33  C   UNL     1       2.422   5.710  19.404  0.00  0.00    +0.000 A 
BRANCH  33  34
ATOM     34  O   UNL     1       1.621   5.245  20.418  0.00  0.00    +0.000 OA
ATOM     35  C   UNL     1       1.674   3.866  20.712  0.00  0.00    +0.000 C 
ENDBRANCH  33  34
ENDBRANCH  25  28
ENDBRANCH  21  22
ENDBRANCH  20  21
ENDBRANCH   4  20
TORSDOF 12
ENDMDL
MODEL 7
REMARK VINA RESULT:      -6.7      1.172      1.405
REMARK  Name = 
REMARK  14 active torsions:
REMARK  status: ('A' for Active; 'I' for Inactive)
REMARK    1  A    between atoms: C_1  and  C_2
REMARK    2  A    between atoms: C_2  and  C_3
REMARK    3  A    between atoms: C_3  and  C_4
REMARK    4  A    between atoms: C_4  and  C_5
REMARK    5  A    between atoms: C_5  and  C_6
REMARK    6  A    between atoms: C_6  and  C_7
REMARK    7  A    between atoms: C_7  and  C_8
REMARK    8  A    between atoms: C_8  and  N_9
REMARK    9  A    between atoms: N_12  and  C_13
REMARK   10  A    between atoms: C_13  and  C_14
REMARK   11  A    between atoms: C_14  and  N_15
REMARK   12  A    between atoms: N_18  and  C_19
REMARK   13  A    between atoms: C_24  and  O_25
REMARK   14  A    between atoms: O_25  and  C_26
REMARK                            x       y       z     vdW  Elec       q    Type
REMARK                         _______ _______ _______ _____ _____    ______ ____
ROOT
ATOM      1  N   UNL     1       3.459   6.295  18.074  0.00  0.00    +0.000 N 
ATOM      2  C   UNL     1       2.854   7.564  18.051  0.00  0.00    +0.000 A 
ATOM      3  O   UNL     1       2.861   8.257  17.024  0.00  0.00    +0.000 OA
ATOM      4  N   UNL     1       2.241   8.006  19.213  0.00  0.00    +0.000 N 
ATOM      5  C   UNL     1       1.814   7.192  20.282  0.00  0.00    +0.000 A 
ATOM      6  O   UNL     1       1.134   7.552  21.219  0.00  0.00    +0.000 OA
ATOM      7  C   UNL     1       2.197   5.816  20.116  0.00  0.00    +0.000 A 
ATOM      8  C   UNL     1       1.799   4.780  20.946  0.00  0.00    +0.000 A 
ATOM      9  S   UNL     1       2.389   3.277  20.392  0.00  0.00    +0.000 S 
ATOM     10  C   UNL     1       3.221   4.026  19.088  0.00  0.00    +0.000 A 
ATOM     11  C   UNL     1       3.015   5.386  19.041  0.00  0.00    +0.000 A 
ENDROOT
BRANCH   1  12
ATOM     12  C   UNL     1       4.306   5.911  16.937  0.00  0.00    +0.000 C 
BRANCH  12  13
ATOM     13  C   UNL     1       5.822   5.890  17.236  0.00  0.00    +0.000 C 
BRANCH  13  14
ATOM     14  C   UNL     1       6.507   4.579  16.847  0.00  0.00    +0.000 C 
BRANCH  14  15
ATOM     15  C   UNL     1       6.002   4.076  15.498  0.00  0.00    +0.000 C 
BRANCH  15  16
ATOM     16  C   UNL     1       6.865   4.577  14.351  0.00  0.00    +0.000 C 
BRANCH  16  17
ATOM     17  C   UNL     1       6.510   3.839  13.063  0.00  0.00    +0.000 C 
BRANCH  17  19
ATOM     18  C   UNL     1       4.625   3.095  11.582  0.00  0.00    +0.000 C 
ATOM     19  C   UNL     1       5.003   3.849  12.844  0.00  0.00    +0.000 C 
ENDBRANCH  17  19
ENDBRANCH  16  17
ENDBRANCH  15  16
ENDBRANCH  14  15
ENDBRANCH  13  14
ENDBRANCH  12  13
ENDBRANCH   1  12
BRANCH   4  20
ATOM     20  C   UNL     1       1.801   9.390  19.276  0.00  0.00    +0.000 C 
BRANCH  20  21
ATOM     21  C   UNL     1       0.360   9.627  18.844  0.00  0.00    +0.000 C 
BRANCH  21  22
ATOM     22  N   UNL     1      -0.632  10.132  19.771  0.00  0.00    +0.000 NA
ATOM     23  C   UNL     1      -0.122  10.985  20.890  0.00  0.00    +0.000 C 
ATOM     24  C   UNL     1       0.433  12.383  20.507  0.00  0.00    +0.000 C 
ATOM     25  N   UNL     1      -0.584  13.090  19.709  0.00  0.00    +0.000 N 
ATOM     26  C   UNL     1      -0.980  12.350  18.503  0.00  0.00    +0.000 C 
ATOM     27  C   UNL     1      -1.560  10.959  18.942  0.00  0.00    +0.000 C 
BRANCH  25  28
ATOM     28  C   UNL     1      -0.750  14.466  19.787  0.00  0.00    +0.000 A 
ATOM     29  C   UNL     1      -1.892  15.000  20.432  0.00  0.00    +0.000 A 
ATOM     30  C   UNL     1      -2.136  16.377  20.525  0.00  0.00    +0.000 A 
ATOM     31  C   UNL     1      -1.233  17.276  19.983  0.00  0.00    +0.000 A 
ATOM     32  C   UNL     1      -0.097  16.792  19.351  0.00  0.00    +0.000 A 
ATOM     33  C   UNL     1       0.145  15.416  19.228  0.00  0.00    +0.000 A 
BRANCH  33  34
ATOM     34  O   UNL     1       1.313  15.217  18.533  0.00  0.00    +0.000 OA
ATOM     35  C   UNL     1       2.526  15.375  19.236  0.00  0.00    +0.000 C 
ENDBRANCH  33  34
ENDBRANCH  25  28
ENDBRANCH  21  22
ENDBRANCH  20  21
ENDBRANCH   4  20
TORSDOF 12
ENDMDL
MODEL 8
REMARK VINA RESULT:      -6.7      3.368     10.052
REMARK  Name = 
REMARK  14 active torsions:
REMARK  status: ('A' for Active; 'I' for Inactive)
REMARK    1  A    between atoms: C_1  and  C_2
REMARK    2  A    between atoms: C_2  and  C_3
REMARK    3  A    between atoms: C_3  and  C_4
REMARK    4  A    between atoms: C_4  and  C_5
REMARK    5  A    between atoms: C_5  and  C_6
REMARK    6  A    between atoms: C_6  and  C_7
REMARK    7  A    between atoms: C_7  and  C_8
REMARK    8  A    between atoms: C_8  and  N_9
REMARK    9  A    between atoms: N_12  and  C_13
REMARK   10  A    between atoms: C_13  and  C_14
REMARK   11  A    between atoms: C_14  and  N_15
REMARK   12  A    between atoms: N_18  and  C_19
REMARK   13  A    between atoms: C_24  and  O_25
REMARK   14  A    between atoms: O_25  and  C_26
REMARK                            x       y       z     vdW  Elec       q    Type
REMARK                         _______ _______ _______ _____ _____    ______ ____
ROOT
ATOM      1  N   UNL     1      -0.424  10.316  19.143  0.00  0.00    +0.000 N 
ATOM      2  C   UNL     1       0.732   9.591  18.803  0.00  0.00    +0.000 A 
ATOM      3  O   UNL     1       1.233   9.681  17.674  0.00  0.00    +0.000 OA
ATOM      4  N   UNL     1       1.294   8.782  19.778  0.00  0.00    +0.000 N 
ATOM      5  C   UNL     1       1.081   8.895  21.167  0.00  0.00    +0.000 A 
ATOM      6  O   UNL     1       1.694   8.301  22.029  0.00  0.00    +0.000 OA
ATOM      7  C   UNL     1       0.090   9.883  21.497  0.00  0.00    +0.000 A 
ATOM      8  C   UNL     1      -0.222  10.292  22.784  0.00  0.00    +0.000 A 
ATOM      9  S   UNL     1      -1.391  11.534  22.777  0.00  0.00    +0.000 S 
ATOM     10  C   UNL     1      -1.521  11.475  21.064  0.00  0.00    +0.000 A 
ATOM     11  C   UNL     1      -0.654  10.565  20.501  0.00  0.00    +0.000 A 
ENDROOT
BRANCH   1  12
ATOM     12  C   UNL     1      -1.161  10.990  18.066  0.00  0.00    +0.000 C 
BRANCH  12  13
ATOM     13  C   UNL     1      -2.382  10.211  17.529  0.00  0.00    +0.000 C 
BRANCH  13  14
ATOM     14  C   UNL     1      -3.056  10.875  16.327  0.00  0.00    +0.000 C 
BRANCH  14  15
ATOM     15  C   UNL     1      -4.446  11.386  16.691  0.00  0.00    +0.000 C 
BRANCH  15  16
ATOM     16  C   UNL     1      -4.849  10.969  18.096  0.00  0.00    +0.000 C 
BRANCH  16  17
ATOM     17  C   UNL     1      -6.370  10.925  18.217  0.00  0.00    +0.000 C 
BRANCH  17  19
ATOM     18  C   UNL     1      -7.649  13.004  18.803  0.00  0.00    +0.000 C 
ATOM     19  C   UNL     1      -6.981  12.217  17.690  0.00  0.00    +0.000 C 
ENDBRANCH  17  19
ENDBRANCH  16  17
ENDBRANCH  15  16
ENDBRANCH  14  15
ENDBRANCH  13  14
ENDBRANCH  12  13
ENDBRANCH   1  12
BRANCH   4  20
ATOM     20  C   UNL     1       2.353   7.867  19.388  0.00  0.00    +0.000 C 
BRANCH  20  21
ATOM     21  C   UNL     1       2.004   6.390  19.508  0.00  0.00    +0.000 C 
BRANCH  21  22
ATOM     22  N   UNL     1       3.033   5.381  19.649  0.00  0.00    +0.000 NA
ATOM     23  C   UNL     1       2.914   4.181  18.763  0.00  0.00    +0.000 C 
ATOM     24  C   UNL     1       3.149   4.407  17.245  0.00  0.00    +0.000 C 
ATOM     25  N   UNL     1       4.445   5.084  17.066  0.00  0.00    +0.000 N 
ATOM     26  C   UNL     1       4.529   6.359  17.790  0.00  0.00    +0.000 C 
ATOM     27  C   UNL     1       4.314   6.076  19.319  0.00  0.00    +0.000 C 
BRANCH  25  28
ATOM     28  C   UNL     1       5.256   4.834  15.967  0.00  0.00    +0.000 A 
ATOM     29  C   UNL     1       4.689   4.300  14.784  0.00  0.00    +0.000 A 
ATOM     30  C   UNL     1       5.451   3.999  13.647  0.00  0.00    +0.000 A 
ATOM     31  C   UNL     1       6.816   4.235  13.649  0.00  0.00    +0.000 A 
ATOM     32  C   UNL     1       7.407   4.765  14.786  0.00  0.00    +0.000 A 
ATOM     33  C   UNL     1       6.659   5.046  15.939  0.00  0.00    +0.000 A 
BRANCH  33  34
ATOM     34  O   UNL     1       7.493   5.525  16.920  0.00  0.00    +0.000 OA
ATOM     35  C   UNL     1       7.768   4.678  18.014  0.00  0.00    +0.000 C 
ENDBRANCH  33  34
ENDBRANCH  25  28
ENDBRANCH  21  22
ENDBRANCH  20  21
ENDBRANCH   4  20
TORSDOF 12
ENDMDL
MODEL 9
REMARK VINA RESULT:      -6.7      2.513      3.440
REMARK  Name = 
REMARK  14 active torsions:
REMARK  status: ('A' for Active; 'I' for Inactive)
REMARK    1  A    between atoms: C_1  and  C_2
REMARK    2  A    between atoms: C_2  and  C_3
REMARK    3  A    between atoms: C_3  and  C_4
REMARK    4  A    between atoms: C_4  and  C_5
REMARK    5  A    between atoms: C_5  and  C_6
REMARK    6  A    between atoms: C_6  and  C_7
REMARK    7  A    between atoms: C_7  and  C_8
REMARK    8  A    between atoms: C_8  and  N_9
REMARK    9  A    between atoms: N_12  and  C_13
REMARK   10  A    between atoms: C_13  and  C_14
REMARK   11  A    between atoms: C_14  and  N_15
REMARK   12  A    between atoms: N_18  and  C_19
REMARK   13  A    between atoms: C_24  and  O_25
REMARK   14  A    between atoms: O_25  and  C_26
REMARK                            x       y       z     vdW  Elec       q    Type
REMARK                         _______ _______ _______ _____ _____    ______ ____
ROOT
ATOM      1  N   UNL     1       3.581   6.041  17.653  0.00  0.00    +0.000 N 
ATOM      2  C   UNL     1       3.111   7.197  18.302  0.00  0.00    +0.000 A 
ATOM      3  O   UNL     1       3.249   8.317  17.790  0.00  0.00    +0.000 OA
ATOM      4  N   UNL     1       2.481   7.037  19.525  0.00  0.00    +0.000 N 
ATOM      5  C   UNL     1       1.912   5.842  20.010  0.00  0.00    +0.000 A 
ATOM      6  O   UNL     1       1.219   5.738  21.001  0.00  0.00    +0.000 OA
ATOM      7  C   UNL     1       2.160   4.720  19.147  0.00  0.00    +0.000 A 
ATOM      8  C   UNL     1       1.611   3.459  19.312  0.00  0.00    +0.000 A 
ATOM      9  S   UNL     1       2.075   2.408  18.050  0.00  0.00    +0.000 S 
ATOM     10  C   UNL     1       3.054   3.622  17.328  0.00  0.00    +0.000 A 
ATOM     11  C   UNL     1       2.991   4.821  18.002  0.00  0.00    +0.000 A 
ENDROOT
BRANCH   1  12
ATOM     12  C   UNL     1       4.448   6.209  16.480  0.00  0.00    +0.000 C 
BRANCH  12  13
ATOM     13  C   UNL     1       5.720   5.330  16.483  0.00  0.00    +0.000 C 
BRANCH  13  14
ATOM     14  C   UNL     1       5.740   4.274  15.377  0.00  0.00    +0.000 C 
BRANCH  14  15
ATOM     15  C   UNL     1       6.756   4.632  14.296  0.00  0.00    +0.000 C 
BRANCH  15  16
ATOM     16  C   UNL     1       6.550   3.810  13.035  0.00  0.00    +0.000 C 
BRANCH  16  17
ATOM     17  C   UNL     1       5.059   3.640  12.753  0.00  0.00    +0.000 C 
BRANCH  17  19
ATOM     18  C   UNL     1       5.883   1.755  11.315  0.00  0.00    +0.000 C 
ATOM     19  C   UNL     1       4.848   2.855  11.465  0.00  0.00    +0.000 C 
ENDBRANCH  17  19
ENDBRANCH  16  17
ENDBRANCH  15  16
ENDBRANCH  14  15
ENDBRANCH  13  14
ENDBRANCH  12  13
ENDBRANCH   1  12
BRANCH   4  20
ATOM     20  C   UNL     1       2.182   8.226  20.307  0.00  0.00    +0.000 C 
BRANCH  20  21
ATOM     21  C   UNL     1       0.881   8.927  19.938  0.00  0.00    +0.000 C 
BRANCH  21  22
ATOM     22  N   UNL     1       0.869  10.082  19.064  0.00  0.00    +0.000 NA
ATOM     23  C   UNL     1       0.225   9.895  17.727  0.00  0.00    +0.000 C 
ATOM     24  C   UNL     1      -1.314   9.696  17.713  0.00  0.00    +0.000 C 
ATOM     25  N   UNL     1      -1.938  10.800  18.464  0.00  0.00    +0.000 N 
ATOM     26  C   UNL     1      -1.449  10.900  19.845  0.00  0.00    +0.000 C 
ATOM     27  C   UNL     1       0.104  11.129  19.806  0.00  0.00    +0.000 C 
BRANCH  25  28
ATOM     28  C   UNL     1      -3.173  11.323  18.105  0.00  0.00    +0.000 A 
ATOM     29  C   UNL     1      -4.068  11.761  19.112  0.00  0.00    +0.000 A 
ATOM     30  C   UNL     1      -5.340  12.274  18.824  0.00  0.00    +0.000 A 
ATOM     31  C   UNL     1      -5.760  12.380  17.508  0.00  0.00    +0.000 A 
ATOM     32  C   UNL     1      -4.908  11.970  16.493  0.00  0.00    +0.000 A 
ATOM     33  C   UNL     1      -3.644  11.431  16.770  0.00  0.00    +0.000 A 
BRANCH  33  34
ATOM     34  O   UNL     1      -3.029  11.077  15.593  0.00  0.00    +0.000 OA
ATOM     35  C   UNL     1      -3.668  10.110  14.788  0.00  0.00    +0.000 C 
ENDBRANCH  33  34
ENDBRANCH  25  28
ENDBRANCH  21  22
ENDBRANCH  20  21
ENDBRANCH   4  20
TORSDOF 12
ENDMDL
