MODEL 1
REMARK VINA RESULT:      -5.4      0.000      0.000
REMARK  Name = 
REMARK  2 active torsions:
REMARK  status: ('A' for Active; 'I' for Inactive)
REMARK    1  A    between atoms: C_2  and  C_3
REMARK    2  A    between atoms: N_5  and  C_6
REMARK                            x       y       z     vdW  Elec       q    Type
REMARK                         _______ _______ _______ _____ _____    ______ ____
ROOT
ATOM      1  O   UNL     1       6.056   4.518  19.227  0.00  0.00    +0.000 OA
ATOM      2  C   UNL     1       6.085   4.299  18.015  0.00  0.00    +0.000 C 
ATOM      3  N   UNL     1       5.053   3.750  17.278  0.00  0.00    +0.000 N 
ATOM      4  H   UNL     1       5.277   3.488  16.324  0.00  0.00    +0.000 HD
ENDROOT
BRANCH   3   5
ATOM      5  C   UNL     1       3.746   3.466  17.723  0.00  0.00    +0.000 A 
ATOM      6  C   UNL     1       2.680   4.360  17.608  0.00  0.00    +0.000 A 
ATOM      7  C   UNL     1       1.406   4.008  18.058  0.00  0.00    +0.000 A 
ATOM      8  C   UNL     1       1.186   2.756  18.630  0.00  0.00    +0.000 A 
ATOM      9  C   UNL     1       2.239   1.855  18.745  0.00  0.00    +0.000 A 
ATOM     10  C   UNL     1       3.512   2.204  18.282  0.00  0.00    +0.000 A 
ENDBRANCH   3   5
BRANCH   2  11
ATOM     11  C   UNL     1       7.354   4.621  17.243  0.00  0.00    +0.000 C 
ATOM     12 CL   UNL     1       7.133   4.614  15.480  0.00  0.00    +0.000 Cl
ENDBRANCH   2  11
TORSDOF 2
ENDMDL
MODEL 2
REMARK VINA RESULT:      -5.4      0.892      1.701
REMARK  Name = 
REMARK  2 active torsions:
REMARK  status: ('A' for Active; 'I' for Inactive)
REMARK    1  A    between atoms: C_2  and  C_3
REMARK    2  A    between atoms: N_5  and  C_6
REMARK                            x       y       z     vdW  Elec       q    Type
REMARK                         _______ _______ _______ _____ _____    ______ ____
ROOT
ATOM      1  O   UNL     1       5.951   4.771  19.626  0.00  0.00    +0.000 OA
ATOM      2  C   UNL     1       6.126   4.532  18.431  0.00  0.00    +0.000 C 
ATOM      3  N   UNL     1       5.226   3.882  17.607  0.00  0.00    +0.000 N 
ATOM      4  H   UNL     1       5.571   3.621  16.689  0.00  0.00    +0.000 HD
ENDROOT
BRANCH   3   5
ATOM      5  C   UNL     1       3.908   3.494  17.923  0.00  0.00    +0.000 A 
ATOM      6  C   UNL     1       3.585   2.273  18.518  0.00  0.00    +0.000 A 
ATOM      7  C   UNL     1       2.257   1.958  18.817  0.00  0.00    +0.000 A 
ATOM      8  C   UNL     1       1.239   2.862  18.521  0.00  0.00    +0.000 A 
ATOM      9  C   UNL     1       1.550   4.084  17.935  0.00  0.00    +0.000 A 
ATOM     10  C   UNL     1       2.881   4.404  17.648  0.00  0.00    +0.000 A 
ENDBRANCH   3   5
BRANCH   2  11
ATOM     11  C   UNL     1       7.437   4.947  17.784  0.00  0.00    +0.000 C 
ATOM     12 CL   UNL     1       7.470   6.649  17.274  0.00  0.00    +0.000 Cl
ENDBRANCH   2  11
TORSDOF 2
ENDMDL
MODEL 3
REMARK VINA RESULT:      -5.3      1.166      1.166
REMARK  Name = 
REMARK  2 active torsions:
REMARK  status: ('A' for Active; 'I' for Inactive)
REMARK    1  A    between atoms: C_2  and  C_3
REMARK    2  A    between atoms: N_5  and  C_6
REMARK                            x       y       z     vdW  Elec       q    Type
REMARK                         _______ _______ _______ _____ _____    ______ ____
ROOT
ATOM      1  O   UNL     1       5.892   4.836  19.745  0.00  0.00    +0.000 OA
ATOM      2  C   UNL     1       6.100   4.607  18.553  0.00  0.00    +0.000 C 
ATOM      3  N   UNL     1       5.216   3.983  17.694  0.00  0.00    +0.000 N 
ATOM      4  H   UNL     1       5.585   3.726  16.784  0.00  0.00    +0.000 HD
ENDROOT
BRANCH   3   5
ATOM      5  C   UNL     1       3.882   3.615  17.964  0.00  0.00    +0.000 A 
ATOM      6  C   UNL     1       2.783   4.420  17.659  0.00  0.00    +0.000 A 
ATOM      7  C   UNL     1       1.486   3.987  17.942  0.00  0.00    +0.000 A 
ATOM      8  C   UNL     1       1.275   2.744  18.534  0.00  0.00    +0.000 A 
ATOM      9  C   UNL     1       2.362   1.930  18.837  0.00  0.00    +0.000 A 
ATOM     10  C   UNL     1       3.660   2.359  18.542  0.00  0.00    +0.000 A 
ENDBRANCH   3   5
BRANCH   2  11
ATOM     11  C   UNL     1       7.439   5.006  17.953  0.00  0.00    +0.000 C 
ATOM     12 CL   UNL     1       7.913   6.678  18.324  0.00  0.00    +0.000 Cl
ENDBRANCH   2  11
TORSDOF 2
ENDMDL
MODEL 4
REMARK VINA RESULT:      -5.3      1.920      2.510
REMARK  Name = 
REMARK  2 active torsions:
REMARK  status: ('A' for Active; 'I' for Inactive)
REMARK    1  A    between atoms: C_2  and  C_3
REMARK    2  A    between atoms: N_5  and  C_6
REMARK                            x       y       z     vdW  Elec       q    Type
REMARK                         _______ _______ _______ _____ _____    ______ ____
ROOT
ATOM      1  O   UNL     1       6.502   5.066  19.782  0.00  0.00    +0.000 OA
ATOM      2  C   UNL     1       6.642   5.709  18.741  0.00  0.00    +0.000 C 
ATOM      3  N   UNL     1       5.742   5.737  17.693  0.00  0.00    +0.000 N 
ATOM      4  H   UNL     1       6.063   6.187  16.842  0.00  0.00    +0.000 HD
ENDROOT
BRANCH   3   5
ATOM      5  C   UNL     1       4.455   5.161  17.659  0.00  0.00    +0.000 A 
ATOM      6  C   UNL     1       4.203   3.863  17.212  0.00  0.00    +0.000 A 
ATOM      7  C   UNL     1       2.904   3.350  17.218  0.00  0.00    +0.000 A 
ATOM      8  C   UNL     1       1.843   4.133  17.670  0.00  0.00    +0.000 A 
ATOM      9  C   UNL     1       2.084   5.426  18.124  0.00  0.00    +0.000 A 
ATOM     10  C   UNL     1       3.387   5.934  18.129  0.00  0.00    +0.000 A 
ENDBRANCH   3   5
BRANCH   2  11
ATOM     11  C   UNL     1       7.908   6.528  18.551  0.00  0.00    +0.000 C 
ATOM     12 CL   UNL     1       7.683   7.952  17.511  0.00  0.00    +0.000 Cl
ENDBRANCH   2  11
TORSDOF 2
ENDMDL
MODEL 5
REMARK VINA RESULT:      -5.3      1.970      2.231
REMARK  Name = 
REMARK  2 active torsions:
REMARK  status: ('A' for Active; 'I' for Inactive)
REMARK    1  A    between atoms: C_2  and  C_3
REMARK    2  A    between atoms: N_5  and  C_6
REMARK                            x       y       z     vdW  Elec       q    Type
REMARK                         _______ _______ _______ _____ _____    ______ ____
ROOT
ATOM      1  O   UNL     1       5.850   4.060  19.165  0.00  0.00    +0.000 OA
ATOM      2  C   UNL     1       5.424   5.054  18.577  0.00  0.00    +0.000 C 
ATOM      3  N   UNL     1       4.090   5.336  18.350  0.00  0.00    +0.000 N 
ATOM      4  H   UNL     1       3.899   6.109  17.720  0.00  0.00    +0.000 HD
ENDROOT
BRANCH   3   5
ATOM      5  C   UNL     1       2.974   4.636  18.850  0.00  0.00    +0.000 A 
ATOM      6  C   UNL     1       2.283   3.665  18.123  0.00  0.00    +0.000 A 
ATOM      7  C   UNL     1       1.191   2.999  18.686  0.00  0.00    +0.000 A 
ATOM      8  C   UNL     1       0.780   3.299  19.983  0.00  0.00    +0.000 A 
ATOM      9  C   UNL     1       1.465   4.260  20.719  0.00  0.00    +0.000 A 
ATOM     10  C   UNL     1       2.565   4.918  20.160  0.00  0.00    +0.000 A 
ENDBRANCH   3   5
BRANCH   2  11
ATOM     11  C   UNL     1       6.419   6.058  18.018  0.00  0.00    +0.000 C 
ATOM     12 CL   UNL     1       7.926   6.160  18.953  0.00  0.00    +0.000 Cl
ENDBRANCH   2  11
TORSDOF 2
ENDMDL
MODEL 6
REMARK VINA RESULT:      -5.2      4.361      5.372
REMARK  Name = 
REMARK  2 active torsions:
REMARK  status: ('A' for Active; 'I' for Inactive)
REMARK    1  A    between atoms: C_2  and  C_3
REMARK    2  A    between atoms: N_5  and  C_6
REMARK                            x       y       z     vdW  Elec       q    Type
REMARK                         _______ _______ _______ _____ _____    ______ ____
ROOT
ATOM      1  O   UNL     1       7.965   4.174  17.077  0.00  0.00    +0.000 OA
ATOM      2  C   UNL     1       7.509   5.306  16.906  0.00  0.00    +0.000 C 
ATOM      3  N   UNL     1       7.037   5.802  15.706  0.00  0.00    +0.000 N 
ATOM      4  H   UNL     1       6.837   6.797  15.683  0.00  0.00    +0.000 HD
ENDROOT
BRANCH   3   5
ATOM      5  C   UNL     1       6.857   5.092  14.501  0.00  0.00    +0.000 A 
ATOM      6  C   UNL     1       7.715   5.201  13.406  0.00  0.00    +0.000 A 
ATOM      7  C   UNL     1       7.485   4.457  12.247  0.00  0.00    +0.000 A 
ATOM      8  C   UNL     1       6.391   3.597  12.171  0.00  0.00    +0.000 A 
ATOM      9  C   UNL     1       5.532   3.476  13.259  0.00  0.00    +0.000 A 
ATOM     10  C   UNL     1       5.771   4.212  14.424  0.00  0.00    +0.000 A 
ENDBRANCH   3   5
BRANCH   2  11
ATOM     11  C   UNL     1       7.475   6.268  18.082  0.00  0.00    +0.000 C 
ATOM     12 CL   UNL     1       7.791   7.956  17.627  0.00  0.00    +0.000 Cl
ENDBRANCH   2  11
TORSDOF 2
ENDMDL
MODEL 7
REMARK VINA RESULT:      -5.2      3.497      4.933
REMARK  Name = 
REMARK  2 active torsions:
REMARK  status: ('A' for Active; 'I' for Inactive)
REMARK    1  A    between atoms: C_2  and  C_3
REMARK    2  A    between atoms: N_5  and  C_6
REMARK                            x       y       z     vdW  Elec       q    Type
REMARK                         _______ _______ _______ _____ _____    ______ ____
ROOT
ATOM      1  O   UNL     1       0.972   3.952  17.365  0.00  0.00    +0.000 OA
ATOM      2  C   UNL     1       1.727   3.477  18.214  0.00  0.00    +0.000 C 
ATOM      3  N   UNL     1       3.089   3.703  18.288  0.00  0.00    +0.000 N 
ATOM      4  H   UNL     1       3.601   3.124  18.945  0.00  0.00    +0.000 HD
ENDROOT
BRANCH   3   5
ATOM      5  C   UNL     1       3.846   4.604  17.513  0.00  0.00    +0.000 A 
ATOM      6  C   UNL     1       3.868   5.983  17.735  0.00  0.00    +0.000 A 
ATOM      7  C   UNL     1       4.652   6.818  16.937  0.00  0.00    +0.000 A 
ATOM      8  C   UNL     1       5.423   6.282  15.907  0.00  0.00    +0.000 A 
ATOM      9  C   UNL     1       5.415   4.910  15.681  0.00  0.00    +0.000 A 
ATOM     10  C   UNL     1       4.638   4.072  16.489  0.00  0.00    +0.000 A 
ENDBRANCH   3   5
BRANCH   2  11
ATOM     11  C   UNL     1       1.152   2.541  19.264  0.00  0.00    +0.000 C 
ATOM     12 CL   UNL     1       1.174   3.216  20.907  0.00  0.00    +0.000 Cl
ENDBRANCH   2  11
TORSDOF 2
ENDMDL
MODEL 8
REMARK VINA RESULT:      -5.2      1.732      1.933
REMARK  Name = 
REMARK  2 active torsions:
REMARK  status: ('A' for Active; 'I' for Inactive)
REMARK    1  A    between atoms: C_2  and  C_3
REMARK    2  A    between atoms: N_5  and  C_6
REMARK                            x       y       z     vdW  Elec       q    Type
REMARK                         _______ _______ _______ _____ _____    ______ ____
ROOT
ATOM      1  O   UNL     1       4.328   5.389  16.798  0.00  0.00    +0.000 OA
ATOM      2  C   UNL     1       4.995   4.391  17.075  0.00  0.00    +0.000 C 
ATOM      3  N   UNL     1       4.615   3.395  17.953  0.00  0.00    +0.000 N 
ATOM      4  H   UNL     1       5.331   2.718  18.197  0.00  0.00    +0.000 HD
ENDROOT
BRANCH   3   5
ATOM      5  C   UNL     1       3.365   3.250  18.588  0.00  0.00    +0.000 A 
ATOM      6  C   UNL     1       2.317   2.491  18.064  0.00  0.00    +0.000 A 
ATOM      7  C   UNL     1       1.107   2.379  18.753  0.00  0.00    +0.000 A 
ATOM      8  C   UNL     1       0.934   3.027  19.974  0.00  0.00    +0.000 A 
ATOM      9  C   UNL     1       1.973   3.781  20.510  0.00  0.00    +0.000 A 
ATOM     10  C   UNL     1       3.189   3.882  19.825  0.00  0.00    +0.000 A 
ENDBRANCH   3   5
BRANCH   2  11
ATOM     11  C   UNL     1       6.365   4.226  16.437  0.00  0.00    +0.000 C 
ATOM     12 CL   UNL     1       7.711   4.507  17.562  0.00  0.00    +0.000 Cl
ENDBRANCH   2  11
TORSDOF 2
ENDMDL
MODEL 9
REMARK VINA RESULT:      -5.2      3.431      5.027
REMARK  Name = 
REMARK  2 active torsions:
REMARK  status: ('A' for Active; 'I' for Inactive)
REMARK    1  A    between atoms: C_2  and  C_3
REMARK    2  A    between atoms: N_5  and  C_6
REMARK                            x       y       z     vdW  Elec       q    Type
REMARK                         _______ _______ _______ _____ _____    ______ ____
ROOT
ATOM      1  O   UNL     1       1.069   3.901  17.634  0.00  0.00    +0.000 OA
ATOM      2  C   UNL     1       1.707   4.083  18.672  0.00  0.00    +0.000 C 
ATOM      3  N   UNL     1       3.040   4.441  18.737  0.00  0.00    +0.000 N 
ATOM      4  H   UNL     1       3.467   4.405  19.657  0.00  0.00    +0.000 HD
ENDROOT
BRANCH   3   5
ATOM      5  C   UNL     1       3.881   4.795  17.662  0.00  0.00    +0.000 A 
ATOM      6  C   UNL     1       4.465   3.864  16.801  0.00  0.00    +0.000 A 
ATOM      7  C   UNL     1       5.278   4.285  15.746  0.00  0.00    +0.000 A 
ATOM      8  C   UNL     1       5.516   5.643  15.543  0.00  0.00    +0.000 A 
ATOM      9  C   UNL     1       4.933   6.580  16.390  0.00  0.00    +0.000 A 
ATOM     10  C   UNL     1       4.109   6.158  17.439  0.00  0.00    +0.000 A 
ENDBRANCH   3   5
BRANCH   2  11
ATOM     11  C   UNL     1       1.009   3.879  20.007  0.00  0.00    +0.000 C 
ATOM     12 CL   UNL     1       2.128   3.608  21.360  0.00  0.00    +0.000 Cl
ENDBRANCH   2  11
TORSDOF 2
ENDMDL
