MODEL 1
REMARK VINA RESULT:      -6.4      0.000      0.000
REMARK  Name = 
REMARK  5 active torsions:
REMARK  status: ('A' for Active; 'I' for Inactive)
REMARK    1  A    between atoms: C_2  and  C_3
REMARK    2  A    between atoms: C_4  and  C_5
REMARK    3  A    between atoms: C_5  and  O_6
REMARK    4  A    between atoms: C_8  and  N_9
REMARK    5  A    between atoms: C_17  and  O_18
REMARK                            x       y       z     vdW  Elec       q    Type
REMARK                         _______ _______ _______ _____ _____    ______ ____
ROOT
ATOM      1  C   UNL     1       2.456   4.499  19.269  0.00  0.00    +0.000 C 
ATOM      2  C   UNL     1       3.494   3.945  20.247  0.00  0.00    +0.000 C 
ATOM      3  O   UNL     1       4.726   4.684  20.067  0.00  0.00    +0.000 OA
ATOM      4  C   UNL     1       4.487   5.773  19.139  0.00  0.00    +0.000 C 
ATOM      5  C   UNL     1       2.948   5.924  19.083  0.00  0.00    +0.000 C 
ENDROOT
BRANCH   4   6
ATOM      6  N   UNL     1       5.189   5.514  17.877  0.00  0.00    +0.000 N 
ATOM      7  C   UNL     1       6.164   4.541  17.782  0.00  0.00    +0.000 A 
ATOM      8  C   UNL     1       6.924   4.414  16.696  0.00  0.00    +0.000 A 
ATOM      9  C   UNL     1       6.709   5.421  15.646  0.00  0.00    +0.000 A 
ATOM     10  N   UNL     1       7.515   5.430  14.542  0.00  0.00    +0.000 N 
ATOM     11  N   UNL     1       5.791   6.331  15.714  0.00  0.00    +0.000 NA
ATOM     12  C   UNL     1       4.991   6.422  16.828  0.00  0.00    +0.000 A 
ATOM     13  O   UNL     1       4.136   7.301  16.904  0.00  0.00    +0.000 OA
ATOM     14  H   UNL     1       7.830   4.539  14.182  0.00  0.00    +0.000 HD
ATOM     15  H   UNL     1       7.177   6.063  13.822  0.00  0.00    +0.000 HD
ENDBRANCH   4   6
BRANCH   1  17
ATOM     16  C   UNL     1       2.362   3.197  16.931  0.00  0.00    +0.000 C 
ATOM     17  C   UNL     1       2.394   3.798  17.969  0.00  0.00    +0.000 C 
ENDBRANCH   1  17
BRANCH   5  18
ATOM     18  O   UNL     1       2.457   6.728  20.177  0.00  0.00    +0.000 OA
ATOM     19  H   UNL     1       2.491   7.667  19.921  0.00  0.00    +0.000 HD
ENDBRANCH   5  18
BRANCH   2  20
ATOM     20  C   UNL     1       3.767   2.442  20.148  0.00  0.00    +0.000 C 
BRANCH  20  21
ATOM     21  O   UNL     1       5.172   2.196  20.094  0.00  0.00    +0.000 OA
ATOM     22  H   UNL     1       5.350   1.833  19.206  0.00  0.00    +0.000 HD
ENDBRANCH  20  21
ENDBRANCH   2  20
TORSDOF 5
ENDMDL
MODEL 2
REMARK VINA RESULT:      -6.4      2.695      4.975
REMARK  Name = 
REMARK  5 active torsions:
REMARK  status: ('A' for Active; 'I' for Inactive)
REMARK    1  A    between atoms: C_2  and  C_3
REMARK    2  A    between atoms: C_4  and  C_5
REMARK    3  A    between atoms: C_5  and  O_6
REMARK    4  A    between atoms: C_8  and  N_9
REMARK    5  A    between atoms: C_17  and  O_18
REMARK                            x       y       z     vdW  Elec       q    Type
REMARK                         _______ _______ _______ _____ _____    ______ ____
ROOT
ATOM      1  C   UNL     1       5.531   5.869  16.506  0.00  0.00    +0.000 C 
ATOM      2  C   UNL     1       6.574   5.290  17.465  0.00  0.00    +0.000 C 
ATOM      3  O   UNL     1       6.087   4.014  17.946  0.00  0.00    +0.000 OA
ATOM      4  C   UNL     1       4.868   3.679  17.235  0.00  0.00    +0.000 C 
ATOM      5  C   UNL     1       4.856   4.606  15.996  0.00  0.00    +0.000 C 
ENDROOT
BRANCH   4   6
ATOM      6  N   UNL     1       3.723   3.755  18.149  0.00  0.00    +0.000 N 
ATOM      7  C   UNL     1       3.884   4.089  19.479  0.00  0.00    +0.000 A 
ATOM      8  C   UNL     1       2.883   3.993  20.352  0.00  0.00    +0.000 A 
ATOM      9  C   UNL     1       1.627   3.439  19.824  0.00  0.00    +0.000 A 
ATOM     10  N   UNL     1       0.579   3.209  20.671  0.00  0.00    +0.000 N 
ATOM     11  N   UNL     1       1.456   3.134  18.578  0.00  0.00    +0.000 NA
ATOM     12  C   UNL     1       2.491   3.275  17.684  0.00  0.00    +0.000 A 
ATOM     13  O   UNL     1       2.337   2.963  16.506  0.00  0.00    +0.000 OA
ATOM     14  H   UNL     1       0.439   3.858  21.433  0.00  0.00    +0.000 HD
ATOM     15  H   UNL     1      -0.275   2.974  20.174  0.00  0.00    +0.000 HD
ENDBRANCH   4   6
BRANCH   1  17
ATOM     16  C   UNL     1       3.709   7.470  17.639  0.00  0.00    +0.000 C 
ATOM     17  C   UNL     1       4.541   6.767  17.138  0.00  0.00    +0.000 C 
ENDBRANCH   1  17
BRANCH   5  18
ATOM     18  O   UNL     1       5.651   4.061  14.922  0.00  0.00    +0.000 OA
ATOM     19  H   UNL     1       6.133   3.280  15.248  0.00  0.00    +0.000 HD
ENDBRANCH   5  18
BRANCH   2  20
ATOM     20  C   UNL     1       6.960   6.181  18.647  0.00  0.00    +0.000 C 
BRANCH  20  21
ATOM     21  O   UNL     1       7.108   5.399  19.831  0.00  0.00    +0.000 OA
ATOM     22  H   UNL     1       7.563   5.969  20.478  0.00  0.00    +0.000 HD
ENDBRANCH  20  21
ENDBRANCH   2  20
TORSDOF 5
ENDMDL
MODEL 3
REMARK VINA RESULT:      -6.3      2.469      4.956
REMARK  Name = 
REMARK  5 active torsions:
REMARK  status: ('A' for Active; 'I' for Inactive)
REMARK    1  A    between atoms: C_2  and  C_3
REMARK    2  A    between atoms: C_4  and  C_5
REMARK    3  A    between atoms: C_5  and  O_6
REMARK    4  A    between atoms: C_8  and  N_9
REMARK    5  A    between atoms: C_17  and  O_18
REMARK                            x       y       z     vdW  Elec       q    Type
REMARK                         _______ _______ _______ _____ _____    ______ ____
ROOT
ATOM      1  C   UNL     1       5.547   5.991  16.488  0.00  0.00    +0.000 C 
ATOM      2  C   UNL     1       6.577   5.382  17.441  0.00  0.00    +0.000 C 
ATOM      3  O   UNL     1       6.165   4.028  17.746  0.00  0.00    +0.000 OA
ATOM      4  C   UNL     1       5.017   3.691  16.926  0.00  0.00    +0.000 C 
ATOM      5  C   UNL     1       5.002   4.751  15.800  0.00  0.00    +0.000 C 
ENDROOT
BRANCH   4   6
ATOM      6  N   UNL     1       3.820   3.579  17.768  0.00  0.00    +0.000 N 
ATOM      7  C   UNL     1       2.565   3.883  17.278  0.00  0.00    +0.000 A 
ATOM      8  C   UNL     1       1.500   3.951  18.075  0.00  0.00    +0.000 A 
ATOM      9  C   UNL     1       1.763   3.759  19.509  0.00  0.00    +0.000 A 
ATOM     10  N   UNL     1       0.747   3.914  20.411  0.00  0.00    +0.000 N 
ATOM     11  N   UNL     1       2.931   3.461  19.982  0.00  0.00    +0.000 NA
ATOM     12  C   UNL     1       4.011   3.358  19.138  0.00  0.00    +0.000 A 
ATOM     13  O   UNL     1       5.124   3.099  19.589  0.00  0.00    +0.000 OA
ATOM     14  H   UNL     1      -0.178   3.617  20.132  0.00  0.00    +0.000 HD
ATOM     15  H   UNL     1       1.008   3.608  21.344  0.00  0.00    +0.000 HD
ENDBRANCH   4   6
BRANCH   1  17
ATOM     16  C   UNL     1       3.557   7.353  17.651  0.00  0.00    +0.000 C 
ATOM     17  C   UNL     1       4.457   6.738  17.150  0.00  0.00    +0.000 C 
ENDBRANCH   1  17
BRANCH   5  18
ATOM     18  O   UNL     1       5.896   4.391  14.724  0.00  0.00    +0.000 OA
ATOM     19  H   UNL     1       5.803   3.438  14.541  0.00  0.00    +0.000 HD
ENDBRANCH   5  18
BRANCH   2  20
ATOM     20  C   UNL     1       6.827   6.156  18.737  0.00  0.00    +0.000 C 
BRANCH  20  21
ATOM     21  O   UNL     1       7.016   5.254  19.827  0.00  0.00    +0.000 OA
ATOM     22  H   UNL     1       6.150   5.178  20.269  0.00  0.00    +0.000 HD
ENDBRANCH  20  21
ENDBRANCH   2  20
TORSDOF 5
ENDMDL
MODEL 4
REMARK VINA RESULT:      -6.2      2.002      3.022
REMARK  Name = 
REMARK  5 active torsions:
REMARK  status: ('A' for Active; 'I' for Inactive)
REMARK    1  A    between atoms: C_2  and  C_3
REMARK    2  A    between atoms: C_4  and  C_5
REMARK    3  A    between atoms: C_5  and  O_6
REMARK    4  A    between atoms: C_8  and  N_9
REMARK    5  A    between atoms: C_17  and  O_18
REMARK                            x       y       z     vdW  Elec       q    Type
REMARK                         _______ _______ _______ _____ _____    ______ ____
ROOT
ATOM      1  C   UNL     1       3.882   5.237  19.028  0.00  0.00    +0.000 C 
ATOM      2  C   UNL     1       3.126   4.005  18.526  0.00  0.00    +0.000 C 
ATOM      3  O   UNL     1       4.052   3.177  17.783  0.00  0.00    +0.000 OA
ATOM      4  C   UNL     1       5.385   3.734  17.912  0.00  0.00    +0.000 C 
ATOM      5  C   UNL     1       5.303   4.704  19.114  0.00  0.00    +0.000 C 
ENDROOT
BRANCH   4   6
ATOM      6  N   UNL     1       5.819   4.287  16.623  0.00  0.00    +0.000 N 
ATOM      7  C   UNL     1       5.041   4.163  15.488  0.00  0.00    +0.000 A 
ATOM      8  C   UNL     1       5.498   4.506  14.286  0.00  0.00    +0.000 A 
ATOM      9  C   UNL     1       6.900   4.950  14.238  0.00  0.00    +0.000 A 
ATOM     10  N   UNL     1       7.483   5.223  13.032  0.00  0.00    +0.000 N 
ATOM     11  N   UNL     1       7.637   5.084  15.293  0.00  0.00    +0.000 NA
ATOM     12  C   UNL     1       7.135   4.760  16.531  0.00  0.00    +0.000 A 
ATOM     13  O   UNL     1       7.842   4.864  17.531  0.00  0.00    +0.000 OA
ATOM     14  H   UNL     1       6.907   5.644  12.316  0.00  0.00    +0.000 HD
ATOM     15  H   UNL     1       8.392   5.664  13.134  0.00  0.00    +0.000 HD
ENDBRANCH   4   6
BRANCH   1  17
ATOM     16  C   UNL     1       3.802   7.346  17.381  0.00  0.00    +0.000 C 
ATOM     17  C   UNL     1       3.821   6.409  18.131  0.00  0.00    +0.000 C 
ENDBRANCH   1  17
BRANCH   5  18
ATOM     18  O   UNL     1       5.458   4.005  20.367  0.00  0.00    +0.000 OA
ATOM     19  H   UNL     1       4.576   3.804  20.730  0.00  0.00    +0.000 HD
ENDBRANCH   5  18
BRANCH   2  20
ATOM     20  C   UNL     1       1.882   4.285  17.681  0.00  0.00    +0.000 C 
BRANCH  20  21
ATOM     21  O   UNL     1       0.942   3.219  17.812  0.00  0.00    +0.000 OA
ATOM     22  H   UNL     1       0.059   3.632  17.793  0.00  0.00    +0.000 HD
ENDBRANCH  20  21
ENDBRANCH   2  20
TORSDOF 5
ENDMDL
MODEL 5
REMARK VINA RESULT:      -6.1      2.207      5.054
REMARK  Name = 
REMARK  5 active torsions:
REMARK  status: ('A' for Active; 'I' for Inactive)
REMARK    1  A    between atoms: C_2  and  C_3
REMARK    2  A    between atoms: C_4  and  C_5
REMARK    3  A    between atoms: C_5  and  O_6
REMARK    4  A    between atoms: C_8  and  N_9
REMARK    5  A    between atoms: C_17  and  O_18
REMARK                            x       y       z     vdW  Elec       q    Type
REMARK                         _______ _______ _______ _____ _____    ______ ____
ROOT
ATOM      1  C   UNL     1       6.852   5.212  17.001  0.00  0.00    +0.000 C 
ATOM      2  C   UNL     1       6.052   6.466  17.357  0.00  0.00    +0.000 C 
ATOM      3  O   UNL     1       5.191   6.150  18.478  0.00  0.00    +0.000 OA
ATOM      4  C   UNL     1       5.507   4.815  18.949  0.00  0.00    +0.000 C 
ATOM      5  C   UNL     1       6.889   4.487  18.335  0.00  0.00    +0.000 C 
ENDROOT
BRANCH   4   6
ATOM      6  N   UNL     1       4.397   3.905  18.643  0.00  0.00    +0.000 N 
ATOM      7  C   UNL     1       3.381   4.271  17.782  0.00  0.00    +0.000 A 
ATOM      8  C   UNL     1       2.288   3.528  17.631  0.00  0.00    +0.000 A 
ATOM      9  C   UNL     1       2.200   2.340  18.494  0.00  0.00    +0.000 A 
ATOM     10  N   UNL     1       1.067   1.575  18.481  0.00  0.00    +0.000 N 
ATOM     11  N   UNL     1       3.148   1.975  19.296  0.00  0.00    +0.000 NA
ATOM     12  C   UNL     1       4.287   2.737  19.410  0.00  0.00    +0.000 A 
ATOM     13  O   UNL     1       5.177   2.405  20.189  0.00  0.00    +0.000 OA
ATOM     14  H   UNL     1       0.585   1.464  17.600  0.00  0.00    +0.000 HD
ATOM     15  H   UNL     1       1.181   0.706  18.995  0.00  0.00    +0.000 HD
ENDBRANCH   4   6
BRANCH   1  17
ATOM     16  C   UNL     1       5.760   3.681  15.095  0.00  0.00    +0.000 C 
ATOM     17  C   UNL     1       6.236   4.358  15.964  0.00  0.00    +0.000 C 
ENDBRANCH   1  17
BRANCH   5  18
ATOM     18  O   UNL     1       7.962   5.038  19.130  0.00  0.00    +0.000 OA
ATOM     19  H   UNL     1       8.371   4.322  19.649  0.00  0.00    +0.000 HD
ENDBRANCH   5  18
BRANCH   2  20
ATOM     20  C   UNL     1       5.229   7.077  16.222  0.00  0.00    +0.000 C 
BRANCH  20  21
ATOM     21  O   UNL     1       3.941   7.470  16.697  0.00  0.00    +0.000 OA
ATOM     22  H   UNL     1       3.612   6.725  17.234  0.00  0.00    +0.000 HD
ENDBRANCH  20  21
ENDBRANCH   2  20
TORSDOF 5
ENDMDL
MODEL 6
REMARK VINA RESULT:      -6.1      1.175      1.564
REMARK  Name = 
REMARK  5 active torsions:
REMARK  status: ('A' for Active; 'I' for Inactive)
REMARK    1  A    between atoms: C_2  and  C_3
REMARK    2  A    between atoms: C_4  and  C_5
REMARK    3  A    between atoms: C_5  and  O_6
REMARK    4  A    between atoms: C_8  and  N_9
REMARK    5  A    between atoms: C_17  and  O_18
REMARK                            x       y       z     vdW  Elec       q    Type
REMARK                         _______ _______ _______ _____ _____    ______ ____
ROOT
ATOM      1  C   UNL     1       2.424   4.468  19.205  0.00  0.00    +0.000 C 
ATOM      2  C   UNL     1       3.462   3.822  20.125  0.00  0.00    +0.000 C 
ATOM      3  O   UNL     1       4.657   4.639  20.103  0.00  0.00    +0.000 OA
ATOM      4  C   UNL     1       4.387   5.844  19.342  0.00  0.00    +0.000 C 
ATOM      5  C   UNL     1       2.845   5.927  19.254  0.00  0.00    +0.000 C 
ENDROOT
BRANCH   4   6
ATOM      6  N   UNL     1       5.138   5.815  18.082  0.00  0.00    +0.000 N 
ATOM      7  C   UNL     1       4.636   6.390  16.931  0.00  0.00    +0.000 A 
ATOM      8  C   UNL     1       5.224   6.221  15.749  0.00  0.00    +0.000 A 
ATOM      9  C   UNL     1       6.391   5.325  15.740  0.00  0.00    +0.000 A 
ATOM     10  N   UNL     1       6.996   5.013  14.554  0.00  0.00    +0.000 N 
ATOM     11  N   UNL     1       6.882   4.790  16.811  0.00  0.00    +0.000 NA
ATOM     12  C   UNL     1       6.281   5.006  18.028  0.00  0.00    +0.000 A 
ATOM     13  O   UNL     1       6.732   4.479  19.042  0.00  0.00    +0.000 OA
ATOM     14  H   UNL     1       7.039   5.732  13.844  0.00  0.00    +0.000 HD
ATOM     15  H   UNL     1       7.873   4.518  14.686  0.00  0.00    +0.000 HD
ENDBRANCH   4   6
BRANCH   1  17
ATOM     16  C   UNL     1       2.446   3.530  16.697  0.00  0.00    +0.000 C 
ATOM     17  C   UNL     1       2.437   3.971  17.813  0.00  0.00    +0.000 C 
ENDBRANCH   1  17
BRANCH   5  18
ATOM     18  O   UNL     1       2.280   6.530  20.438  0.00  0.00    +0.000 OA
ATOM     19  H   UNL     1       1.520   7.083  20.181  0.00  0.00    +0.000 HD
ENDBRANCH   5  18
BRANCH   2  20
ATOM     20  C   UNL     1       3.818   2.367  19.812  0.00  0.00    +0.000 C 
BRANCH  20  21
ATOM     21  O   UNL     1       5.220   2.153  19.971  0.00  0.00    +0.000 OA
ATOM     22  H   UNL     1       5.576   2.973  20.363  0.00  0.00    +0.000 HD
ENDBRANCH  20  21
ENDBRANCH   2  20
TORSDOF 5
ENDMDL
MODEL 7
REMARK VINA RESULT:      -6.0      2.002      3.144
REMARK  Name = 
REMARK  5 active torsions:
REMARK  status: ('A' for Active; 'I' for Inactive)
REMARK    1  A    between atoms: C_2  and  C_3
REMARK    2  A    between atoms: C_4  and  C_5
REMARK    3  A    between atoms: C_5  and  O_6
REMARK    4  A    between atoms: C_8  and  N_9
REMARK    5  A    between atoms: C_17  and  O_18
REMARK                            x       y       z     vdW  Elec       q    Type
REMARK                         _______ _______ _______ _____ _____    ______ ____
ROOT
ATOM      1  C   UNL     1       2.024   2.329  19.818  0.00  0.00    +0.000 C 
ATOM      2  C   UNL     1       1.390   3.617  20.348  0.00  0.00    +0.000 C 
ATOM      3  O   UNL     1       1.268   4.547  19.245  0.00  0.00    +0.000 OA
ATOM      4  C   UNL     1       1.646   3.872  18.019  0.00  0.00    +0.000 C 
ATOM      5  C   UNL     1       1.603   2.364  18.359  0.00  0.00    +0.000 C 
ENDROOT
BRANCH   4   6
ATOM      6  N   UNL     1       2.914   4.419  17.521  0.00  0.00    +0.000 N 
ATOM      7  C   UNL     1       3.863   3.610  16.927  0.00  0.00    +0.000 A 
ATOM      8  C   UNL     1       5.080   4.060  16.630  0.00  0.00    +0.000 A 
ATOM      9  C   UNL     1       5.368   5.442  17.044  0.00  0.00    +0.000 A 
ATOM     10  N   UNL     1       6.625   5.952  16.873  0.00  0.00    +0.000 N 
ATOM     11  N   UNL     1       4.487   6.216  17.590  0.00  0.00    +0.000 NA
ATOM     12  C   UNL     1       3.223   5.744  17.855  0.00  0.00    +0.000 A 
ATOM     13  O   UNL     1       2.393   6.471  18.395  0.00  0.00    +0.000 OA
ATOM     14  H   UNL     1       7.140   5.666  16.051  0.00  0.00    +0.000 HD
ATOM     15  H   UNL     1       6.663   6.952  17.050  0.00  0.00    +0.000 HD
ENDBRANCH   4   6
BRANCH   1  17
ATOM     16  C   UNL     1       4.687   2.201  20.058  0.00  0.00    +0.000 C 
ATOM     17  C   UNL     1       3.496   2.271  19.932  0.00  0.00    +0.000 C 
ENDBRANCH   1  17
BRANCH   5  18
ATOM     18  O   UNL     1       0.262   1.838  18.253  0.00  0.00    +0.000 OA
ATOM     19  H   UNL     1      -0.373   2.540  18.484  0.00  0.00    +0.000 HD
ENDBRANCH   5  18
BRANCH   2  20
ATOM     20  C   UNL     1       2.117   4.285  21.517  0.00  0.00    +0.000 C 
BRANCH  20  21
ATOM     21  O   UNL     1       2.432   5.640  21.197  0.00  0.00    +0.000 OA
ATOM     22  H   UNL     1       2.444   6.123  22.044  0.00  0.00    +0.000 HD
ENDBRANCH  20  21
ENDBRANCH   2  20
TORSDOF 5
ENDMDL
MODEL 8
REMARK VINA RESULT:      -5.9      2.064      2.693
REMARK  Name = 
REMARK  5 active torsions:
REMARK  status: ('A' for Active; 'I' for Inactive)
REMARK    1  A    between atoms: C_2  and  C_3
REMARK    2  A    between atoms: C_4  and  C_5
REMARK    3  A    between atoms: C_5  and  O_6
REMARK    4  A    between atoms: C_8  and  N_9
REMARK    5  A    between atoms: C_17  and  O_18
REMARK                            x       y       z     vdW  Elec       q    Type
REMARK                         _______ _______ _______ _____ _____    ______ ____
ROOT
ATOM      1  C   UNL     1       1.905   2.764  18.529  0.00  0.00    +0.000 C 
ATOM      2  C   UNL     1       1.866   3.635  19.787  0.00  0.00    +0.000 C 
ATOM      3  O   UNL     1       2.480   4.908  19.475  0.00  0.00    +0.000 OA
ATOM      4  C   UNL     1       2.771   4.953  18.055  0.00  0.00    +0.000 C 
ATOM      5  C   UNL     1       1.923   3.817  17.434  0.00  0.00    +0.000 C 
ENDROOT
BRANCH   4   6
ATOM      6  N   UNL     1       4.223   4.908  17.843  0.00  0.00    +0.000 N 
ATOM      7  C   UNL     1       4.764   4.430  16.666  0.00  0.00    +0.000 A 
ATOM      8  C   UNL     1       6.072   4.225  16.530  0.00  0.00    +0.000 A 
ATOM      9  C   UNL     1       6.885   4.467  17.732  0.00  0.00    +0.000 A 
ATOM     10  N   UNL     1       8.222   4.184  17.714  0.00  0.00    +0.000 N 
ATOM     11  N   UNL     1       6.395   4.927  18.838  0.00  0.00    +0.000 NA
ATOM     12  C   UNL     1       5.046   5.168  18.947  0.00  0.00    +0.000 A 
ATOM     13  O   UNL     1       4.576   5.582  20.004  0.00  0.00    +0.000 OA
ATOM     14  H   UNL     1       8.726   4.347  16.852  0.00  0.00    +0.000 HD
ATOM     15  H   UNL     1       8.702   4.532  18.538  0.00  0.00    +0.000 HD
ENDBRANCH   4   6
BRANCH   1  17
ATOM     16  C   UNL     1       4.071   1.203  18.333  0.00  0.00    +0.000 C 
ATOM     17  C   UNL     1       3.088   1.885  18.423  0.00  0.00    +0.000 C 
ENDBRANCH   1  17
BRANCH   5  18
ATOM     18  O   UNL     1       0.568   4.247  17.185  0.00  0.00    +0.000 OA
ATOM     19  H   UNL     1       0.160   3.650  16.532  0.00  0.00    +0.000 HD
ENDBRANCH   5  18
BRANCH   2  20
ATOM     20  C   UNL     1       2.515   3.033  21.035  0.00  0.00    +0.000 C 
BRANCH  20  21
ATOM     21  O   UNL     1       1.513   2.602  21.957  0.00  0.00    +0.000 OA
ATOM     22  H   UNL     1       1.360   1.657  21.768  0.00  0.00    +0.000 HD
ENDBRANCH  20  21
ENDBRANCH   2  20
TORSDOF 5
ENDMDL
MODEL 9
REMARK VINA RESULT:      -5.9      2.746      5.103
REMARK  Name = 
REMARK  5 active torsions:
REMARK  status: ('A' for Active; 'I' for Inactive)
REMARK    1  A    between atoms: C_2  and  C_3
REMARK    2  A    between atoms: C_4  and  C_5
REMARK    3  A    between atoms: C_5  and  O_6
REMARK    4  A    between atoms: C_8  and  N_9
REMARK    5  A    between atoms: C_17  and  O_18
REMARK                            x       y       z     vdW  Elec       q    Type
REMARK                         _______ _______ _______ _____ _____    ______ ____
ROOT
ATOM      1  C   UNL     1       5.354   6.052  15.995  0.00  0.00    +0.000 C 
ATOM      2  C   UNL     1       6.667   5.612  16.646  0.00  0.00    +0.000 C 
ATOM      3  O   UNL     1       6.496   4.262  17.141  0.00  0.00    +0.000 OA
ATOM      4  C   UNL     1       5.203   3.766  16.710  0.00  0.00    +0.000 C 
ATOM      5  C   UNL     1       4.764   4.717  15.572  0.00  0.00    +0.000 C 
ENDROOT
BRANCH   4   6
ATOM      6  N   UNL     1       4.310   3.636  17.868  0.00  0.00    +0.000 N 
ATOM      7  C   UNL     1       4.791   3.709  19.160  0.00  0.00    +0.000 A 
ATOM      8  C   UNL     1       4.024   3.423  20.210  0.00  0.00    +0.000 A 
ATOM      9  C   UNL     1       2.665   2.953  19.899  0.00  0.00    +0.000 A 
ATOM     10  N   UNL     1       1.843   2.539  20.910  0.00  0.00    +0.000 N 
ATOM     11  N   UNL     1       2.195   2.892  18.694  0.00  0.00    +0.000 NA
ATOM     12  C   UNL     1       2.991   3.227  17.625  0.00  0.00    +0.000 A 
ATOM     13  O   UNL     1       2.554   3.146  16.480  0.00  0.00    +0.000 OA
ATOM     14  H   UNL     1       1.905   3.024  21.794  0.00  0.00    +0.000 HD
ATOM     15  H   UNL     1       0.890   2.386  20.595  0.00  0.00    +0.000 HD
ENDBRANCH   4   6
BRANCH   1  17
ATOM     16  C   UNL     1       3.655   7.363  17.595  0.00  0.00    +0.000 C 
ATOM     17  C   UNL     1       4.426   6.767  16.896  0.00  0.00    +0.000 C 
ENDBRANCH   1  17
BRANCH   5  18
ATOM     18  O   UNL     1       5.349   4.334  14.309  0.00  0.00    +0.000 OA
ATOM     19  H   UNL     1       4.642   4.250  13.644  0.00  0.00    +0.000 HD
ENDBRANCH   5  18
BRANCH   2  20
ATOM     20  C   UNL     1       7.193   6.515  17.763  0.00  0.00    +0.000 C 
BRANCH  20  21
ATOM     21  O   UNL     1       7.759   7.706  17.214  0.00  0.00    +0.000 OA
ATOM     22  H   UNL     1       7.902   8.309  17.966  0.00  0.00    +0.000 HD
ENDBRANCH  20  21
ENDBRANCH   2  20
TORSDOF 5
ENDMDL
