MODEL 1
REMARK VINA RESULT:      -6.1      0.000      0.000
REMARK  Name = 
REMARK  10 active torsions:
REMARK  status: ('A' for Active; 'I' for Inactive)
REMARK    1  A    between atoms: C_1  and  C_2
REMARK    2  A    between atoms: N_6  and  C_7
REMARK    3  A    between atoms: C_7  and  C_8
REMARK    4  A    between atoms: C_8  and  O_9
REMARK    5  A    between atoms: O_9  and  C_10
REMARK    6  A    between atoms: C_10  and  C_11
REMARK    7  A    between atoms: C_10  and  C_12
REMARK    8  A    between atoms: C_10  and  C_13
REMARK    9  A    between atoms: C_14  and  C_15
REMARK   10  A    between atoms: C_15  and  O_16
REMARK                            x       y       z     vdW  Elec       q    Type
REMARK                         _______ _______ _______ _____ _____    ______ ____
ROOT
ATOM      1  C   UNL     1       1.190   3.139  21.281  0.00  0.00    +0.000 C 
ATOM      2  C   UNL     1       2.072   2.482  20.209  0.00  0.00    +0.000 C 
ATOM      3  C   UNL     1       1.312   2.320  18.886  0.00  0.00    +0.000 C 
ATOM      4  C   UNL     1       1.101   3.662  18.192  0.00  0.00    +0.000 C 
ATOM      5  C   UNL     1       2.397   4.465  18.078  0.00  0.00    +0.000 C 
ATOM      6  N   UNL     1       3.081   4.597  19.369  0.00  0.00    +0.000 NA
ATOM      7  C   UNL     1       3.386   3.285  19.994  0.00  0.00    +0.000 C 
ENDROOT
BRANCH   6   8
ATOM      8  C   UNL     1       4.258   5.482  19.321  0.00  0.00    +0.000 C 
BRANCH   8   9
ATOM      9  C   UNL     1       4.656   6.028  17.934  0.00  0.00    +0.000 C 
BRANCH   9  10
ATOM     10  O   UNL     1       5.421   5.076  17.194  0.00  0.00    +0.000 OA
BRANCH  10  11
ATOM     11  C   UNL     1       6.797   5.412  16.953  0.00  0.00    +0.000 C 
ATOM     12  C   UNL     1       7.741   4.526  17.776  0.00  0.00    +0.000 C 
ATOM     13  C   UNL     1       7.052   5.135  15.463  0.00  0.00    +0.000 C 
ATOM     14  C   UNL     1       7.066   6.900  17.218  0.00  0.00    +0.000 C 
ENDBRANCH  10  11
ENDBRANCH   9  10
ENDBRANCH   8   9
ENDBRANCH   6   8
BRANCH   7  15
ATOM     15  C   UNL     1       4.463   2.440  19.254  0.00  0.00    +0.000 C 
BRANCH  15  16
ATOM     16  O   UNL     1       5.198   1.603  20.152  0.00  0.00    +0.000 OA
ATOM     17  H   UNL     1       5.337   2.109  20.967  0.00  0.00    +0.000 HD
ENDBRANCH  15  16
ENDBRANCH   7  15
TORSDOF 6
ENDMDL
MODEL 2
REMARK VINA RESULT:      -6.1      0.159      1.065
REMARK  Name = 
REMARK  10 active torsions:
REMARK  status: ('A' for Active; 'I' for Inactive)
REMARK    1  A    between atoms: C_1  and  C_2
REMARK    2  A    between atoms: N_6  and  C_7
REMARK    3  A    between atoms: C_7  and  C_8
REMARK    4  A    between atoms: C_8  and  O_9
REMARK    5  A    between atoms: O_9  and  C_10
REMARK    6  A    between atoms: C_10  and  C_11
REMARK    7  A    between atoms: C_10  and  C_12
REMARK    8  A    between atoms: C_10  and  C_13
REMARK    9  A    between atoms: C_14  and  C_15
REMARK   10  A    between atoms: C_15  and  O_16
REMARK                            x       y       z     vdW  Elec       q    Type
REMARK                         _______ _______ _______ _____ _____    ______ ____
ROOT
ATOM      1  C   UNL     1       1.312   3.106  21.466  0.00  0.00    +0.000 C 
ATOM      2  C   UNL     1       2.162   2.450  20.368  0.00  0.00    +0.000 C 
ATOM      3  C   UNL     1       1.351   2.253  19.080  0.00  0.00    +0.000 C 
ATOM      4  C   UNL     1       1.085   3.579  18.377  0.00  0.00    +0.000 C 
ATOM      5  C   UNL     1       2.359   4.406  18.197  0.00  0.00    +0.000 C 
ATOM      6  N   UNL     1       3.093   4.570  19.456  0.00  0.00    +0.000 NA
ATOM      7  C   UNL     1       3.449   3.274  20.087  0.00  0.00    +0.000 C 
ENDROOT
BRANCH   6   8
ATOM      8  C   UNL     1       4.250   5.476  19.348  0.00  0.00    +0.000 C 
BRANCH   8   9
ATOM      9  C   UNL     1       4.592   5.993  17.935  0.00  0.00    +0.000 C 
BRANCH   9  10
ATOM     10  O   UNL     1       5.324   5.024  17.184  0.00  0.00    +0.000 OA
BRANCH  10  11
ATOM     11  C   UNL     1       6.680   5.367  16.853  0.00  0.00    +0.000 C 
ATOM     12  C   UNL     1       6.994   5.052  15.384  0.00  0.00    +0.000 C 
ATOM     13  C   UNL     1       6.802   6.885  17.057  0.00  0.00    +0.000 C 
ATOM     14  C   UNL     1       7.680   4.674  17.790  0.00  0.00    +0.000 C 
ENDBRANCH  10  11
ENDBRANCH   9  10
ENDBRANCH   8   9
ENDBRANCH   6   8
BRANCH   7  15
ATOM     15  C   UNL     1       4.511   2.438  19.315  0.00  0.00    +0.000 C 
BRANCH  15  16
ATOM     16  O   UNL     1       5.236   1.560  20.181  0.00  0.00    +0.000 OA
ATOM     17  H   UNL     1       4.769   0.710  20.183  0.00  0.00    +0.000 HD
ENDBRANCH  15  16
ENDBRANCH   7  15
TORSDOF 6
ENDMDL
MODEL 3
REMARK VINA RESULT:      -6.1      1.206      1.520
REMARK  Name = 
REMARK  10 active torsions:
REMARK  status: ('A' for Active; 'I' for Inactive)
REMARK    1  A    between atoms: C_1  and  C_2
REMARK    2  A    between atoms: N_6  and  C_7
REMARK    3  A    between atoms: C_7  and  C_8
REMARK    4  A    between atoms: C_8  and  O_9
REMARK    5  A    between atoms: O_9  and  C_10
REMARK    6  A    between atoms: C_10  and  C_11
REMARK    7  A    between atoms: C_10  and  C_12
REMARK    8  A    between atoms: C_10  and  C_13
REMARK    9  A    between atoms: C_14  and  C_15
REMARK   10  A    between atoms: C_15  and  O_16
REMARK                            x       y       z     vdW  Elec       q    Type
REMARK                         _______ _______ _______ _____ _____    ______ ____
ROOT
ATOM      1  C   UNL     1       1.764   2.866  21.609  0.00  0.00    +0.000 C 
ATOM      2  C   UNL     1       1.858   2.259  20.201  0.00  0.00    +0.000 C 
ATOM      3  C   UNL     1       0.837   2.899  19.252  0.00  0.00    +0.000 C 
ATOM      4  C   UNL     1       1.224   4.329  18.892  0.00  0.00    +0.000 C 
ATOM      5  C   UNL     1       2.674   4.435  18.418  0.00  0.00    +0.000 C 
ATOM      6  N   UNL     1       3.610   3.816  19.363  0.00  0.00    +0.000 NA
ATOM      7  C   UNL     1       3.298   2.389  19.629  0.00  0.00    +0.000 C 
ENDROOT
BRANCH   6   8
ATOM      8  C   UNL     1       5.025   4.022  19.007  0.00  0.00    +0.000 C 
BRANCH   8   9
ATOM      9  C   UNL     1       5.618   5.413  19.312  0.00  0.00    +0.000 C 
BRANCH   9  10
ATOM     10  O   UNL     1       6.834   5.634  18.598  0.00  0.00    +0.000 OA
BRANCH  10  11
ATOM     11  C   UNL     1       6.732   6.406  17.390  0.00  0.00    +0.000 C 
ATOM     12  C   UNL     1       7.028   5.548  16.152  0.00  0.00    +0.000 C 
ATOM     13  C   UNL     1       5.274   6.884  17.307  0.00  0.00    +0.000 C 
ATOM     14  C   UNL     1       7.642   7.642  17.434  0.00  0.00    +0.000 C 
ENDBRANCH  10  11
ENDBRANCH   9  10
ENDBRANCH   8   9
ENDBRANCH   6   8
BRANCH   7  15
ATOM     15  C   UNL     1       3.527   1.430  18.425  0.00  0.00    +0.000 C 
BRANCH  15  16
ATOM     16  O   UNL     1       4.512   0.433  18.712  0.00  0.00    +0.000 OA
ATOM     17  H   UNL     1       5.309   0.896  19.013  0.00  0.00    +0.000 HD
ENDBRANCH  15  16
ENDBRANCH   7  15
TORSDOF 6
ENDMDL
MODEL 4
REMARK VINA RESULT:      -6.0      1.371      1.991
REMARK  Name = 
REMARK  10 active torsions:
REMARK  status: ('A' for Active; 'I' for Inactive)
REMARK    1  A    between atoms: C_1  and  C_2
REMARK    2  A    between atoms: N_6  and  C_7
REMARK    3  A    between atoms: C_7  and  C_8
REMARK    4  A    between atoms: C_8  and  O_9
REMARK    5  A    between atoms: O_9  and  C_10
REMARK    6  A    between atoms: C_10  and  C_11
REMARK    7  A    between atoms: C_10  and  C_12
REMARK    8  A    between atoms: C_10  and  C_13
REMARK    9  A    between atoms: C_14  and  C_15
REMARK   10  A    between atoms: C_15  and  O_16
REMARK                            x       y       z     vdW  Elec       q    Type
REMARK                         _______ _______ _______ _____ _____    ______ ____
ROOT
ATOM      1  C   UNL     1       1.872   5.508  20.472  0.00  0.00    +0.000 C 
ATOM      2  C   UNL     1       2.207   4.049  20.813  0.00  0.00    +0.000 C 
ATOM      3  C   UNL     1       0.958   3.161  20.745  0.00  0.00    +0.000 C 
ATOM      4  C   UNL     1       0.504   2.942  19.306  0.00  0.00    +0.000 C 
ATOM      5  C   UNL     1       1.648   2.487  18.399  0.00  0.00    +0.000 C 
ATOM      6  N   UNL     1       2.814   3.372  18.496  0.00  0.00    +0.000 NA
ATOM      7  C   UNL     1       3.326   3.498  19.884  0.00  0.00    +0.000 C 
ENDROOT
BRANCH   6   8
ATOM      8  C   UNL     1       3.881   3.044  17.535  0.00  0.00    +0.000 C 
BRANCH   8   9
ATOM      9  C   UNL     1       4.427   4.210  16.685  0.00  0.00    +0.000 C 
BRANCH   9  10
ATOM     10  O   UNL     1       5.796   4.483  16.986  0.00  0.00    +0.000 OA
BRANCH  10  11
ATOM     11  C   UNL     1       6.059   5.689  17.722  0.00  0.00    +0.000 C 
ATOM     12  C   UNL     1       7.274   6.436  17.155  0.00  0.00    +0.000 C 
ATOM     13  C   UNL     1       4.820   6.579  17.544  0.00  0.00    +0.000 C 
ATOM     14  C   UNL     1       6.237   5.405  19.220  0.00  0.00    +0.000 C 
ENDBRANCH  10  11
ENDBRANCH   9  10
ENDBRANCH   8   9
ENDBRANCH   6   8
BRANCH   7  15
ATOM     15  C   UNL     1       3.973   2.207  20.466  0.00  0.00    +0.000 C 
BRANCH  15  16
ATOM     16  O   UNL     1       5.289   1.987  19.949  0.00  0.00    +0.000 OA
ATOM     17  H   UNL     1       5.191   1.713  19.024  0.00  0.00    +0.000 HD
ENDBRANCH  15  16
ENDBRANCH   7  15
TORSDOF 6
ENDMDL
MODEL 5
REMARK VINA RESULT:      -6.0      1.701      2.246
REMARK  Name = 
REMARK  10 active torsions:
REMARK  status: ('A' for Active; 'I' for Inactive)
REMARK    1  A    between atoms: C_1  and  C_2
REMARK    2  A    between atoms: N_6  and  C_7
REMARK    3  A    between atoms: C_7  and  C_8
REMARK    4  A    between atoms: C_8  and  O_9
REMARK    5  A    between atoms: O_9  and  C_10
REMARK    6  A    between atoms: C_10  and  C_11
REMARK    7  A    between atoms: C_10  and  C_12
REMARK    8  A    between atoms: C_10  and  C_13
REMARK    9  A    between atoms: C_14  and  C_15
REMARK   10  A    between atoms: C_15  and  O_16
REMARK                            x       y       z     vdW  Elec       q    Type
REMARK                         _______ _______ _______ _____ _____    ______ ____
ROOT
ATOM      1  C   UNL     1       1.739   2.449  21.727  0.00  0.00    +0.000 C 
ATOM      2  C   UNL     1       1.528   2.860  20.263  0.00  0.00    +0.000 C 
ATOM      3  C   UNL     1       0.883   4.249  20.163  0.00  0.00    +0.000 C 
ATOM      4  C   UNL     1       1.863   5.351  20.553  0.00  0.00    +0.000 C 
ATOM      5  C   UNL     1       3.199   5.225  19.820  0.00  0.00    +0.000 C 
ATOM      6  N   UNL     1       3.776   3.882  19.951  0.00  0.00    +0.000 NA
ATOM      7  C   UNL     1       2.863   2.815  19.469  0.00  0.00    +0.000 C 
ENDROOT
BRANCH   6   8
ATOM      8  C   UNL     1       5.127   3.765  19.376  0.00  0.00    +0.000 C 
BRANCH   8   9
ATOM      9  C   UNL     1       5.606   4.938  18.495  0.00  0.00    +0.000 C 
BRANCH   9  10
ATOM     10  O   UNL     1       5.875   4.515  17.158  0.00  0.00    +0.000 OA
BRANCH  10  11
ATOM     11  C   UNL     1       6.305   5.535  16.242  0.00  0.00    +0.000 C 
ATOM     12  C   UNL     1       5.129   6.407  15.784  0.00  0.00    +0.000 C 
ATOM     13  C   UNL     1       7.290   6.423  17.018  0.00  0.00    +0.000 C 
ATOM     14  C   UNL     1       7.045   4.934  15.039  0.00  0.00    +0.000 C 
ENDBRANCH  10  11
ENDBRANCH   9  10
ENDBRANCH   8   9
ENDBRANCH   6   8
BRANCH   7  15
ATOM     15  C   UNL     1       2.619   2.805  17.931  0.00  0.00    +0.000 C 
BRANCH  15  16
ATOM     16  O   UNL     1       1.775   1.722  17.529  0.00  0.00    +0.000 OA
ATOM     17  H   UNL     1       1.407   1.330  18.337  0.00  0.00    +0.000 HD
ENDBRANCH  15  16
ENDBRANCH   7  15
TORSDOF 6
ENDMDL
MODEL 6
REMARK VINA RESULT:      -5.9      1.052      1.289
REMARK  Name = 
REMARK  10 active torsions:
REMARK  status: ('A' for Active; 'I' for Inactive)
REMARK    1  A    between atoms: C_1  and  C_2
REMARK    2  A    between atoms: N_6  and  C_7
REMARK    3  A    between atoms: C_7  and  C_8
REMARK    4  A    between atoms: C_8  and  O_9
REMARK    5  A    between atoms: O_9  and  C_10
REMARK    6  A    between atoms: C_10  and  C_11
REMARK    7  A    between atoms: C_10  and  C_12
REMARK    8  A    between atoms: C_10  and  C_13
REMARK    9  A    between atoms: C_14  and  C_15
REMARK   10  A    between atoms: C_15  and  O_16
REMARK                            x       y       z     vdW  Elec       q    Type
REMARK                         _______ _______ _______ _____ _____    ______ ____
ROOT
ATOM      1  C   UNL     1       1.139   3.865  20.878  0.00  0.00    +0.000 C 
ATOM      2  C   UNL     1       1.885   2.952  19.893  0.00  0.00    +0.000 C 
ATOM      3  C   UNL     1       1.247   3.001  18.498  0.00  0.00    +0.000 C 
ATOM      4  C   UNL     1       1.520   4.330  17.803  0.00  0.00    +0.000 C 
ATOM      5  C   UNL     1       3.003   4.704  17.829  0.00  0.00    +0.000 C 
ATOM      6  N   UNL     1       3.563   4.648  19.184  0.00  0.00    +0.000 NA
ATOM      7  C   UNL     1       3.394   3.318  19.821  0.00  0.00    +0.000 C 
ENDROOT
BRANCH   6   8
ATOM      8  C   UNL     1       4.951   5.136  19.266  0.00  0.00    +0.000 C 
BRANCH   8   9
ATOM      9  C   UNL     1       5.485   5.907  18.041  0.00  0.00    +0.000 C 
BRANCH   9  10
ATOM     10  O   UNL     1       6.447   5.142  17.316  0.00  0.00    +0.000 OA
BRANCH  10  11
ATOM     11  C   UNL     1       6.218   5.000  15.905  0.00  0.00    +0.000 C 
ATOM     12  C   UNL     1       7.536   5.011  15.120  0.00  0.00    +0.000 C 
ATOM     13  C   UNL     1       5.555   3.627  15.714  0.00  0.00    +0.000 C 
ATOM     14  C   UNL     1       5.256   6.075  15.381  0.00  0.00    +0.000 C 
ENDBRANCH  10  11
ENDBRANCH   9  10
ENDBRANCH   8   9
ENDBRANCH   6   8
BRANCH   7  15
ATOM     15  C   UNL     1       4.234   2.173  19.184  0.00  0.00    +0.000 C 
BRANCH  15  16
ATOM     16  O   UNL     1       5.148   1.593  20.119  0.00  0.00    +0.000 OA
ATOM     17  H   UNL     1       4.629   1.036  20.719  0.00  0.00    +0.000 HD
ENDBRANCH  15  16
ENDBRANCH   7  15
TORSDOF 6
ENDMDL
MODEL 7
REMARK VINA RESULT:      -5.9      1.352      1.754
REMARK  Name = 
REMARK  10 active torsions:
REMARK  status: ('A' for Active; 'I' for Inactive)
REMARK    1  A    between atoms: C_1  and  C_2
REMARK    2  A    between atoms: N_6  and  C_7
REMARK    3  A    between atoms: C_7  and  C_8
REMARK    4  A    between atoms: C_8  and  O_9
REMARK    5  A    between atoms: O_9  and  C_10
REMARK    6  A    between atoms: C_10  and  C_11
REMARK    7  A    between atoms: C_10  and  C_12
REMARK    8  A    between atoms: C_10  and  C_13
REMARK    9  A    between atoms: C_14  and  C_15
REMARK   10  A    between atoms: C_15  and  O_16
REMARK                            x       y       z     vdW  Elec       q    Type
REMARK                         _______ _______ _______ _____ _____    ______ ____
ROOT
ATOM      1  C   UNL     1       1.383   3.182  20.977  0.00  0.00    +0.000 C 
ATOM      2  C   UNL     1       1.692   2.472  19.651  0.00  0.00    +0.000 C 
ATOM      3  C   UNL     1       0.923   3.111  18.487  0.00  0.00    +0.000 C 
ATOM      4  C   UNL     1       1.485   4.482  18.128  0.00  0.00    +0.000 C 
ATOM      5  C   UNL     1       3.003   4.455  17.939  0.00  0.00    +0.000 C 
ATOM      6  N   UNL     1       3.691   3.841  19.080  0.00  0.00    +0.000 NA
ATOM      7  C   UNL     1       3.220   2.462  19.362  0.00  0.00    +0.000 C 
ENDROOT
BRANCH   6   8
ATOM      8  C   UNL     1       5.159   3.925  18.994  0.00  0.00    +0.000 C 
BRANCH   8   9
ATOM      9  C   UNL     1       5.735   4.994  18.043  0.00  0.00    +0.000 C 
BRANCH   9  10
ATOM     10  O   UNL     1       6.446   4.402  16.955  0.00  0.00    +0.000 OA
BRANCH  10  11
ATOM     11  C   UNL     1       6.114   4.881  15.641  0.00  0.00    +0.000 C 
ATOM     12  C   UNL     1       5.167   3.915  14.917  0.00  0.00    +0.000 C 
ATOM     13  C   UNL     1       5.379   6.215  15.843  0.00  0.00    +0.000 C 
ATOM     14  C   UNL     1       7.374   5.148  14.806  0.00  0.00    +0.000 C 
ENDBRANCH  10  11
ENDBRANCH   9  10
ENDBRANCH   8   9
ENDBRANCH   6   8
BRANCH   7  15
ATOM     15  C   UNL     1       3.594   1.407  18.280  0.00  0.00    +0.000 C 
BRANCH  15  16
ATOM     16  O   UNL     1       4.517   0.433  18.778  0.00  0.00    +0.000 OA
ATOM     17  H   UNL     1       4.756   0.699  19.679  0.00  0.00    +0.000 HD
ENDBRANCH  15  16
ENDBRANCH   7  15
TORSDOF 6
ENDMDL
MODEL 8
REMARK VINA RESULT:      -5.9      1.667      1.885
REMARK  Name = 
REMARK  10 active torsions:
REMARK  status: ('A' for Active; 'I' for Inactive)
REMARK    1  A    between atoms: C_1  and  C_2
REMARK    2  A    between atoms: N_6  and  C_7
REMARK    3  A    between atoms: C_7  and  C_8
REMARK    4  A    between atoms: C_8  and  O_9
REMARK    5  A    between atoms: O_9  and  C_10
REMARK    6  A    between atoms: C_10  and  C_11
REMARK    7  A    between atoms: C_10  and  C_12
REMARK    8  A    between atoms: C_10  and  C_13
REMARK    9  A    between atoms: C_14  and  C_15
REMARK   10  A    between atoms: C_15  and  O_16
REMARK                            x       y       z     vdW  Elec       q    Type
REMARK                         _______ _______ _______ _____ _____    ______ ____
ROOT
ATOM      1  C   UNL     1       2.210   2.496  21.800  0.00  0.00    +0.000 C 
ATOM      2  C   UNL     1       1.771   2.764  20.353  0.00  0.00    +0.000 C 
ATOM      3  C   UNL     1       0.852   3.990  20.269  0.00  0.00    +0.000 C 
ATOM      4  C   UNL     1       1.623   5.285  20.500  0.00  0.00    +0.000 C 
ATOM      5  C   UNL     1       2.875   5.378  19.627  0.00  0.00    +0.000 C 
ATOM      6  N   UNL     1       3.722   4.187  19.748  0.00  0.00    +0.000 NA
ATOM      7  C   UNL     1       3.000   2.933  19.416  0.00  0.00    +0.000 C 
ENDROOT
BRANCH   6   8
ATOM      8  C   UNL     1       5.003   4.302  19.029  0.00  0.00    +0.000 C 
BRANCH   8   9
ATOM      9  C   UNL     1       5.033   5.261  17.821  0.00  0.00    +0.000 C 
BRANCH   9  10
ATOM     10  O   UNL     1       5.736   6.466  18.124  0.00  0.00    +0.000 OA
BRANCH  10  11
ATOM     11  C   UNL     1       7.142   6.476  17.823  0.00  0.00    +0.000 C 
ATOM     12  C   UNL     1       7.964   5.882  18.974  0.00  0.00    +0.000 C 
ATOM     13  C   UNL     1       7.323   5.581  16.588  0.00  0.00    +0.000 C 
ATOM     14  C   UNL     1       7.630   7.888  17.469  0.00  0.00    +0.000 C 
ENDBRANCH  10  11
ENDBRANCH   9  10
ENDBRANCH   8   9
ENDBRANCH   6   8
BRANCH   7  15
ATOM     15  C   UNL     1       2.607   2.778  17.918  0.00  0.00    +0.000 C 
BRANCH  15  16
ATOM     16  O   UNL     1       1.774   1.636  17.697  0.00  0.00    +0.000 OA
ATOM     17  H   UNL     1       1.824   1.086  18.494  0.00  0.00    +0.000 HD
ENDBRANCH  15  16
ENDBRANCH   7  15
TORSDOF 6
ENDMDL
MODEL 9
REMARK VINA RESULT:      -5.9      1.880      5.539
REMARK  Name = 
REMARK  10 active torsions:
REMARK  status: ('A' for Active; 'I' for Inactive)
REMARK    1  A    between atoms: C_1  and  C_2
REMARK    2  A    between atoms: N_6  and  C_7
REMARK    3  A    between atoms: C_7  and  C_8
REMARK    4  A    between atoms: C_8  and  O_9
REMARK    5  A    between atoms: O_9  and  C_10
REMARK    6  A    between atoms: C_10  and  C_11
REMARK    7  A    between atoms: C_10  and  C_12
REMARK    8  A    between atoms: C_10  and  C_13
REMARK    9  A    between atoms: C_14  and  C_15
REMARK   10  A    between atoms: C_15  and  O_16
REMARK                            x       y       z     vdW  Elec       q    Type
REMARK                         _______ _______ _______ _____ _____    ______ ____
ROOT
ATOM      1  C   UNL     1       7.515   7.731  17.475  0.00  0.00    +0.000 C 
ATOM      2  C   UNL     1       7.211   6.275  17.094  0.00  0.00    +0.000 C 
ATOM      3  C   UNL     1       7.687   5.305  18.183  0.00  0.00    +0.000 C 
ATOM      4  C   UNL     1       6.809   5.384  19.427  0.00  0.00    +0.000 C 
ATOM      5  C   UNL     1       5.320   5.275  19.095  0.00  0.00    +0.000 C 
ATOM      6  N   UNL     1       4.916   6.226  18.054  0.00  0.00    +0.000 NA
ATOM      7  C   UNL     1       5.698   6.075  16.801  0.00  0.00    +0.000 C 
ENDROOT
BRANCH   6   8
ATOM      8  C   UNL     1       3.463   6.244  17.808  0.00  0.00    +0.000 C 
BRANCH   8   9
ATOM      9  C   UNL     1       2.574   5.570  18.874  0.00  0.00    +0.000 C 
BRANCH   9  10
ATOM     10  O   UNL     1       1.809   4.500  18.319  0.00  0.00    +0.000 OA
BRANCH  10  11
ATOM     11  C   UNL     1       2.078   3.187  18.838  0.00  0.00    +0.000 C 
ATOM     12  C   UNL     1       2.519   3.246  20.306  0.00  0.00    +0.000 C 
ATOM     13  C   UNL     1       0.751   2.416  18.764  0.00  0.00    +0.000 C 
ATOM     14  C   UNL     1       3.114   2.446  17.981  0.00  0.00    +0.000 C 
ENDBRANCH  10  11
ENDBRANCH   9  10
ENDBRANCH   8   9
ENDBRANCH   6   8
BRANCH   7  15
ATOM     15  C   UNL     1       5.432   4.757  16.016  0.00  0.00    +0.000 C 
BRANCH  15  16
ATOM     16  O   UNL     1       6.458   4.489  15.056  0.00  0.00    +0.000 OA
ATOM     17  H   UNL     1       6.043   4.507  14.180  0.00  0.00    +0.000 HD
ENDBRANCH  15  16
ENDBRANCH   7  15
TORSDOF 6
ENDMDL
