MODEL 1
REMARK VINA RESULT:      -8.1      0.000      0.000
REMARK  Name = 
REMARK  4 active torsions:
REMARK  status: ('A' for Active; 'I' for Inactive)
REMARK    1  A    between atoms: C_1  and  O_2
REMARK    2  A    between atoms: O_2  and  C_3
REMARK    3  A    between atoms: C_8  and  N_9
REMARK    4  A    between atoms: C_10  and  C_12
REMARK                            x       y       z     vdW  Elec       q    Type
REMARK                         _______ _______ _______ _____ _____    ______ ____
ROOT
ATOM      1  C   UNL     1       3.039   5.158  18.474  0.00  0.00    +0.000 A 
ATOM      2  C   UNL     1       2.633   4.510  19.639  0.00  0.00    +0.000 A 
ATOM      3  C   UNL     1       1.987   5.236  20.664  0.00  0.00    +0.000 A 
ATOM      4  C   UNL     1       1.747   6.613  20.507  0.00  0.00    +0.000 A 
ATOM      5  C   UNL     1       1.215   7.618  21.314  0.00  0.00    +0.000 A 
ATOM      6  C   UNL     1       1.260   8.836  20.660  0.00  0.00    +0.000 A 
ATOM      7  N   UNL     1       1.761   8.540  19.391  0.00  0.00    +0.000 N 
ATOM      8  C   UNL     1       2.129   7.212  19.317  0.00  0.00    +0.000 A 
ATOM      9  C   UNL     1       2.768   6.520  18.298  0.00  0.00    +0.000 A 
ATOM     10  C   UNL     1       1.923   9.366  18.252  0.00  0.00    +0.000 C 
ATOM     11  C   UNL     1       1.513  10.797  18.314  0.00  0.00    +0.000 C 
ATOM     12  C   UNL     1       1.161  11.810  19.362  0.00  0.00    +0.000 C 
ATOM     13  N   UNL     1       0.771  11.323  20.624  0.00  0.00    +0.000 N 
ATOM     14  C   UNL     1       0.820  10.112  21.208  0.00  0.00    +0.000 C 
ATOM     15  O   UNL     1       0.432  10.119  22.388  0.00  0.00    +0.000 OA
ATOM     16  H   UNL     1       0.454  12.049  21.293  0.00  0.00    +0.000 HD
ENDROOT
BRANCH   1  18
ATOM     17  N   UNL     1       4.583   5.387  16.551  0.00  0.00    +0.000 N 
ATOM     18  C   UNL     1       3.907   4.552  17.430  0.00  0.00    +0.000 C 
ATOM     19  O   UNL     1       4.008   3.330  17.470  0.00  0.00    +0.000 OA
ATOM     20  H   UNL     1       4.601   6.387  16.727  0.00  0.00    +0.000 HD
BRANCH  17  26
ATOM     21  C   UNL     1       6.806   5.117  15.548  0.00  0.00    +0.000 A 
ATOM     22  C   UNL     1       7.611   4.743  14.457  0.00  0.00    +0.000 A 
ATOM     23  C   UNL     1       7.055   4.134  13.334  0.00  0.00    +0.000 A 
ATOM     24  C   UNL     1       5.689   3.907  13.283  0.00  0.00    +0.000 A 
ATOM     25  C   UNL     1       4.877   4.322  14.339  0.00  0.00    +0.000 A 
ATOM     26  C   UNL     1       5.408   4.939  15.481  0.00  0.00    +0.000 A 
BRANCH  21  28
ATOM     27  C   UNL     1       7.670   4.689  17.705  0.00  0.00    +0.000 C 
ATOM     28  O   UNL     1       7.325   5.654  16.706  0.00  0.00    +0.000 OA
ENDBRANCH  21  28
ENDBRANCH  17  26
ENDBRANCH   1  18
TORSDOF 3
ENDMDL
MODEL 2
REMARK VINA RESULT:      -8.1      3.037      8.140
REMARK  Name = 
REMARK  4 active torsions:
REMARK  status: ('A' for Active; 'I' for Inactive)
REMARK    1  A    between atoms: C_1  and  O_2
REMARK    2  A    between atoms: O_2  and  C_3
REMARK    3  A    between atoms: C_8  and  N_9
REMARK    4  A    between atoms: C_10  and  C_12
REMARK                            x       y       z     vdW  Elec       q    Type
REMARK                         _______ _______ _______ _____ _____    ______ ____
ROOT
ATOM      1  C   UNL     1       2.613   8.110  17.979  0.00  0.00    +0.000 A 
ATOM      2  C   UNL     1       3.769   7.942  17.221  0.00  0.00    +0.000 A 
ATOM      3  C   UNL     1       4.529   6.757  17.342  0.00  0.00    +0.000 A 
ATOM      4  C   UNL     1       4.115   5.743  18.225  0.00  0.00    +0.000 A 
ATOM      5  C   UNL     1       4.640   4.517  18.632  0.00  0.00    +0.000 A 
ATOM      6  C   UNL     1       3.822   3.935  19.584  0.00  0.00    +0.000 A 
ATOM      7  N   UNL     1       2.731   4.799  19.692  0.00  0.00    +0.000 N 
ATOM      8  C   UNL     1       2.937   5.932  18.931  0.00  0.00    +0.000 A 
ATOM      9  C   UNL     1       2.178   7.088  18.831  0.00  0.00    +0.000 A 
ATOM     10  C   UNL     1       1.526   4.669  20.426  0.00  0.00    +0.000 C 
ATOM     11  C   UNL     1       1.285   3.444  21.237  0.00  0.00    +0.000 C 
ATOM     12  C   UNL     1       2.076   2.286  21.767  0.00  0.00    +0.000 C 
ATOM     13  N   UNL     1       3.304   2.003  21.140  0.00  0.00    +0.000 N 
ATOM     14  C   UNL     1       4.071   2.666  20.257  0.00  0.00    +0.000 C 
ATOM     15  O   UNL     1       5.141   2.091  20.003  0.00  0.00    +0.000 OA
ATOM     16  H   UNL     1       3.779   1.145  21.479  0.00  0.00    +0.000 HD
ENDROOT
BRANCH   1  18
ATOM     17  N   UNL     1       0.773   9.448  18.958  0.00  0.00    +0.000 N 
ATOM     18  C   UNL     1       1.858   9.385  18.095  0.00  0.00    +0.000 C 
ATOM     19  O   UNL     1       2.305  10.326  17.446  0.00  0.00    +0.000 OA
ATOM     20  H   UNL     1       0.606   8.684  19.607  0.00  0.00    +0.000 HD
BRANCH  17  26
ATOM     21  C   UNL     1      -1.141  10.811  18.248  0.00  0.00    +0.000 A 
ATOM     22  C   UNL     1      -1.915  11.979  18.372  0.00  0.00    +0.000 A 
ATOM     23  C   UNL     1      -1.677  12.889  19.400  0.00  0.00    +0.000 A 
ATOM     24  C   UNL     1      -0.653  12.651  20.302  0.00  0.00    +0.000 A 
ATOM     25  C   UNL     1       0.154  11.522  20.154  0.00  0.00    +0.000 A 
ATOM     26  C   UNL     1      -0.062  10.589  19.130  0.00  0.00    +0.000 A 
BRANCH  21  28
ATOM     27  C   UNL     1      -2.467  10.166  16.403  0.00  0.00    +0.000 C 
ATOM     28  O   UNL     1      -1.390   9.851  17.292  0.00  0.00    +0.000 OA
ENDBRANCH  21  28
ENDBRANCH  17  26
ENDBRANCH   1  18
TORSDOF 3
ENDMDL
MODEL 3
REMARK VINA RESULT:      -8.0      2.920      9.105
REMARK  Name = 
REMARK  4 active torsions:
REMARK  status: ('A' for Active; 'I' for Inactive)
REMARK    1  A    between atoms: C_1  and  O_2
REMARK    2  A    between atoms: O_2  and  C_3
REMARK    3  A    between atoms: C_8  and  N_9
REMARK    4  A    between atoms: C_10  and  C_12
REMARK                            x       y       z     vdW  Elec       q    Type
REMARK                         _______ _______ _______ _____ _____    ______ ____
ROOT
ATOM      1  C   UNL     1       1.350   8.880  20.033  0.00  0.00    +0.000 A 
ATOM      2  C   UNL     1       1.672   9.226  18.722  0.00  0.00    +0.000 A 
ATOM      3  C   UNL     1       2.293   8.284  17.874  0.00  0.00    +0.000 A 
ATOM      4  C   UNL     1       2.583   6.991  18.349  0.00  0.00    +0.000 A 
ATOM      5  C   UNL     1       3.228   5.872  17.827  0.00  0.00    +0.000 A 
ATOM      6  C   UNL     1       3.276   4.860  18.768  0.00  0.00    +0.000 A 
ATOM      7  N   UNL     1       2.566   5.358  19.862  0.00  0.00    +0.000 N 
ATOM      8  C   UNL     1       2.210   6.674  19.646  0.00  0.00    +0.000 A 
ATOM      9  C   UNL     1       1.603   7.584  20.498  0.00  0.00    +0.000 A 
ATOM     10  C   UNL     1       2.189   4.730  21.075  0.00  0.00    +0.000 C 
ATOM     11  C   UNL     1       2.552   3.306  21.313  0.00  0.00    +0.000 C 
ATOM     12  C   UNL     1       3.477   2.280  20.729  0.00  0.00    +0.000 C 
ATOM     13  N   UNL     1       3.940   2.501  19.418  0.00  0.00    +0.000 N 
ATOM     14  C   UNL     1       3.902   3.556  18.585  0.00  0.00    +0.000 C 
ATOM     15  O   UNL     1       4.501   3.361  17.515  0.00  0.00    +0.000 OA
ATOM     16  H   UNL     1       4.507   1.729  19.020  0.00  0.00    +0.000 HD
ENDROOT
BRANCH   1  18
ATOM     17  N   UNL     1      -0.078  10.774  20.743  0.00  0.00    +0.000 N 
ATOM     18  C   UNL     1       0.895   9.841  21.072  0.00  0.00    +0.000 C 
ATOM     19  O   UNL     1       1.385   9.686  22.187  0.00  0.00    +0.000 OA
ATOM     20  H   UNL     1      -0.572  10.691  19.860  0.00  0.00    +0.000 HD
BRANCH  17  26
ATOM     21  C   UNL     1      -0.040  13.085  21.572  0.00  0.00    +0.000 A 
ATOM     22  C   UNL     1      -0.472  14.051  22.498  0.00  0.00    +0.000 A 
ATOM     23  C   UNL     1      -1.469  13.759  23.426  0.00  0.00    +0.000 A 
ATOM     24  C   UNL     1      -2.031  12.493  23.451  0.00  0.00    +0.000 A 
ATOM     25  C   UNL     1      -1.572  11.512  22.571  0.00  0.00    +0.000 A 
ATOM     26  C   UNL     1      -0.569  11.777  21.627  0.00  0.00    +0.000 A 
BRANCH  21  28
ATOM     27  C   UNL     1       0.432  14.248  19.571  0.00  0.00    +0.000 C 
ATOM     28  O   UNL     1       0.890  13.355  20.592  0.00  0.00    +0.000 OA
ENDBRANCH  21  28
ENDBRANCH  17  26
ENDBRANCH   1  18
TORSDOF 3
ENDMDL
MODEL 4
REMARK VINA RESULT:      -8.0      2.812      4.383
REMARK  Name = 
REMARK  4 active torsions:
REMARK  status: ('A' for Active; 'I' for Inactive)
REMARK    1  A    between atoms: C_1  and  O_2
REMARK    2  A    between atoms: O_2  and  C_3
REMARK    3  A    between atoms: C_8  and  N_9
REMARK    4  A    between atoms: C_10  and  C_12
REMARK                            x       y       z     vdW  Elec       q    Type
REMARK                         _______ _______ _______ _____ _____    ______ ____
ROOT
ATOM      1  C   UNL     1       1.960   8.072  19.213  0.00  0.00    +0.000 A 
ATOM      2  C   UNL     1       2.328   8.798  18.082  0.00  0.00    +0.000 A 
ATOM      3  C   UNL     1       1.884  10.129  17.921  0.00  0.00    +0.000 A 
ATOM      4  C   UNL     1       1.075  10.726  18.905  0.00  0.00    +0.000 A 
ATOM      5  C   UNL     1       0.424  11.952  19.034  0.00  0.00    +0.000 A 
ATOM      6  C   UNL     1      -0.294  11.995  20.216  0.00  0.00    +0.000 A 
ATOM      7  N   UNL     1       0.000  10.789  20.854  0.00  0.00    +0.000 N 
ATOM      8  C   UNL     1       0.765   9.984  20.034  0.00  0.00    +0.000 A 
ATOM      9  C   UNL     1       1.187   8.674  20.212  0.00  0.00    +0.000 A 
ATOM     10  C   UNL     1      -0.356  10.321  22.143  0.00  0.00    +0.000 C 
ATOM     11  C   UNL     1      -1.167  11.187  23.044  0.00  0.00    +0.000 C 
ATOM     12  C   UNL     1      -2.007  12.425  22.939  0.00  0.00    +0.000 C 
ATOM     13  N   UNL     1      -1.796  13.255  21.822  0.00  0.00    +0.000 N 
ATOM     14  C   UNL     1      -1.120  13.106  20.669  0.00  0.00    +0.000 C 
ATOM     15  O   UNL     1      -1.244  14.071  19.897  0.00  0.00    +0.000 OA
ATOM     16  H   UNL     1      -2.334  14.142  21.830  0.00  0.00    +0.000 HD
ENDROOT
BRANCH   1  18
ATOM     17  N   UNL     1       2.749   5.890  18.348  0.00  0.00    +0.000 N 
ATOM     18  C   UNL     1       2.186   6.614  19.390  0.00  0.00    +0.000 C 
ATOM     19  O   UNL     1       1.905   6.165  20.498  0.00  0.00    +0.000 OA
ATOM     20  H   UNL     1       3.139   6.383  17.551  0.00  0.00    +0.000 HD
BRANCH  17  26
ATOM     21  C   UNL     1       4.165   3.972  18.932  0.00  0.00    +0.000 A 
ATOM     22  C   UNL     1       4.423   2.590  18.882  0.00  0.00    +0.000 A 
ATOM     23  C   UNL     1       3.487   1.708  18.346  0.00  0.00    +0.000 A 
ATOM     24  C   UNL     1       2.295   2.198  17.839  0.00  0.00    +0.000 A 
ATOM     25  C   UNL     1       2.054   3.572  17.838  0.00  0.00    +0.000 A 
ATOM     26  C   UNL     1       2.977   4.484  18.369  0.00  0.00    +0.000 A 
BRANCH  21  28
ATOM     27  C   UNL     1       6.230   5.109  18.776  0.00  0.00    +0.000 C 
ATOM     28  O   UNL     1       5.031   4.869  19.519  0.00  0.00    +0.000 OA
ENDBRANCH  21  28
ENDBRANCH  17  26
ENDBRANCH   1  18
TORSDOF 3
ENDMDL
MODEL 5
REMARK VINA RESULT:      -7.9      2.864      8.116
REMARK  Name = 
REMARK  4 active torsions:
REMARK  status: ('A' for Active; 'I' for Inactive)
REMARK    1  A    between atoms: C_1  and  O_2
REMARK    2  A    between atoms: O_2  and  C_3
REMARK    3  A    between atoms: C_8  and  N_9
REMARK    4  A    between atoms: C_10  and  C_12
REMARK                            x       y       z     vdW  Elec       q    Type
REMARK                         _______ _______ _______ _____ _____    ______ ____
ROOT
ATOM      1  C   UNL     1       2.514   8.186  18.079  0.00  0.00    +0.000 A 
ATOM      2  C   UNL     1       3.641   8.037  17.273  0.00  0.00    +0.000 A 
ATOM      3  C   UNL     1       4.406   6.851  17.338  0.00  0.00    +0.000 A 
ATOM      4  C   UNL     1       4.028   5.817  18.214  0.00  0.00    +0.000 A 
ATOM      5  C   UNL     1       4.569   4.584  18.573  0.00  0.00    +0.000 A 
ATOM      6  C   UNL     1       3.790   3.978  19.542  0.00  0.00    +0.000 A 
ATOM      7  N   UNL     1       2.703   4.838  19.712  0.00  0.00    +0.000 N 
ATOM      8  C   UNL     1       2.878   5.988  18.969  0.00  0.00    +0.000 A 
ATOM      9  C   UNL     1       2.114   7.144  18.924  0.00  0.00    +0.000 A 
ATOM     10  C   UNL     1       1.527   4.689  20.489  0.00  0.00    +0.000 C 
ATOM     11  C   UNL     1       1.319   3.445  21.281  0.00  0.00    +0.000 C 
ATOM     12  C   UNL     1       2.131   2.277  21.754  0.00  0.00    +0.000 C 
ATOM     13  N   UNL     1       3.335   2.011  21.074  0.00  0.00    +0.000 N 
ATOM     14  C   UNL     1       4.066   2.695  20.176  0.00  0.00    +0.000 C 
ATOM     15  O   UNL     1       5.127   2.128  19.869  0.00  0.00    +0.000 OA
ATOM     16  H   UNL     1       3.824   1.147  21.375  0.00  0.00    +0.000 HD
ENDROOT
BRANCH   1  18
ATOM     17  N   UNL     1       0.731   9.506  19.180  0.00  0.00    +0.000 N 
ATOM     18  C   UNL     1       1.762   9.456  18.252  0.00  0.00    +0.000 C 
ATOM     19  O   UNL     1       2.166  10.405  17.586  0.00  0.00    +0.000 OA
ATOM     20  H   UNL     1       0.608   8.736  19.830  0.00  0.00    +0.000 HD
BRANCH  17  26
ATOM     21  C   UNL     1      -0.124  11.242  20.690  0.00  0.00    +0.000 A 
ATOM     22  C   UNL     1      -0.999  12.314  20.938  0.00  0.00    +0.000 A 
ATOM     23  C   UNL     1      -1.789  12.843  19.919  0.00  0.00    +0.000 A 
ATOM     24  C   UNL     1      -1.726  12.294  18.649  0.00  0.00    +0.000 A 
ATOM     25  C   UNL     1      -0.901  11.196  18.408  0.00  0.00    +0.000 A 
ATOM     26  C   UNL     1      -0.095  10.642  19.413  0.00  0.00    +0.000 A 
BRANCH  21  28
ATOM     27  C   UNL     1       0.095   9.894  22.618  0.00  0.00    +0.000 C 
ATOM     28  O   UNL     1       0.726  10.738  21.650  0.00  0.00    +0.000 OA
ENDBRANCH  21  28
ENDBRANCH  17  26
ENDBRANCH   1  18
TORSDOF 3
ENDMDL
MODEL 6
REMARK VINA RESULT:      -7.9      2.940      4.674
REMARK  Name = 
REMARK  4 active torsions:
REMARK  status: ('A' for Active; 'I' for Inactive)
REMARK    1  A    between atoms: C_1  and  O_2
REMARK    2  A    between atoms: O_2  and  C_3
REMARK    3  A    between atoms: C_8  and  N_9
REMARK    4  A    between atoms: C_10  and  C_12
REMARK                            x       y       z     vdW  Elec       q    Type
REMARK                         _______ _______ _______ _____ _____    ______ ____
ROOT
ATOM      1  C   UNL     1       2.286   7.820  18.886  0.00  0.00    +0.000 A 
ATOM      2  C   UNL     1       2.356   8.611  17.742  0.00  0.00    +0.000 A 
ATOM      3  C   UNL     1       1.657   9.837  17.686  0.00  0.00    +0.000 A 
ATOM      4  C   UNL     1       0.894  10.264  18.788  0.00  0.00    +0.000 A 
ATOM      5  C   UNL     1       0.053  11.346  19.044  0.00  0.00    +0.000 A 
ATOM      6  C   UNL     1      -0.492  11.244  20.311  0.00  0.00    +0.000 A 
ATOM      7  N   UNL     1       0.103  10.108  20.864  0.00  0.00    +0.000 N 
ATOM      8  C   UNL     1       0.883   9.468  19.923  0.00  0.00    +0.000 A 
ATOM      9  C   UNL     1       1.559   8.258  19.999  0.00  0.00    +0.000 A 
ATOM     10  C   UNL     1       0.018   9.572  22.172  0.00  0.00    +0.000 C 
ATOM     11  C   UNL     1      -0.807  10.263  23.201  0.00  0.00    +0.000 C 
ATOM     12  C   UNL     1      -1.866  11.323  23.251  0.00  0.00    +0.000 C 
ATOM     13  N   UNL     1      -1.966  12.188  22.144  0.00  0.00    +0.000 N 
ATOM     14  C   UNL     1      -1.439  12.178  20.907  0.00  0.00    +0.000 C 
ATOM     15  O   UNL     1      -1.842  13.109  20.192  0.00  0.00    +0.000 OA
ATOM     16  H   UNL     1      -2.652  12.958  22.254  0.00  0.00    +0.000 HD
ENDROOT
BRANCH   1  18
ATOM     17  N   UNL     1       2.251   5.453  18.159  0.00  0.00    +0.000 N 
ATOM     18  C   UNL     1       2.798   6.428  18.982  0.00  0.00    +0.000 C 
ATOM     19  O   UNL     1       3.732   6.260  19.760  0.00  0.00    +0.000 OA
ATOM     20  H   UNL     1       1.630   5.728  17.404  0.00  0.00    +0.000 HD
BRANCH  17  26
ATOM     21  C   UNL     1       2.095   3.225  19.178  0.00  0.00    +0.000 A 
ATOM     22  C   UNL     1       2.518   1.886  19.243  0.00  0.00    +0.000 A 
ATOM     23  C   UNL     1       3.393   1.365  18.292  0.00  0.00    +0.000 A 
ATOM     24  C   UNL     1       3.868   2.181  17.278  0.00  0.00    +0.000 A 
ATOM     25  C   UNL     1       3.495   3.524  17.236  0.00  0.00    +0.000 A 
ATOM     26  C   UNL     1       2.617   4.076  18.180  0.00  0.00    +0.000 A 
BRANCH  21  28
ATOM     27  C   UNL     1       1.248   3.231  21.383  0.00  0.00    +0.000 C 
ATOM     28  O   UNL     1       1.176   3.759  20.054  0.00  0.00    +0.000 OA
ENDBRANCH  21  28
ENDBRANCH  17  26
ENDBRANCH   1  18
TORSDOF 3
ENDMDL
MODEL 7
REMARK VINA RESULT:      -7.9      1.376      1.856
REMARK  Name = 
REMARK  4 active torsions:
REMARK  status: ('A' for Active; 'I' for Inactive)
REMARK    1  A    between atoms: C_1  and  O_2
REMARK    2  A    between atoms: O_2  and  C_3
REMARK    3  A    between atoms: C_8  and  N_9
REMARK    4  A    between atoms: C_10  and  C_12
REMARK                            x       y       z     vdW  Elec       q    Type
REMARK                         _______ _______ _______ _____ _____    ______ ____
ROOT
ATOM      1  C   UNL     1       2.287   6.539  19.218  0.00  0.00    +0.000 A 
ATOM      2  C   UNL     1       1.811   6.018  20.420  0.00  0.00    +0.000 A 
ATOM      3  C   UNL     1       1.175   6.864  21.355  0.00  0.00    +0.000 A 
ATOM      4  C   UNL     1       1.014   8.233  21.072  0.00  0.00    +0.000 A 
ATOM      5  C   UNL     1       0.512   9.330  21.769  0.00  0.00    +0.000 A 
ATOM      6  C   UNL     1       0.643  10.482  21.015  0.00  0.00    +0.000 A 
ATOM      7  N   UNL     1       1.166  10.050  19.794  0.00  0.00    +0.000 N 
ATOM      8  C   UNL     1       1.464   8.703  19.848  0.00  0.00    +0.000 A 
ATOM      9  C   UNL     1       2.096   7.893  18.916  0.00  0.00    +0.000 A 
ATOM     10  C   UNL     1       1.407  10.764  18.594  0.00  0.00    +0.000 C 
ATOM     11  C   UNL     1       1.073  12.213  18.518  0.00  0.00    +0.000 C 
ATOM     12  C   UNL     1       0.744  13.331  19.461  0.00  0.00    +0.000 C 
ATOM     13  N   UNL     1       0.290  12.978  20.747  0.00  0.00    +0.000 N 
ATOM     14  C   UNL     1       0.255  11.823  21.434  0.00  0.00    +0.000 C 
ATOM     15  O   UNL     1      -0.168  11.952  22.595  0.00  0.00    +0.000 OA
ATOM     16  H   UNL     1      -0.008  13.776  21.338  0.00  0.00    +0.000 HD
ENDROOT
BRANCH   1  18
ATOM     17  N   UNL     1       4.417   6.299  17.978  0.00  0.00    +0.000 N 
ATOM     18  C   UNL     1       3.153   5.801  18.262  0.00  0.00    +0.000 C 
ATOM     19  O   UNL     1       2.691   4.747  17.836  0.00  0.00    +0.000 OA
ATOM     20  H   UNL     1       4.790   7.061  18.535  0.00  0.00    +0.000 HD
BRANCH  17  26
ATOM     21  C   UNL     1       6.463   5.022  17.519  0.00  0.00    +0.000 A 
ATOM     22  C   UNL     1       7.399   4.516  16.601  0.00  0.00    +0.000 A 
ATOM     23  C   UNL     1       7.188   4.626  15.229  0.00  0.00    +0.000 A 
ATOM     24  C   UNL     1       6.049   5.260  14.760  0.00  0.00    +0.000 A 
ATOM     25  C   UNL     1       5.140   5.811  15.663  0.00  0.00    +0.000 A 
ATOM     26  C   UNL     1       5.327   5.716  17.050  0.00  0.00    +0.000 A 
BRANCH  21  28
ATOM     27  C   UNL     1       7.645   5.650  19.466  0.00  0.00    +0.000 C 
ATOM     28  O   UNL     1       6.598   4.869  18.882  0.00  0.00    +0.000 OA
ENDBRANCH  21  28
ENDBRANCH  17  26
ENDBRANCH   1  18
TORSDOF 3
ENDMDL
MODEL 8
REMARK VINA RESULT:      -7.8      2.945      8.775
REMARK  Name = 
REMARK  4 active torsions:
REMARK  status: ('A' for Active; 'I' for Inactive)
REMARK    1  A    between atoms: C_1  and  O_2
REMARK    2  A    between atoms: O_2  and  C_3
REMARK    3  A    between atoms: C_8  and  N_9
REMARK    4  A    between atoms: C_10  and  C_12
REMARK                            x       y       z     vdW  Elec       q    Type
REMARK                         _______ _______ _______ _____ _____    ______ ____
ROOT
ATOM      1  C   UNL     1       1.420   8.936  18.973  0.00  0.00    +0.000 A 
ATOM      2  C   UNL     1       2.288   9.140  17.902  0.00  0.00    +0.000 A 
ATOM      3  C   UNL     1       3.208   8.134  17.535  0.00  0.00    +0.000 A 
ATOM      4  C   UNL     1       3.246   6.921  18.247  0.00  0.00    +0.000 A 
ATOM      5  C   UNL     1       4.043   5.778  18.204  0.00  0.00    +0.000 A 
ATOM      6  C   UNL     1       3.662   4.886  19.190  0.00  0.00    +0.000 A 
ATOM      7  N   UNL     1       2.550   5.477  19.793  0.00  0.00    +0.000 N 
ATOM      8  C   UNL     1       2.339   6.741  19.280  0.00  0.00    +0.000 A 
ATOM      9  C   UNL     1       1.429   7.716  19.660  0.00  0.00    +0.000 A 
ATOM     10  C   UNL     1       1.671   4.979  20.787  0.00  0.00    +0.000 C 
ATOM     11  C   UNL     1       1.879   3.611  21.336  0.00  0.00    +0.000 C 
ATOM     12  C   UNL     1       2.954   2.566  21.348  0.00  0.00    +0.000 C 
ATOM     13  N   UNL     1       3.948   2.653  20.354  0.00  0.00    +0.000 N 
ATOM     14  C   UNL     1       4.290   3.600  19.463  0.00  0.00    +0.000 C 
ATOM     15  O   UNL     1       5.296   3.308  18.796  0.00  0.00    +0.000 OA
ATOM     16  H   UNL     1       4.623   1.866  20.343  0.00  0.00    +0.000 HD
ENDROOT
BRANCH   1  18
ATOM     17  N   UNL     1       0.873  10.454  20.852  0.00  0.00    +0.000 N 
ATOM     18  C   UNL     1       0.566   9.990  19.580  0.00  0.00    +0.000 C 
ATOM     19  O   UNL     1      -0.331  10.422  18.862  0.00  0.00    +0.000 OA
ATOM     20  H   UNL     1       1.753  10.187  21.281  0.00  0.00    +0.000 HD
BRANCH  17  26
ATOM     21  C   UNL     1       0.402  12.798  21.408  0.00  0.00    +0.000 A 
ATOM     22  C   UNL     1      -0.297  13.750  22.172  0.00  0.00    +0.000 A 
ATOM     23  C   UNL     1      -1.322  13.363  23.032  0.00  0.00    +0.000 A 
ATOM     24  C   UNL     1      -1.647  12.022  23.151  0.00  0.00    +0.000 A 
ATOM     25  C   UNL     1      -0.924  11.066  22.437  0.00  0.00    +0.000 A 
ATOM     26  C   UNL     1       0.114  11.425  21.565  0.00  0.00    +0.000 A 
BRANCH  21  28
ATOM     27  C   UNL     1       0.876  13.813  19.328  0.00  0.00    +0.000 C 
ATOM     28  O   UNL     1       1.372  13.145  20.493  0.00  0.00    +0.000 OA
ENDBRANCH  21  28
ENDBRANCH  17  26
ENDBRANCH   1  18
TORSDOF 3
ENDMDL
MODEL 9
REMARK VINA RESULT:      -7.8      1.470      1.846
REMARK  Name = 
REMARK  4 active torsions:
REMARK  status: ('A' for Active; 'I' for Inactive)
REMARK    1  A    between atoms: C_1  and  O_2
REMARK    2  A    between atoms: O_2  and  C_3
REMARK    3  A    between atoms: C_8  and  N_9
REMARK    4  A    between atoms: C_10  and  C_12
REMARK                            x       y       z     vdW  Elec       q    Type
REMARK                         _______ _______ _______ _____ _____    ______ ____
ROOT
ATOM      1  C   UNL     1       2.719   7.060  18.613  0.00  0.00    +0.000 A 
ATOM      2  C   UNL     1       2.483   6.199  19.683  0.00  0.00    +0.000 A 
ATOM      3  C   UNL     1       1.764   6.652  20.811  0.00  0.00    +0.000 A 
ATOM      4  C   UNL     1       1.279   7.972  20.853  0.00  0.00    +0.000 A 
ATOM      5  C   UNL     1       0.614   8.747  21.802  0.00  0.00    +0.000 A 
ATOM      6  C   UNL     1       0.417  10.031  21.325  0.00  0.00    +0.000 A 
ATOM      7  N   UNL     1       0.908  10.003  20.018  0.00  0.00    +0.000 N 
ATOM      8  C   UNL     1       1.500   8.785  19.752  0.00  0.00    +0.000 A 
ATOM      9  C   UNL     1       2.206   8.362  18.635  0.00  0.00    +0.000 A 
ATOM     10  C   UNL     1       0.874  10.991  19.003  0.00  0.00    +0.000 C 
ATOM     11  C   UNL     1       0.223  12.303  19.273  0.00  0.00    +0.000 C 
ATOM     12  C   UNL     1      -0.257  13.086  20.458  0.00  0.00    +0.000 C 
ATOM     13  N   UNL     1      -0.502  12.371  21.647  0.00  0.00    +0.000 N 
ATOM     14  C   UNL     1      -0.217  11.121  22.054  0.00  0.00    +0.000 C 
ATOM     15  O   UNL     1      -0.550  10.899  23.229  0.00  0.00    +0.000 OA
ATOM     16  H   UNL     1      -0.912  12.932  22.416  0.00  0.00    +0.000 HD
ENDROOT
BRANCH   1  18
ATOM     17  N   UNL     1       4.240   5.519  17.411  0.00  0.00    +0.000 N 
ATOM     18  C   UNL     1       3.635   6.767  17.480  0.00  0.00    +0.000 C 
ATOM     19  O   UNL     1       3.736   7.654  16.638  0.00  0.00    +0.000 OA
ATOM     20  H   UNL     1       3.934   4.781  18.037  0.00  0.00    +0.000 HD
BRANCH  17  26
ATOM     21  C   UNL     1       6.540   5.428  16.559  0.00  0.00    +0.000 A 
ATOM     22  C   UNL     1       7.444   5.106  15.530  0.00  0.00    +0.000 A 
ATOM     23  C   UNL     1       7.018   4.427  14.391  0.00  0.00    +0.000 A 
ATOM     24  C   UNL     1       5.684   4.079  14.259  0.00  0.00    +0.000 A 
ATOM     25  C   UNL     1       4.771   4.441  15.250  0.00  0.00    +0.000 A 
ATOM     26  C   UNL     1       5.170   5.125  16.407  0.00  0.00    +0.000 A 
BRANCH  21  28
ATOM     27  C   UNL     1       7.463   7.352  17.571  0.00  0.00    +0.000 C 
ATOM     28  O   UNL     1       6.933   6.032  17.733  0.00  0.00    +0.000 OA
ENDBRANCH  21  28
ENDBRANCH  17  26
ENDBRANCH   1  18
TORSDOF 3
ENDMDL
