MODEL 1
REMARK VINA RESULT:      -8.8      0.000      0.000
REMARK  Name = 
REMARK  7 active torsions:
REMARK  status: ('A' for Active; 'I' for Inactive)
REMARK    1  A    between atoms: C_2  and  C_3
REMARK    2  A    between atoms: C_3  and  N_4
REMARK    3  A    between atoms: N_4  and  C_16
REMARK    4  A    between atoms: C_5  and  C_7
REMARK    5  A    between atoms: C_7  and  N_8
REMARK    6  A    between atoms: C_9  and  C_11
REMARK    7  A    between atoms: N_25  and  C_26
REMARK                            x       y       z     vdW  Elec       q    Type
REMARK                         _______ _______ _______ _____ _____    ______ ____
ROOT
ATOM      1  N   UNL     1       4.671   5.725  17.316  0.00  0.00    +0.000 N 
ATOM      2  C   UNL     1       6.020   6.096  17.327  0.00  0.00    +0.000 C 
ATOM      3  O   UNL     1       6.422   7.206  17.695  0.00  0.00    +0.000 OA
ENDROOT
BRANCH   1   4
ATOM      4  C   UNL     1       3.698   6.587  17.913  0.00  0.00    +0.000 A 
ATOM      5  C   UNL     1       3.191   6.278  19.194  0.00  0.00    +0.000 A 
ATOM      6  C   UNL     1       2.318   7.151  19.854  0.00  0.00    +0.000 A 
ATOM      7  C   UNL     1       1.949   8.305  19.199  0.00  0.00    +0.000 A 
ATOM      8  C   UNL     1       2.406   8.596  17.937  0.00  0.00    +0.000 A 
ATOM      9  C   UNL     1       3.281   7.764  17.271  0.00  0.00    +0.000 A 
ATOM     10  O   UNL     1       1.914   9.775  17.468  0.00  0.00    +0.000 OA
ATOM     11  C   UNL     1       1.126  10.209  18.595  0.00  0.00    +0.000 C 
ATOM     12  O   UNL     1       1.134   9.274  19.694  0.00  0.00    +0.000 OA
ENDBRANCH   1   4
BRANCH   1  13
ATOM     13  C   UNL     1       4.142   4.580  16.557  0.00  0.00    +0.000 C 
BRANCH  13  15
ATOM     14  O   UNL     1       4.543   2.349  17.453  0.00  0.00    +0.000 OA
ATOM     15  C   UNL     1       3.790   3.312  17.350  0.00  0.00    +0.000 C 
ATOM     16  N   UNL     1       2.530   3.366  17.920  0.00  0.00    +0.000 N 
ATOM     17  H   UNL     1       2.125   4.282  18.059  0.00  0.00    +0.000 HD
BRANCH  16  18
ATOM     18  C   UNL     1       1.906   2.250  18.629  0.00  0.00    +0.000 C 
ATOM     19  C   UNL     1       2.798   1.722  19.759  0.00  0.00    +0.000 C 
ATOM     20  C   UNL     1       2.931   2.718  20.912  0.00  0.00    +0.000 C 
ATOM     21  C   UNL     1       1.571   3.174  21.438  0.00  0.00    +0.000 C 
ATOM     22  C   UNL     1       0.666   3.693  20.326  0.00  0.00    +0.000 C 
ATOM     23  C   UNL     1       0.540   2.684  19.183  0.00  0.00    +0.000 C 
ENDBRANCH  16  18
ENDBRANCH  13  15
ENDBRANCH   1  13
BRANCH   2  24
ATOM     24  C   UNL     1       7.059   5.075  16.865  0.00  0.00    +0.000 C 
BRANCH  24  25
ATOM     25  N   UNL     1       6.640   4.353  15.680  0.00  0.00    +0.000 N 
ATOM     26  C   UNL     1       7.048   4.739  14.423  0.00  0.00    +0.000 C 
ATOM     27  O   UNL     1       7.891   5.612  14.255  0.00  0.00    +0.000 OA
ATOM     28  H   UNL     1       5.929   3.635  15.760  0.00  0.00    +0.000 HD
BRANCH  26  29
ATOM     29  C   UNL     1       6.409   4.053  13.322  0.00  0.00    +0.000 A 
ATOM     30  C   UNL     1       6.968   3.493  12.188  0.00  0.00    +0.000 A 
ATOM     31  C   UNL     1       5.904   2.964  11.429  0.00  0.00    +0.000 A 
ATOM     32  C   UNL     1       4.758   3.235  12.139  0.00  0.00    +0.000 A 
ATOM     33  O   UNL     1       5.051   3.893  13.293  0.00  0.00    +0.000 OA
ENDBRANCH  26  29
ENDBRANCH  24  25
ENDBRANCH   2  24
TORSDOF 7
ENDMDL
MODEL 2
REMARK VINA RESULT:      -8.7      1.106      1.687
REMARK  Name = 
REMARK  7 active torsions:
REMARK  status: ('A' for Active; 'I' for Inactive)
REMARK    1  A    between atoms: C_2  and  C_3
REMARK    2  A    between atoms: C_3  and  N_4
REMARK    3  A    between atoms: N_4  and  C_16
REMARK    4  A    between atoms: C_5  and  C_7
REMARK    5  A    between atoms: C_7  and  N_8
REMARK    6  A    between atoms: C_9  and  C_11
REMARK    7  A    between atoms: N_25  and  C_26
REMARK                            x       y       z     vdW  Elec       q    Type
REMARK                         _______ _______ _______ _____ _____    ______ ____
ROOT
ATOM      1  N   UNL     1       4.612   5.538  17.723  0.00  0.00    +0.000 N 
ATOM      2  C   UNL     1       5.972   5.620  18.042  0.00  0.00    +0.000 C 
ATOM      3  O   UNL     1       6.489   6.599  18.591  0.00  0.00    +0.000 OA
ENDROOT
BRANCH   1   4
ATOM      4  C   UNL     1       3.716   6.548  18.194  0.00  0.00    +0.000 A 
ATOM      5  C   UNL     1       3.420   7.653  17.366  0.00  0.00    +0.000 A 
ATOM      6  C   UNL     1       2.468   8.606  17.748  0.00  0.00    +0.000 A 
ATOM      7  C   UNL     1       1.855   8.445  18.970  0.00  0.00    +0.000 A 
ATOM      8  C   UNL     1       2.163   7.395  19.800  0.00  0.00    +0.000 A 
ATOM      9  C   UNL     1       3.083   6.432  19.441  0.00  0.00    +0.000 A 
ATOM     10  O   UNL     1       1.454   7.427  20.960  0.00  0.00    +0.000 OA
ATOM     11  C   UNL     1       0.637   8.596  20.748  0.00  0.00    +0.000 C 
ATOM     12  O   UNL     1       0.895   9.255  19.490  0.00  0.00    +0.000 OA
ENDBRANCH   1   4
BRANCH   1  13
ATOM     13  C   UNL     1       4.052   4.573  16.763  0.00  0.00    +0.000 C 
BRANCH  13  15
ATOM     14  O   UNL     1       2.244   2.937  16.739  0.00  0.00    +0.000 OA
ATOM     15  C   UNL     1       3.198   3.430  17.333  0.00  0.00    +0.000 C 
ATOM     16  N   UNL     1       3.608   3.027  18.592  0.00  0.00    +0.000 N 
ATOM     17  H   UNL     1       4.558   3.246  18.860  0.00  0.00    +0.000 HD
BRANCH  16  18
ATOM     18  C   UNL     1       2.901   2.039  19.404  0.00  0.00    +0.000 C 
ATOM     19  C   UNL     1       3.238   2.177  20.894  0.00  0.00    +0.000 C 
ATOM     20  C   UNL     1       2.674   3.461  21.503  0.00  0.00    +0.000 C 
ATOM     21  C   UNL     1       1.175   3.608  21.252  0.00  0.00    +0.000 C 
ATOM     22  C   UNL     1       0.819   3.462  19.776  0.00  0.00    +0.000 C 
ATOM     23  C   UNL     1       1.386   2.171  19.183  0.00  0.00    +0.000 C 
ENDBRANCH  16  18
ENDBRANCH  13  15
ENDBRANCH   1  13
BRANCH   2  24
ATOM     24  C   UNL     1       6.872   4.432  17.701  0.00  0.00    +0.000 C 
BRANCH  24  25
ATOM     25  N   UNL     1       6.774   4.044  16.307  0.00  0.00    +0.000 N 
ATOM     26  C   UNL     1       7.144   4.901  15.296  0.00  0.00    +0.000 C 
ATOM     27  O   UNL     1       7.703   5.967  15.522  0.00  0.00    +0.000 OA
ATOM     28  H   UNL     1       6.302   3.180  16.063  0.00  0.00    +0.000 HD
BRANCH  26  29
ATOM     29  C   UNL     1       6.820   4.463  13.957  0.00  0.00    +0.000 A 
ATOM     30  C   UNL     1       5.807   3.626  13.524  0.00  0.00    +0.000 A 
ATOM     31  C   UNL     1       5.945   3.512  12.126  0.00  0.00    +0.000 A 
ATOM     32  C   UNL     1       7.035   4.279  11.786  0.00  0.00    +0.000 A 
ATOM     33  O   UNL     1       7.573   4.865  12.889  0.00  0.00    +0.000 OA
ENDBRANCH  26  29
ENDBRANCH  24  25
ENDBRANCH   2  24
TORSDOF 7
ENDMDL
MODEL 3
REMARK VINA RESULT:      -8.7      0.594      1.287
REMARK  Name = 
REMARK  7 active torsions:
REMARK  status: ('A' for Active; 'I' for Inactive)
REMARK    1  A    between atoms: C_2  and  C_3
REMARK    2  A    between atoms: C_3  and  N_4
REMARK    3  A    between atoms: N_4  and  C_16
REMARK    4  A    between atoms: C_5  and  C_7
REMARK    5  A    between atoms: C_7  and  N_8
REMARK    6  A    between atoms: C_9  and  C_11
REMARK    7  A    between atoms: N_25  and  C_26
REMARK                            x       y       z     vdW  Elec       q    Type
REMARK                         _______ _______ _______ _____ _____    ______ ____
ROOT
ATOM      1  N   UNL     1       4.721   5.692  17.398  0.00  0.00    +0.000 N 
ATOM      2  C   UNL     1       6.096   5.950  17.433  0.00  0.00    +0.000 C 
ATOM      3  O   UNL     1       6.583   7.019  17.817  0.00  0.00    +0.000 OA
ENDROOT
BRANCH   1   4
ATOM      4  C   UNL     1       3.814   6.627  17.989  0.00  0.00    +0.000 A 
ATOM      5  C   UNL     1       3.415   7.765  17.255  0.00  0.00    +0.000 A 
ATOM      6  C   UNL     1       2.449   8.645  17.758  0.00  0.00    +0.000 A 
ATOM      7  C   UNL     1       1.926   8.379  19.004  0.00  0.00    +0.000 A 
ATOM      8  C   UNL     1       2.335   7.296  19.742  0.00  0.00    +0.000 A 
ATOM      9  C   UNL     1       3.271   6.402  19.264  0.00  0.00    +0.000 A 
ATOM     10  O   UNL     1       1.703   7.221  20.945  0.00  0.00    +0.000 OA
ATOM     11  C   UNL     1       0.823   8.359  20.861  0.00  0.00    +0.000 C 
ATOM     12  O   UNL     1       0.967   9.107  19.634  0.00  0.00    +0.000 OA
ENDBRANCH   1   4
BRANCH   1  13
ATOM     13  C   UNL     1       4.111   4.602  16.620  0.00  0.00    +0.000 C 
BRANCH  13  15
ATOM     14  O   UNL     1       4.423   2.321  17.422  0.00  0.00    +0.000 OA
ATOM     15  C   UNL     1       3.721   3.326  17.382  0.00  0.00    +0.000 C 
ATOM     16  N   UNL     1       2.488   3.426  18.005  0.00  0.00    +0.000 N 
ATOM     17  H   UNL     1       2.140   4.356  18.191  0.00  0.00    +0.000 HD
BRANCH  16  18
ATOM     18  C   UNL     1       1.833   2.320  18.700  0.00  0.00    +0.000 C 
ATOM     19  C   UNL     1       2.740   1.697  19.767  0.00  0.00    +0.000 C 
ATOM     20  C   UNL     1       2.981   2.638  20.949  0.00  0.00    +0.000 C 
ATOM     21  C   UNL     1       1.674   3.149  21.554  0.00  0.00    +0.000 C 
ATOM     22  C   UNL     1       0.753   3.761  20.504  0.00  0.00    +0.000 C 
ATOM     23  C   UNL     1       0.519   2.808  19.331  0.00  0.00    +0.000 C 
ENDBRANCH  16  18
ENDBRANCH  13  15
ENDBRANCH   1  13
BRANCH   2  24
ATOM     24  C   UNL     1       7.054   4.849  16.976  0.00  0.00    +0.000 C 
BRANCH  24  25
ATOM     25  N   UNL     1       6.612   4.199  15.758  0.00  0.00    +0.000 N 
ATOM     26  C   UNL     1       7.006   4.651  14.519  0.00  0.00    +0.000 C 
ATOM     27  O   UNL     1       7.854   5.525  14.388  0.00  0.00    +0.000 OA
ATOM     28  H   UNL     1       5.896   3.483  15.808  0.00  0.00    +0.000 HD
BRANCH  26  29
ATOM     29  C   UNL     1       6.346   4.033  13.391  0.00  0.00    +0.000 A 
ATOM     30  C   UNL     1       6.889   3.484  12.244  0.00  0.00    +0.000 A 
ATOM     31  C   UNL     1       5.809   3.032  11.459  0.00  0.00    +0.000 A 
ATOM     32  C   UNL     1       4.670   3.334  12.168  0.00  0.00    +0.000 A 
ATOM     33  O   UNL     1       4.983   3.939  13.346  0.00  0.00    +0.000 OA
ENDBRANCH  26  29
ENDBRANCH  24  25
ENDBRANCH   2  24
TORSDOF 7
ENDMDL
MODEL 4
REMARK VINA RESULT:      -8.6      1.057      1.285
REMARK  Name = 
REMARK  7 active torsions:
REMARK  status: ('A' for Active; 'I' for Inactive)
REMARK    1  A    between atoms: C_2  and  C_3
REMARK    2  A    between atoms: C_3  and  N_4
REMARK    3  A    between atoms: N_4  and  C_16
REMARK    4  A    between atoms: C_5  and  C_7
REMARK    5  A    between atoms: C_7  and  N_8
REMARK    6  A    between atoms: C_9  and  C_11
REMARK    7  A    between atoms: N_25  and  C_26
REMARK                            x       y       z     vdW  Elec       q    Type
REMARK                         _______ _______ _______ _____ _____    ______ ____
ROOT
ATOM      1  N   UNL     1       5.071   5.947  17.472  0.00  0.00    +0.000 N 
ATOM      2  C   UNL     1       5.508   6.157  16.160  0.00  0.00    +0.000 C 
ATOM      3  O   UNL     1       4.904   6.858  15.341  0.00  0.00    +0.000 OA
ENDROOT
BRANCH   1   4
ATOM      4  C   UNL     1       3.966   6.702  17.976  0.00  0.00    +0.000 A 
ATOM      5  C   UNL     1       3.322   6.282  19.160  0.00  0.00    +0.000 A 
ATOM      6  C   UNL     1       2.307   7.052  19.741  0.00  0.00    +0.000 A 
ATOM      7  C   UNL     1       1.938   8.214  19.102  0.00  0.00    +0.000 A 
ATOM      8  C   UNL     1       2.532   8.613  17.930  0.00  0.00    +0.000 A 
ATOM      9  C   UNL     1       3.547   7.884  17.345  0.00  0.00    +0.000 A 
ATOM     10  O   UNL     1       2.017   9.781  17.459  0.00  0.00    +0.000 OA
ATOM     11  C   UNL     1       1.059  10.090  18.491  0.00  0.00    +0.000 C 
ATOM     12  O   UNL     1       0.995   9.093  19.532  0.00  0.00    +0.000 OA
ENDBRANCH   1   4
BRANCH   1  13
ATOM     13  C   UNL     1       5.553   4.854  18.332  0.00  0.00    +0.000 C 
BRANCH  13  15
ATOM     14  O   UNL     1       4.486   2.874  17.391  0.00  0.00    +0.000 OA
ATOM     15  C   UNL     1       4.712   3.569  18.376  0.00  0.00    +0.000 C 
ATOM     16  N   UNL     1       4.223   3.289  19.641  0.00  0.00    +0.000 N 
ATOM     17  H   UNL     1       4.704   3.709  20.425  0.00  0.00    +0.000 HD
BRANCH  16  18
ATOM     18  C   UNL     1       3.303   2.192  19.937  0.00  0.00    +0.000 C 
ATOM     19  C   UNL     1       2.688   2.324  21.335  0.00  0.00    +0.000 C 
ATOM     20  C   UNL     1       1.722   3.505  21.439  0.00  0.00    +0.000 C 
ATOM     21  C   UNL     1       0.646   3.466  20.356  0.00  0.00    +0.000 C 
ATOM     22  C   UNL     1       1.239   3.324  18.957  0.00  0.00    +0.000 C 
ATOM     23  C   UNL     1       2.200   2.137  18.869  0.00  0.00    +0.000 C 
ENDBRANCH  16  18
ENDBRANCH  13  15
ENDBRANCH   1  13
BRANCH   2  24
ATOM     24  C   UNL     1       6.807   5.489  15.710  0.00  0.00    +0.000 C 
BRANCH  24  25
ATOM     25  N   UNL     1       6.585   4.444  14.731  0.00  0.00    +0.000 N 
ATOM     26  C   UNL     1       7.020   4.573  13.431  0.00  0.00    +0.000 C 
ATOM     27  O   UNL     1       7.735   5.502  13.077  0.00  0.00    +0.000 OA
ATOM     28  H   UNL     1       5.982   3.662  14.965  0.00  0.00    +0.000 HD
BRANCH  26  29
ATOM     29  C   UNL     1       6.569   3.547  12.518  0.00  0.00    +0.000 A 
ATOM     30  C   UNL     1       7.306   2.682  11.729  0.00  0.00    +0.000 A 
ATOM     31  C   UNL     1       6.380   1.894  11.015  0.00  0.00    +0.000 A 
ATOM     32  C   UNL     1       5.133   2.325  11.405  0.00  0.00    +0.000 A 
ATOM     33  O   UNL     1       5.234   3.326  12.320  0.00  0.00    +0.000 OA
ENDBRANCH  26  29
ENDBRANCH  24  25
ENDBRANCH   2  24
TORSDOF 7
ENDMDL
MODEL 5
REMARK VINA RESULT:      -8.2      2.684      7.161
REMARK  Name = 
REMARK  7 active torsions:
REMARK  status: ('A' for Active; 'I' for Inactive)
REMARK    1  A    between atoms: C_2  and  C_3
REMARK    2  A    between atoms: C_3  and  N_4
REMARK    3  A    between atoms: N_4  and  C_16
REMARK    4  A    between atoms: C_5  and  C_7
REMARK    5  A    between atoms: C_7  and  N_8
REMARK    6  A    between atoms: C_9  and  C_11
REMARK    7  A    between atoms: N_25  and  C_26
REMARK                            x       y       z     vdW  Elec       q    Type
REMARK                         _______ _______ _______ _____ _____    ______ ____
ROOT
ATOM      1  N   UNL     1       2.626   7.456  18.710  0.00  0.00    +0.000 N 
ATOM      2  C   UNL     1       2.119   8.590  18.067  0.00  0.00    +0.000 C 
ATOM      3  O   UNL     1       2.480   8.960  16.944  0.00  0.00    +0.000 OA
ENDROOT
BRANCH   1   4
ATOM      4  C   UNL     1       3.481   6.562  17.992  0.00  0.00    +0.000 A 
ATOM      5  C   UNL     1       3.003   5.282  17.636  0.00  0.00    +0.000 A 
ATOM      6  C   UNL     1       3.771   4.420  16.844  0.00  0.00    +0.000 A 
ATOM      7  C   UNL     1       5.018   4.851  16.450  0.00  0.00    +0.000 A 
ATOM      8  C   UNL     1       5.507   6.079  16.822  0.00  0.00    +0.000 A 
ATOM      9  C   UNL     1       4.766   6.956  17.587  0.00  0.00    +0.000 A 
ATOM     10  O   UNL     1       6.759   6.306  16.338  0.00  0.00    +0.000 OA
ATOM     11  C   UNL     1       6.983   5.096  15.587  0.00  0.00    +0.000 C 
ATOM     12  O   UNL     1       5.885   4.162  15.663  0.00  0.00    +0.000 OA
ENDBRANCH   1   4
BRANCH   1  13
ATOM     13  C   UNL     1       2.495   7.205  20.155  0.00  0.00    +0.000 C 
BRANCH  13  15
ATOM     14  O   UNL     1       0.519   5.888  20.704  0.00  0.00    +0.000 OA
ATOM     15  C   UNL     1       1.738   5.939  20.583  0.00  0.00    +0.000 C 
ATOM     16  N   UNL     1       2.579   4.868  20.834  0.00  0.00    +0.000 N 
ATOM     17  H   UNL     1       3.498   4.895  20.413  0.00  0.00    +0.000 HD
BRANCH  16  18
ATOM     18  C   UNL     1       2.129   3.583  21.364  0.00  0.00    +0.000 C 
ATOM     19  C   UNL     1       0.833   3.111  20.693  0.00  0.00    +0.000 C 
ATOM     20  C   UNL     1       1.041   2.727  19.228  0.00  0.00    +0.000 C 
ATOM     21  C   UNL     1       2.165   1.708  19.053  0.00  0.00    +0.000 C 
ATOM     22  C   UNL     1       3.460   2.155  19.724  0.00  0.00    +0.000 C 
ATOM     23  C   UNL     1       3.236   2.532  21.190  0.00  0.00    +0.000 C 
ENDBRANCH  16  18
ENDBRANCH  13  15
ENDBRANCH   1  13
BRANCH   2  24
ATOM     24  C   UNL     1       1.055   9.420  18.785  0.00  0.00    +0.000 C 
BRANCH  24  25
ATOM     25  N   UNL     1      -0.037   9.800  17.911  0.00  0.00    +0.000 N 
ATOM     26  C   UNL     1      -1.028  10.659  18.332  0.00  0.00    +0.000 C 
ATOM     27  O   UNL     1      -0.960  11.251  19.402  0.00  0.00    +0.000 OA
ATOM     28  H   UNL     1      -0.152   9.325  17.023  0.00  0.00    +0.000 HD
BRANCH  26  29
ATOM     29  C   UNL     1      -2.150  10.804  17.432  0.00  0.00    +0.000 A 
ATOM     30  C   UNL     1      -3.375  11.412  17.641  0.00  0.00    +0.000 A 
ATOM     31  C   UNL     1      -4.112  11.261  16.449  0.00  0.00    +0.000 A 
ATOM     32  C   UNL     1      -3.299  10.567  15.583  0.00  0.00    +0.000 A 
ATOM     33  O   UNL     1      -2.102  10.287  16.167  0.00  0.00    +0.000 OA
ENDBRANCH  26  29
ENDBRANCH  24  25
ENDBRANCH   2  24
TORSDOF 7
ENDMDL
MODEL 6
REMARK VINA RESULT:      -8.1      2.768      6.929
REMARK  Name = 
REMARK  7 active torsions:
REMARK  status: ('A' for Active; 'I' for Inactive)
REMARK    1  A    between atoms: C_2  and  C_3
REMARK    2  A    between atoms: C_3  and  N_4
REMARK    3  A    between atoms: N_4  and  C_16
REMARK    4  A    between atoms: C_5  and  C_7
REMARK    5  A    between atoms: C_7  and  N_8
REMARK    6  A    between atoms: C_9  and  C_11
REMARK    7  A    between atoms: N_25  and  C_26
REMARK                            x       y       z     vdW  Elec       q    Type
REMARK                         _______ _______ _______ _____ _____    ______ ____
ROOT
ATOM      1  N   UNL     1       5.651   4.482  17.645  0.00  0.00    +0.000 N 
ATOM      2  C   UNL     1       6.251   5.476  18.425  0.00  0.00    +0.000 C 
ATOM      3  O   UNL     1       5.634   6.179  19.233  0.00  0.00    +0.000 OA
ENDROOT
BRANCH   1   4
ATOM      4  C   UNL     1       4.291   4.118  17.892  0.00  0.00    +0.000 A 
ATOM      5  C   UNL     1       3.255   4.975  17.461  0.00  0.00    +0.000 A 
ATOM      6  C   UNL     1       1.911   4.604  17.591  0.00  0.00    +0.000 A 
ATOM      7  C   UNL     1       1.635   3.390  18.178  0.00  0.00    +0.000 A 
ATOM      8  C   UNL     1       2.634   2.566  18.634  0.00  0.00    +0.000 A 
ATOM      9  C   UNL     1       3.966   2.897  18.504  0.00  0.00    +0.000 A 
ATOM     10  O   UNL     1       2.148   1.422  19.189  0.00  0.00    +0.000 OA
ATOM     11  C   UNL     1       0.731   1.606  18.994  0.00  0.00    +0.000 C 
ATOM     12  O   UNL     1       0.397   2.860  18.362  0.00  0.00    +0.000 OA
ENDBRANCH   1   4
BRANCH   1  13
ATOM     13  C   UNL     1       6.269   3.899  16.442  0.00  0.00    +0.000 C 
BRANCH  13  15
ATOM     14  O   UNL     1       5.667   5.795  15.033  0.00  0.00    +0.000 OA
ATOM     15  C   UNL     1       6.042   4.630  15.110  0.00  0.00    +0.000 C 
ATOM     16  N   UNL     1       6.291   3.829  14.008  0.00  0.00    +0.000 N 
ATOM     17  H   UNL     1       6.886   3.024  14.148  0.00  0.00    +0.000 HD
BRANCH  16  18
ATOM     18  C   UNL     1       6.045   4.241  12.628  0.00  0.00    +0.000 C 
ATOM     19  C   UNL     1       7.319   4.177  11.777  0.00  0.00    +0.000 C 
ATOM     20  C   UNL     1       7.790   2.742  11.538  0.00  0.00    +0.000 C 
ATOM     21  C   UNL     1       6.684   1.862  10.957  0.00  0.00    +0.000 C 
ATOM     22  C   UNL     1       5.404   1.922  11.784  0.00  0.00    +0.000 C 
ATOM     23  C   UNL     1       4.945   3.363  12.011  0.00  0.00    +0.000 C 
ENDBRANCH  16  18
ENDBRANCH  13  15
ENDBRANCH   1  13
BRANCH   2  24
ATOM     24  C   UNL     1       7.756   5.707  18.279  0.00  0.00    +0.000 C 
BRANCH  24  25
ATOM     25  N   UNL     1       8.152   7.047  18.662  0.00  0.00    +0.000 N 
ATOM     26  C   UNL     1       7.916   8.128  17.843  0.00  0.00    +0.000 C 
ATOM     27  O   UNL     1       7.238   8.035  16.827  0.00  0.00    +0.000 OA
ATOM     28  H   UNL     1       8.733   7.179  19.483  0.00  0.00    +0.000 HD
BRANCH  26  29
ATOM     29  C   UNL     1       8.528   9.370  18.258  0.00  0.00    +0.000 A 
ATOM     30  C   UNL     1       9.280   9.650  19.385  0.00  0.00    +0.000 A 
ATOM     31  C   UNL     1       9.621  11.016  19.317  0.00  0.00    +0.000 A 
ATOM     32  C   UNL     1       9.055  11.493  18.157  0.00  0.00    +0.000 A 
ATOM     33  O   UNL     1       8.392  10.502  17.503  0.00  0.00    +0.000 OA
ENDBRANCH  26  29
ENDBRANCH  24  25
ENDBRANCH   2  24
TORSDOF 7
ENDMDL
MODEL 7
REMARK VINA RESULT:      -8.1      1.789      7.016
REMARK  Name = 
REMARK  7 active torsions:
REMARK  status: ('A' for Active; 'I' for Inactive)
REMARK    1  A    between atoms: C_2  and  C_3
REMARK    2  A    between atoms: C_3  and  N_4
REMARK    3  A    between atoms: N_4  and  C_16
REMARK    4  A    between atoms: C_5  and  C_7
REMARK    5  A    between atoms: C_7  and  N_8
REMARK    6  A    between atoms: C_9  and  C_11
REMARK    7  A    between atoms: N_25  and  C_26
REMARK                            x       y       z     vdW  Elec       q    Type
REMARK                         _______ _______ _______ _____ _____    ______ ____
ROOT
ATOM      1  N   UNL     1       4.453   6.305  18.028  0.00  0.00    +0.000 N 
ATOM      2  C   UNL     1       3.431   7.250  17.890  0.00  0.00    +0.000 C 
ATOM      3  O   UNL     1       3.239   7.906  16.860  0.00  0.00    +0.000 OA
ENDROOT
BRANCH   1   4
ATOM      4  C   UNL     1       5.227   5.931  16.885  0.00  0.00    +0.000 A 
ATOM      5  C   UNL     1       6.580   6.325  16.805  0.00  0.00    +0.000 A 
ATOM      6  C   UNL     1       7.397   5.890  15.754  0.00  0.00    +0.000 A 
ATOM      7  C   UNL     1       6.827   5.091  14.788  0.00  0.00    +0.000 A 
ATOM      8  C   UNL     1       5.502   4.733  14.837  0.00  0.00    +0.000 A 
ATOM      9  C   UNL     1       4.679   5.132  15.869  0.00  0.00    +0.000 A 
ATOM     10  O   UNL     1       5.138   3.952  13.784  0.00  0.00    +0.000 OA
ATOM     11  C   UNL     1       6.395   3.828  13.089  0.00  0.00    +0.000 C 
ATOM     12  O   UNL     1       7.471   4.559  13.716  0.00  0.00    +0.000 OA
ENDBRANCH   1   4
BRANCH   1  13
ATOM     13  C   UNL     1       4.926   5.792  19.325  0.00  0.00    +0.000 C 
BRANCH  13  15
ATOM     14  O   UNL     1       5.616   3.454  19.351  0.00  0.00    +0.000 OA
ATOM     15  C   UNL     1       4.751   4.290  19.594  0.00  0.00    +0.000 C 
ATOM     16  N   UNL     1       3.511   3.978  20.124  0.00  0.00    +0.000 N 
ATOM     17  H   UNL     1       3.004   4.724  20.580  0.00  0.00    +0.000 HD
BRANCH  16  18
ATOM     18  C   UNL     1       3.045   2.614  20.366  0.00  0.00    +0.000 C 
ATOM     19  C   UNL     1       1.655   2.591  21.012  0.00  0.00    +0.000 C 
ATOM     20  C   UNL     1       0.560   3.072  20.058  0.00  0.00    +0.000 C 
ATOM     21  C   UNL     1       0.575   2.310  18.734  0.00  0.00    +0.000 C 
ATOM     22  C   UNL     1       1.953   2.312  18.082  0.00  0.00    +0.000 C 
ATOM     23  C   UNL     1       3.036   1.826  19.047  0.00  0.00    +0.000 C 
ENDBRANCH  16  18
ENDBRANCH  13  15
ENDBRANCH   1  13
BRANCH   2  24
ATOM     24  C   UNL     1       2.492   7.485  19.074  0.00  0.00    +0.000 C 
BRANCH  24  25
ATOM     25  N   UNL     1       1.661   8.660  18.900  0.00  0.00    +0.000 N 
ATOM     26  C   UNL     1       0.963   9.207  19.952  0.00  0.00    +0.000 C 
ATOM     27  O   UNL     1       1.119   8.822  21.104  0.00  0.00    +0.000 OA
ATOM     28  H   UNL     1       1.481   9.008  17.964  0.00  0.00    +0.000 HD
BRANCH  26  29
ATOM     29  C   UNL     1       0.030  10.255  19.603  0.00  0.00    +0.000 A 
ATOM     30  C   UNL     1      -0.628  11.158  20.419  0.00  0.00    +0.000 A 
ATOM     31  C   UNL     1      -1.432  11.954  19.578  0.00  0.00    +0.000 A 
ATOM     32  C   UNL     1      -1.223  11.491  18.300  0.00  0.00    +0.000 A 
ATOM     33  O   UNL     1      -0.334  10.461  18.301  0.00  0.00    +0.000 OA
ENDBRANCH  26  29
ENDBRANCH  24  25
ENDBRANCH   2  24
TORSDOF 7
ENDMDL
MODEL 8
REMARK VINA RESULT:      -8.1      5.107      9.225
REMARK  Name = 
REMARK  7 active torsions:
REMARK  status: ('A' for Active; 'I' for Inactive)
REMARK    1  A    between atoms: C_2  and  C_3
REMARK    2  A    between atoms: C_3  and  N_4
REMARK    3  A    between atoms: N_4  and  C_16
REMARK    4  A    between atoms: C_5  and  C_7
REMARK    5  A    between atoms: C_7  and  N_8
REMARK    6  A    between atoms: C_9  and  C_11
REMARK    7  A    between atoms: N_25  and  C_26
REMARK                            x       y       z     vdW  Elec       q    Type
REMARK                         _______ _______ _______ _____ _____    ______ ____
ROOT
ATOM      1  N   UNL     1       0.149  10.390  19.644  0.00  0.00    +0.000 N 
ATOM      2  C   UNL     1       0.344   9.339  20.546  0.00  0.00    +0.000 C 
ATOM      3  O   UNL     1      -0.559   8.849  21.233  0.00  0.00    +0.000 OA
ENDROOT
BRANCH   1   4
ATOM      4  C   UNL     1      -1.180  10.829  19.351  0.00  0.00    +0.000 A 
ATOM      5  C   UNL     1      -1.779  11.816  20.164  0.00  0.00    +0.000 A 
ATOM      6  C   UNL     1      -3.035  12.347  19.847  0.00  0.00    +0.000 A 
ATOM      7  C   UNL     1      -3.678  11.852  18.734  0.00  0.00    +0.000 A 
ATOM      8  C   UNL     1      -3.121  10.866  17.957  0.00  0.00    +0.000 A 
ATOM      9  C   UNL     1      -1.877  10.338  18.235  0.00  0.00    +0.000 A 
ATOM     10  O   UNL     1      -3.921  10.514  16.915  0.00  0.00    +0.000 OA
ATOM     11  C   UNL     1      -5.027  11.419  17.103  0.00  0.00    +0.000 C 
ATOM     12  O   UNL     1      -4.884  12.265  18.264  0.00  0.00    +0.000 OA
ENDBRANCH   1   4
BRANCH   1  13
ATOM     13  C   UNL     1       1.238  11.218  19.102  0.00  0.00    +0.000 C 
BRANCH  13  15
ATOM     14  O   UNL     1       1.516  12.449  21.188  0.00  0.00    +0.000 OA
ATOM     15  C   UNL     1       1.770  12.352  19.992  0.00  0.00    +0.000 C 
ATOM     16  N   UNL     1       2.550  13.262  19.297  0.00  0.00    +0.000 N 
ATOM     17  H   UNL     1       2.963  12.947  18.430  0.00  0.00    +0.000 HD
BRANCH  16  18
ATOM     18  C   UNL     1       3.083  14.492  19.879  0.00  0.00    +0.000 C 
ATOM     19  C   UNL     1       4.396  14.917  19.209  0.00  0.00    +0.000 C 
ATOM     20  C   UNL     1       4.191  15.382  17.767  0.00  0.00    +0.000 C 
ATOM     21  C   UNL     1       3.127  16.473  17.658  0.00  0.00    +0.000 C 
ATOM     22  C   UNL     1       1.817  16.072  18.329  0.00  0.00    +0.000 C 
ATOM     23  C   UNL     1       2.039  15.613  19.772  0.00  0.00    +0.000 C 
ENDBRANCH  16  18
ENDBRANCH  13  15
ENDBRANCH   1  13
BRANCH   2  24
ATOM     24  C   UNL     1       1.750   8.756  20.691  0.00  0.00    +0.000 C 
BRANCH  24  25
ATOM     25  N   UNL     1       1.735   7.342  21.012  0.00  0.00    +0.000 N 
ATOM     26  C   UNL     1       2.078   6.391  20.078  0.00  0.00    +0.000 C 
ATOM     27  O   UNL     1       2.547   6.692  18.987  0.00  0.00    +0.000 OA
ATOM     28  H   UNL     1       1.338   7.036  21.893  0.00  0.00    +0.000 HD
BRANCH  26  29
ATOM     29  C   UNL     1       1.839   5.020  20.469  0.00  0.00    +0.000 A 
ATOM     30  C   UNL     1       1.024   4.066  19.886  0.00  0.00    +0.000 A 
ATOM     31  C   UNL     1       1.141   2.899  20.669  0.00  0.00    +0.000 A 
ATOM     32  C   UNL     1       2.016   3.207  21.684  0.00  0.00    +0.000 A 
ATOM     33  O   UNL     1       2.450   4.491  21.572  0.00  0.00    +0.000 OA
ENDBRANCH  26  29
ENDBRANCH  24  25
ENDBRANCH   2  24
TORSDOF 7
ENDMDL
MODEL 9
REMARK VINA RESULT:      -8.0      4.668      8.985
REMARK  Name = 
REMARK  7 active torsions:
REMARK  status: ('A' for Active; 'I' for Inactive)
REMARK    1  A    between atoms: C_2  and  C_3
REMARK    2  A    between atoms: C_3  and  N_4
REMARK    3  A    between atoms: N_4  and  C_16
REMARK    4  A    between atoms: C_5  and  C_7
REMARK    5  A    between atoms: C_7  and  N_8
REMARK    6  A    between atoms: C_9  and  C_11
REMARK    7  A    between atoms: N_25  and  C_26
REMARK                            x       y       z     vdW  Elec       q    Type
REMARK                         _______ _______ _______ _____ _____    ______ ____
ROOT
ATOM      1  N   UNL     1       0.266  10.230  19.638  0.00  0.00    +0.000 N 
ATOM      2  C   UNL     1       0.216   9.308  20.688  0.00  0.00    +0.000 C 
ATOM      3  O   UNL     1      -0.835   8.827  21.128  0.00  0.00    +0.000 OA
ENDROOT
BRANCH   1   4
ATOM      4  C   UNL     1      -0.923  10.524  18.900  0.00  0.00    +0.000 A 
ATOM      5  C   UNL     1      -1.849  11.454  19.421  0.00  0.00    +0.000 A 
ATOM      6  C   UNL     1      -2.971  11.846  18.681  0.00  0.00    +0.000 A 
ATOM      7  C   UNL     1      -3.155  11.272  17.443  0.00  0.00    +0.000 A 
ATOM      8  C   UNL     1      -2.281  10.338  16.943  0.00  0.00    +0.000 A 
ATOM      9  C   UNL     1      -1.158   9.947  17.642  0.00  0.00    +0.000 A 
ATOM     10  O   UNL     1      -2.649   9.890  15.713  0.00  0.00    +0.000 OA
ATOM     11  C   UNL     1      -3.835  10.677  15.480  0.00  0.00    +0.000 C 
ATOM     12  O   UNL     1      -4.169  11.550  16.581  0.00  0.00    +0.000 OA
ENDBRANCH   1   4
BRANCH   1  13
ATOM     13  C   UNL     1       1.434  11.077  19.346  0.00  0.00    +0.000 C 
BRANCH  13  15
ATOM     14  O   UNL     1       1.137  12.573  21.248  0.00  0.00    +0.000 OA
ATOM     15  C   UNL     1       1.544  12.410  20.102  0.00  0.00    +0.000 C 
ATOM     16  N   UNL     1       2.135  13.410  19.348  0.00  0.00    +0.000 N 
ATOM     17  H   UNL     1       2.714  13.121  18.572  0.00  0.00    +0.000 HD
BRANCH  16  18
ATOM     18  C   UNL     1       2.258  14.799  19.787  0.00  0.00    +0.000 C 
ATOM     19  C   UNL     1       3.590  15.056  20.502  0.00  0.00    +0.000 C 
ATOM     20  C   UNL     1       4.786  14.978  19.553  0.00  0.00    +0.000 C 
ATOM     21  C   UNL     1       4.618  15.889  18.339  0.00  0.00    +0.000 C 
ATOM     22  C   UNL     1       3.293  15.656  17.620  0.00  0.00    +0.000 C 
ATOM     23  C   UNL     1       2.106  15.740  18.582  0.00  0.00    +0.000 C 
ENDBRANCH  16  18
ENDBRANCH  13  15
ENDBRANCH   1  13
BRANCH   2  24
ATOM     24  C   UNL     1       1.531   8.861  21.328  0.00  0.00    +0.000 C 
BRANCH  24  25
ATOM     25  N   UNL     1       1.738   7.430  21.232  0.00  0.00    +0.000 N 
ATOM     26  C   UNL     1       2.169   6.844  20.063  0.00  0.00    +0.000 C 
ATOM     27  O   UNL     1       2.534   7.509  19.101  0.00  0.00    +0.000 OA
ATOM     28  H   UNL     1       1.433   6.831  21.991  0.00  0.00    +0.000 HD
BRANCH  26  29
ATOM     29  C   UNL     1       2.151   5.399  20.047  0.00  0.00    +0.000 A 
ATOM     30  C   UNL     1       1.212   4.522  20.560  0.00  0.00    +0.000 A 
ATOM     31  C   UNL     1       1.682   3.220  20.291  0.00  0.00    +0.000 A 
ATOM     32  C   UNL     1       2.880   3.375  19.634  0.00  0.00    +0.000 A 
ATOM     33  O   UNL     1       3.175   4.694  19.476  0.00  0.00    +0.000 OA
ENDBRANCH  26  29
ENDBRANCH  24  25
ENDBRANCH   2  24
TORSDOF 7
ENDMDL
