MODEL 1
REMARK VINA RESULT:      -6.3      0.000      0.000
REMARK  Name = 
REMARK  21 active torsions:
REMARK  status: ('A' for Active; 'I' for Inactive)
REMARK    1  A    between atoms: C_1  and  C_2
REMARK    2  A    between atoms: C_2  and  C_3
REMARK    3  A    between atoms: C_3  and  C_4
REMARK    4  A    between atoms: C_4  and  C_5
REMARK    5  A    between atoms: C_5  and  C_6
REMARK    6  A    between atoms: C_6  and  C_7
REMARK    7  A    between atoms: C_7  and  C_8
REMARK    8  A    between atoms: C_8  and  C_9
REMARK    9  A    between atoms: C_9  and  C_10
REMARK   10  A    between atoms: C_10  and  C_11
REMARK   11  A    between atoms: C_11  and  C_12
REMARK   12  A    between atoms: C_12  and  C_13
REMARK   13  A    between atoms: C_13  and  C_14
REMARK   14  A    between atoms: C_14  and  C_15
REMARK   15  A    between atoms: C_15  and  C_16
REMARK   16  A    between atoms: C_16  and  C_17
REMARK   17  A    between atoms: C_17  and  C_18
REMARK   18  A    between atoms: C_18  and  N_19
REMARK   19  A    between atoms: C_20  and  C_22
REMARK   20  A    between atoms: C_25  and  C_26
REMARK   21  A    between atoms: C_29  and  C_30
REMARK                            x       y       z     vdW  Elec       q    Type
REMARK                         _______ _______ _______ _____ _____    ______ ____
ROOT
ATOM      1  C   UNL     1       2.706   8.162  17.733  0.00  0.00    +0.000 C 
ENDROOT
BRANCH   1   2
ATOM      2  N   UNL     1       1.401   8.709  18.088  0.00  0.00    +0.000 N 
ATOM      3  C   UNL     1       1.384  10.062  18.243  0.00  0.00    +0.000 C 
ATOM      4  O   UNL     1       2.404  10.728  18.014  0.00  0.00    +0.000 OA
ATOM      5  H   UNL     1       0.658   8.107  18.423  0.00  0.00    +0.000 HD
BRANCH   3   6
ATOM      6  C   UNL     1       0.123  10.796  18.644  0.00  0.00    +0.000 C 
ATOM      7  C   UNL     1       0.053  10.554  20.160  0.00  0.00    +0.000 C 
ATOM      8  S   UNL     1       0.068  12.186  20.899  0.00  0.00    +0.000 S 
ATOM      9  C   UNL     1      -0.757  12.888  19.467  0.00  0.00    +0.000 C 
ATOM     10  N   UNL     1      -0.041  12.236  18.306  0.00  0.00    +0.000 NA
ATOM     11  H   UNL     1       0.854  12.712  18.218  0.00  0.00    +0.000 HD
BRANCH   9  12
ATOM     12  C   UNL     1      -2.270  12.660  19.562  0.00  0.00    +0.000 A 
ATOM     13  C   UNL     1      -2.958  11.911  18.573  0.00  0.00    +0.000 A 
ATOM     14  C   UNL     1      -4.313  11.597  18.675  0.00  0.00    +0.000 A 
ATOM     15  C   UNL     1      -5.050  12.092  19.742  0.00  0.00    +0.000 A 
ATOM     16  C   UNL     1      -4.402  12.855  20.721  0.00  0.00    +0.000 A 
ATOM     17  C   UNL     1      -3.026  13.127  20.638  0.00  0.00    +0.000 A 
BRANCH  15  18
ATOM     18  C   UNL     1      -6.454  11.871  19.768  0.00  0.00    +0.000 C 
ATOM     19  N   UNL     1      -7.611  11.642  19.745  0.00  0.00    +0.000 NA
ENDBRANCH  15  18
ENDBRANCH   9  12
ENDBRANCH   3   6
ENDBRANCH   1   2
BRANCH   1  20
ATOM     20  C   UNL     1       3.087   6.965  18.557  0.00  0.00    +0.000 C 
BRANCH  20  21
ATOM     21  C   UNL     1       1.847   6.245  19.075  0.00  0.00    +0.000 C 
BRANCH  21  22
ATOM     22  C   UNL     1       2.229   5.408  20.282  0.00  0.00    +0.000 C 
BRANCH  22  23
ATOM     23  C   UNL     1       1.112   4.443  20.630  0.00  0.00    +0.000 C 
BRANCH  23  24
ATOM     24  C   UNL     1       1.694   3.178  21.235  0.00  0.00    +0.000 C 
BRANCH  24  25
ATOM     25  C   UNL     1       2.761   2.610  20.319  0.00  0.00    +0.000 C 
BRANCH  25  26
ATOM     26  C   UNL     1       2.112   1.967  19.108  0.00  0.00    +0.000 C 
BRANCH  26  27
ATOM     27  C   UNL     1       3.108   1.899  17.966  0.00  0.00    +0.000 C 
BRANCH  27  28
ATOM     28  C   UNL     1       3.071   3.192  17.173  0.00  0.00    +0.000 C 
BRANCH  28  29
ATOM     29  C   UNL     1       4.353   3.971  17.398  0.00  0.00    +0.000 C 
BRANCH  29  30
ATOM     30  C   UNL     1       5.291   3.768  16.224  0.00  0.00    +0.000 C 
BRANCH  30  31
ATOM     31  C   UNL     1       5.283   5.001  15.338  0.00  0.00    +0.000 C 
BRANCH  31  32
ATOM     32  C   UNL     1       5.815   6.195  16.108  0.00  0.00    +0.000 C 
BRANCH  32  33
ATOM     33  C   UNL     1       7.147   5.846  16.749  0.00  0.00    +0.000 C 
BRANCH  33  34
ATOM     34  C   UNL     1       7.155   6.284  18.204  0.00  0.00    +0.000 C 
BRANCH  34  36
ATOM     35  C   UNL     1       7.835   8.623  17.683  0.00  0.00    +0.000 C 
ATOM     36  C   UNL     1       8.210   7.356  18.427  0.00  0.00    +0.000 C 
ENDBRANCH  34  36
ENDBRANCH  33  34
ENDBRANCH  32  33
ENDBRANCH  31  32
ENDBRANCH  30  31
ENDBRANCH  29  30
ENDBRANCH  28  29
ENDBRANCH  27  28
ENDBRANCH  26  27
ENDBRANCH  25  26
ENDBRANCH  24  25
ENDBRANCH  23  24
ENDBRANCH  22  23
ENDBRANCH  21  22
ENDBRANCH  20  21
ENDBRANCH   1  20
TORSDOF 20
ENDMDL
MODEL 2
REMARK VINA RESULT:      -6.1      1.743      2.336
REMARK  Name = 
REMARK  21 active torsions:
REMARK  status: ('A' for Active; 'I' for Inactive)
REMARK    1  A    between atoms: C_1  and  C_2
REMARK    2  A    between atoms: C_2  and  C_3
REMARK    3  A    between atoms: C_3  and  C_4
REMARK    4  A    between atoms: C_4  and  C_5
REMARK    5  A    between atoms: C_5  and  C_6
REMARK    6  A    between atoms: C_6  and  C_7
REMARK    7  A    between atoms: C_7  and  C_8
REMARK    8  A    between atoms: C_8  and  C_9
REMARK    9  A    between atoms: C_9  and  C_10
REMARK   10  A    between atoms: C_10  and  C_11
REMARK   11  A    between atoms: C_11  and  C_12
REMARK   12  A    between atoms: C_12  and  C_13
REMARK   13  A    between atoms: C_13  and  C_14
REMARK   14  A    between atoms: C_14  and  C_15
REMARK   15  A    between atoms: C_15  and  C_16
REMARK   16  A    between atoms: C_16  and  C_17
REMARK   17  A    between atoms: C_17  and  C_18
REMARK   18  A    between atoms: C_18  and  N_19
REMARK   19  A    between atoms: C_20  and  C_22
REMARK   20  A    between atoms: C_25  and  C_26
REMARK   21  A    between atoms: C_29  and  C_30
REMARK                            x       y       z     vdW  Elec       q    Type
REMARK                         _______ _______ _______ _____ _____    ______ ____
ROOT
ATOM      1  C   UNL     1       2.528   7.257  19.439  0.00  0.00    +0.000 C 
ENDROOT
BRANCH   1   2
ATOM      2  N   UNL     1       1.537   7.948  20.257  0.00  0.00    +0.000 N 
ATOM      3  C   UNL     1       1.123   9.141  19.747  0.00  0.00    +0.000 C 
ATOM      4  O   UNL     1       1.533   9.521  18.641  0.00  0.00    +0.000 OA
ATOM      5  H   UNL     1       1.372   7.673  21.218  0.00  0.00    +0.000 HD
BRANCH   3   6
ATOM      6  C   UNL     1       0.123  10.010  20.479  0.00  0.00    +0.000 C 
ATOM      7  C   UNL     1      -0.472   9.047  21.517  0.00  0.00    +0.000 C 
ATOM      8  S   UNL     1      -0.130   9.798  23.107  0.00  0.00    +0.000 S 
ATOM      9  C   UNL     1      -0.206  11.444  22.393  0.00  0.00    +0.000 C 
ATOM     10  N   UNL     1       0.562  11.290  21.099  0.00  0.00    +0.000 NA
ATOM     11  H   UNL     1       1.547  11.275  21.351  0.00  0.00    +0.000 HD
BRANCH   9  12
ATOM     12  C   UNL     1      -1.662  11.908  22.282  0.00  0.00    +0.000 A 
ATOM     13  C   UNL     1      -2.517  11.901  23.412  0.00  0.00    +0.000 A 
ATOM     14  C   UNL     1      -3.817  12.408  23.376  0.00  0.00    +0.000 A 
ATOM     15  C   UNL     1      -4.334  12.874  22.175  0.00  0.00    +0.000 A 
ATOM     16  C   UNL     1      -3.519  12.870  21.035  0.00  0.00    +0.000 A 
ATOM     17  C   UNL     1      -2.195  12.403  21.090  0.00  0.00    +0.000 A 
BRANCH  15  18
ATOM     18  C   UNL     1      -5.698  13.271  22.122  0.00  0.00    +0.000 C 
ATOM     19  N   UNL     1      -6.845  13.546  22.111  0.00  0.00    +0.000 NA
ENDBRANCH  15  18
ENDBRANCH   9  12
ENDBRANCH   3   6
ENDBRANCH   1   2
BRANCH   1  20
ATOM     20  C   UNL     1       2.452   5.761  19.560  0.00  0.00    +0.000 C 
BRANCH  20  21
ATOM     21  C   UNL     1       1.740   5.355  20.845  0.00  0.00    +0.000 C 
BRANCH  21  22
ATOM     22  C   UNL     1       2.193   3.963  21.243  0.00  0.00    +0.000 C 
BRANCH  22  23
ATOM     23  C   UNL     1       1.049   2.977  21.113  0.00  0.00    +0.000 C 
BRANCH  23  24
ATOM     24  C   UNL     1       0.832   2.630  19.651  0.00  0.00    +0.000 C 
BRANCH  24  25
ATOM     25  C   UNL     1       2.068   1.954  19.091  0.00  0.00    +0.000 C 
BRANCH  25  26
ATOM     26  C   UNL     1       2.454   2.595  17.771  0.00  0.00    +0.000 C 
BRANCH  26  27
ATOM     27  C   UNL     1       3.954   2.803  17.719  0.00  0.00    +0.000 C 
BRANCH  27  28
ATOM     28  C   UNL     1       4.329   3.535  16.444  0.00  0.00    +0.000 C 
BRANCH  28  29
ATOM     29  C   UNL     1       5.823   3.426  16.207  0.00  0.00    +0.000 C 
BRANCH  29  30
ATOM     30  C   UNL     1       6.347   4.722  15.618  0.00  0.00    +0.000 C 
BRANCH  30  31
ATOM     31  C   UNL     1       5.187   5.580  15.146  0.00  0.00    +0.000 C 
BRANCH  31  32
ATOM     32  C   UNL     1       5.255   6.947  15.799  0.00  0.00    +0.000 C 
BRANCH  32  33
ATOM     33  C   UNL     1       5.554   6.800  17.280  0.00  0.00    +0.000 C 
BRANCH  33  34
ATOM     34  C   UNL     1       6.783   7.614  17.646  0.00  0.00    +0.000 C 
BRANCH  34  36
ATOM     35  C   UNL     1       7.251   5.750  19.232  0.00  0.00    +0.000 C 
ATOM     36  C   UNL     1       7.860   6.712  18.231  0.00  0.00    +0.000 C 
ENDBRANCH  34  36
ENDBRANCH  33  34
ENDBRANCH  32  33
ENDBRANCH  31  32
ENDBRANCH  30  31
ENDBRANCH  29  30
ENDBRANCH  28  29
ENDBRANCH  27  28
ENDBRANCH  26  27
ENDBRANCH  25  26
ENDBRANCH  24  25
ENDBRANCH  23  24
ENDBRANCH  22  23
ENDBRANCH  21  22
ENDBRANCH  20  21
ENDBRANCH   1  20
TORSDOF 20
ENDMDL
MODEL 3
REMARK VINA RESULT:      -6.1      1.047      1.465
REMARK  Name = 
REMARK  21 active torsions:
REMARK  status: ('A' for Active; 'I' for Inactive)
REMARK    1  A    between atoms: C_1  and  C_2
REMARK    2  A    between atoms: C_2  and  C_3
REMARK    3  A    between atoms: C_3  and  C_4
REMARK    4  A    between atoms: C_4  and  C_5
REMARK    5  A    between atoms: C_5  and  C_6
REMARK    6  A    between atoms: C_6  and  C_7
REMARK    7  A    between atoms: C_7  and  C_8
REMARK    8  A    between atoms: C_8  and  C_9
REMARK    9  A    between atoms: C_9  and  C_10
REMARK   10  A    between atoms: C_10  and  C_11
REMARK   11  A    between atoms: C_11  and  C_12
REMARK   12  A    between atoms: C_12  and  C_13
REMARK   13  A    between atoms: C_13  and  C_14
REMARK   14  A    between atoms: C_14  and  C_15
REMARK   15  A    between atoms: C_15  and  C_16
REMARK   16  A    between atoms: C_16  and  C_17
REMARK   17  A    between atoms: C_17  and  C_18
REMARK   18  A    between atoms: C_18  and  N_19
REMARK   19  A    between atoms: C_20  and  C_22
REMARK   20  A    between atoms: C_25  and  C_26
REMARK   21  A    between atoms: C_29  and  C_30
REMARK                            x       y       z     vdW  Elec       q    Type
REMARK                         _______ _______ _______ _____ _____    ______ ____
ROOT
ATOM      1  C   UNL     1       3.077   6.876  18.224  0.00  0.00    +0.000 C 
ENDROOT
BRANCH   1   2
ATOM      2  N   UNL     1       1.890   7.612  18.642  0.00  0.00    +0.000 N 
ATOM      3  C   UNL     1       1.788   8.861  18.107  0.00  0.00    +0.000 C 
ATOM      4  O   UNL     1       2.625   9.255  17.283  0.00  0.00    +0.000 OA
ATOM      5  H   UNL     1       1.341   7.308  19.437  0.00  0.00    +0.000 HD
BRANCH   3   6
ATOM      6  C   UNL     1       0.638   9.780  18.457  0.00  0.00    +0.000 C 
ATOM      7  C   UNL     1       0.445   9.530  19.960  0.00  0.00    +0.000 C 
ATOM      8  S   UNL     1       0.675  11.127  20.738  0.00  0.00    +0.000 S 
ATOM      9  C   UNL     1       0.053  11.972  19.280  0.00  0.00    +0.000 C 
ATOM     10  N   UNL     1       0.723  11.233  18.144  0.00  0.00    +0.000 NA
ATOM     11  H   UNL     1       1.685  11.562  18.117  0.00  0.00    +0.000 HD
BRANCH   9  12
ATOM     12  C   UNL     1      -1.479  11.986  19.288  0.00  0.00    +0.000 A 
ATOM     13  C   UNL     1      -2.199  12.354  20.452  0.00  0.00    +0.000 A 
ATOM     14  C   UNL     1      -3.589  12.474  20.471  0.00  0.00    +0.000 A 
ATOM     15  C   UNL     1      -4.318  12.155  19.334  0.00  0.00    +0.000 A 
ATOM     16  C   UNL     1      -3.633  11.765  18.175  0.00  0.00    +0.000 A 
ATOM     17  C   UNL     1      -2.230  11.692  18.148  0.00  0.00    +0.000 A 
BRANCH  15  18
ATOM     18  C   UNL     1      -5.737  12.161  19.402  0.00  0.00    +0.000 C 
ATOM     19  N   UNL     1      -6.916  12.155  19.396  0.00  0.00    +0.000 NA
ENDBRANCH  15  18
ENDBRANCH   9  12
ENDBRANCH   3   6
ENDBRANCH   1   2
BRANCH   1  20
ATOM     20  C   UNL     1       3.972   6.501  19.371  0.00  0.00    +0.000 C 
BRANCH  20  21
ATOM     21  C   UNL     1       3.776   5.039  19.758  0.00  0.00    +0.000 C 
BRANCH  21  22
ATOM     22  C   UNL     1       2.630   4.938  20.747  0.00  0.00    +0.000 C 
BRANCH  22  23
ATOM     23  C   UNL     1       2.578   3.551  21.357  0.00  0.00    +0.000 C 
BRANCH  23  24
ATOM     24  C   UNL     1       1.235   2.908  21.063  0.00  0.00    +0.000 C 
BRANCH  24  25
ATOM     25  C   UNL     1       0.875   3.108  19.603  0.00  0.00    +0.000 C 
BRANCH  25  26
ATOM     26  C   UNL     1       1.185   1.848  18.818  0.00  0.00    +0.000 C 
BRANCH  26  27
ATOM     27  C   UNL     1       2.462   2.038  18.023  0.00  0.00    +0.000 C 
BRANCH  27  28
ATOM     28  C   UNL     1       2.431   3.377  17.311  0.00  0.00    +0.000 C 
BRANCH  28  29
ATOM     29  C   UNL     1       3.517   3.422  16.253  0.00  0.00    +0.000 C 
BRANCH  29  30
ATOM     30  C   UNL     1       4.837   3.820  16.887  0.00  0.00    +0.000 C 
BRANCH  30  31
ATOM     31  C   UNL     1       5.411   5.027  16.167  0.00  0.00    +0.000 C 
BRANCH  31  32
ATOM     32  C   UNL     1       6.919   5.054  16.325  0.00  0.00    +0.000 C 
BRANCH  32  33
ATOM     33  C   UNL     1       7.292   4.838  17.781  0.00  0.00    +0.000 C 
BRANCH  33  34
ATOM     34  C   UNL     1       7.468   6.176  18.477  0.00  0.00    +0.000 C 
BRANCH  34  36
ATOM     35  C   UNL     1       8.236   8.506  18.047  0.00  0.00    +0.000 C 
ATOM     36  C   UNL     1       7.535   7.300  17.454  0.00  0.00    +0.000 C 
ENDBRANCH  34  36
ENDBRANCH  33  34
ENDBRANCH  32  33
ENDBRANCH  31  32
ENDBRANCH  30  31
ENDBRANCH  29  30
ENDBRANCH  28  29
ENDBRANCH  27  28
ENDBRANCH  26  27
ENDBRANCH  25  26
ENDBRANCH  24  25
ENDBRANCH  23  24
ENDBRANCH  22  23
ENDBRANCH  21  22
ENDBRANCH  20  21
ENDBRANCH   1  20
TORSDOF 20
ENDMDL
MODEL 4
REMARK VINA RESULT:      -6.0      2.850      4.168
REMARK  Name = 
REMARK  21 active torsions:
REMARK  status: ('A' for Active; 'I' for Inactive)
REMARK    1  A    between atoms: C_1  and  C_2
REMARK    2  A    between atoms: C_2  and  C_3
REMARK    3  A    between atoms: C_3  and  C_4
REMARK    4  A    between atoms: C_4  and  C_5
REMARK    5  A    between atoms: C_5  and  C_6
REMARK    6  A    between atoms: C_6  and  C_7
REMARK    7  A    between atoms: C_7  and  C_8
REMARK    8  A    between atoms: C_8  and  C_9
REMARK    9  A    between atoms: C_9  and  C_10
REMARK   10  A    between atoms: C_10  and  C_11
REMARK   11  A    between atoms: C_11  and  C_12
REMARK   12  A    between atoms: C_12  and  C_13
REMARK   13  A    between atoms: C_13  and  C_14
REMARK   14  A    between atoms: C_14  and  C_15
REMARK   15  A    between atoms: C_15  and  C_16
REMARK   16  A    between atoms: C_16  and  C_17
REMARK   17  A    between atoms: C_17  and  C_18
REMARK   18  A    between atoms: C_18  and  N_19
REMARK   19  A    between atoms: C_20  and  C_22
REMARK   20  A    between atoms: C_25  and  C_26
REMARK   21  A    between atoms: C_29  and  C_30
REMARK                            x       y       z     vdW  Elec       q    Type
REMARK                         _______ _______ _______ _____ _____    ______ ____
ROOT
ATOM      1  C   UNL     1       1.404  11.187  18.877  0.00  0.00    +0.000 C 
ENDROOT
BRANCH   1   2
ATOM      2  N   UNL     1       0.178  11.753  19.430  0.00  0.00    +0.000 N 
ATOM      3  C   UNL     1       0.306  12.230  20.700  0.00  0.00    +0.000 C 
ATOM      4  O   UNL     1       1.411  12.225  21.259  0.00  0.00    +0.000 OA
ATOM      5  H   UNL     1      -0.719  11.576  18.995  0.00  0.00    +0.000 HD
BRANCH   3   6
ATOM      6  C   UNL     1      -0.872  12.821  21.444  0.00  0.00    +0.000 C 
ATOM      7  C   UNL     1      -1.656  13.535  20.332  0.00  0.00    +0.000 C 
ATOM      8  S   UNL     1      -3.281  12.781  20.342  0.00  0.00    +0.000 S 
ATOM      9  C   UNL     1      -3.165  12.456  22.105  0.00  0.00    +0.000 C 
ATOM     10  N   UNL     1      -1.751  11.945  22.265  0.00  0.00    +0.000 NA
ATOM     11  H   UNL     1      -1.754  10.985  21.930  0.00  0.00    +0.000 HD
BRANCH   9  12
ATOM     12  C   UNL     1      -3.542  13.710  22.901  0.00  0.00    +0.000 A 
ATOM     13  C   UNL     1      -4.651  14.508  22.523  0.00  0.00    +0.000 A 
ATOM     14  C   UNL     1      -5.086  15.598  23.278  0.00  0.00    +0.000 A 
ATOM     15  C   UNL     1      -4.372  15.975  24.407  0.00  0.00    +0.000 A 
ATOM     16  C   UNL     1      -3.257  15.218  24.791  0.00  0.00    +0.000 A 
ATOM     17  C   UNL     1      -2.853  14.092  24.054  0.00  0.00    +0.000 A 
BRANCH  15  18
ATOM     18  C   UNL     1      -4.751  17.159  25.095  0.00  0.00    +0.000 C 
ATOM     19  N   UNL     1      -5.042  18.176  25.616  0.00  0.00    +0.000 NA
ENDBRANCH  15  18
ENDBRANCH   9  12
ENDBRANCH   3   6
ENDBRANCH   1   2
BRANCH   1  20
ATOM     20  C   UNL     1       1.351   9.692  18.736  0.00  0.00    +0.000 C 
BRANCH  20  21
ATOM     21  C   UNL     1       2.198   9.227  17.557  0.00  0.00    +0.000 C 
BRANCH  21  22
ATOM     22  C   UNL     1       2.875   7.918  17.920  0.00  0.00    +0.000 C 
BRANCH  22  23
ATOM     23  C   UNL     1       1.926   7.031  18.703  0.00  0.00    +0.000 C 
BRANCH  23  24
ATOM     24  C   UNL     1       2.695   6.264  19.763  0.00  0.00    +0.000 C 
BRANCH  24  25
ATOM     25  C   UNL     1       1.746   5.787  20.846  0.00  0.00    +0.000 C 
BRANCH  25  26
ATOM     26  C   UNL     1       1.112   4.473  20.434  0.00  0.00    +0.000 C 
BRANCH  26  27
ATOM     27  C   UNL     1       1.880   3.317  21.043  0.00  0.00    +0.000 C 
BRANCH  27  28
ATOM     28  C   UNL     1       1.809   2.110  20.126  0.00  0.00    +0.000 C 
BRANCH  28  29
ATOM     29  C   UNL     1       1.325   2.535  18.753  0.00  0.00    +0.000 C 
BRANCH  29  30
ATOM     30  C   UNL     1       2.416   2.294  17.726  0.00  0.00    +0.000 C 
BRANCH  30  31
ATOM     31  C   UNL     1       2.897   3.619  17.164  0.00  0.00    +0.000 C 
BRANCH  31  32
ATOM     32  C   UNL     1       4.380   3.788  17.435  0.00  0.00    +0.000 C 
BRANCH  32  33
ATOM     33  C   UNL     1       5.029   4.561  16.301  0.00  0.00    +0.000 C 
BRANCH  33  34
ATOM     34  C   UNL     1       5.558   5.890  16.813  0.00  0.00    +0.000 C 
BRANCH  34  36
ATOM     35  C   UNL     1       7.607   5.209  18.056  0.00  0.00    +0.000 C 
ATOM     36  C   UNL     1       6.184   5.715  18.189  0.00  0.00    +0.000 C 
ENDBRANCH  34  36
ENDBRANCH  33  34
ENDBRANCH  32  33
ENDBRANCH  31  32
ENDBRANCH  30  31
ENDBRANCH  29  30
ENDBRANCH  28  29
ENDBRANCH  27  28
ENDBRANCH  26  27
ENDBRANCH  25  26
ENDBRANCH  24  25
ENDBRANCH  23  24
ENDBRANCH  22  23
ENDBRANCH  21  22
ENDBRANCH  20  21
ENDBRANCH   1  20
TORSDOF 20
ENDMDL
MODEL 5
REMARK VINA RESULT:      -5.9      2.867      4.269
REMARK  Name = 
REMARK  21 active torsions:
REMARK  status: ('A' for Active; 'I' for Inactive)
REMARK    1  A    between atoms: C_1  and  C_2
REMARK    2  A    between atoms: C_2  and  C_3
REMARK    3  A    between atoms: C_3  and  C_4
REMARK    4  A    between atoms: C_4  and  C_5
REMARK    5  A    between atoms: C_5  and  C_6
REMARK    6  A    between atoms: C_6  and  C_7
REMARK    7  A    between atoms: C_7  and  C_8
REMARK    8  A    between atoms: C_8  and  C_9
REMARK    9  A    between atoms: C_9  and  C_10
REMARK   10  A    between atoms: C_10  and  C_11
REMARK   11  A    between atoms: C_11  and  C_12
REMARK   12  A    between atoms: C_12  and  C_13
REMARK   13  A    between atoms: C_13  and  C_14
REMARK   14  A    between atoms: C_14  and  C_15
REMARK   15  A    between atoms: C_15  and  C_16
REMARK   16  A    between atoms: C_16  and  C_17
REMARK   17  A    between atoms: C_17  and  C_18
REMARK   18  A    between atoms: C_18  and  N_19
REMARK   19  A    between atoms: C_20  and  C_22
REMARK   20  A    between atoms: C_25  and  C_26
REMARK   21  A    between atoms: C_29  and  C_30
REMARK                            x       y       z     vdW  Elec       q    Type
REMARK                         _______ _______ _______ _____ _____    ______ ____
ROOT
ATOM      1  C   UNL     1       1.840   7.806  19.802  0.00  0.00    +0.000 C 
ENDROOT
BRANCH   1   2
ATOM      2  N   UNL     1       1.265   8.881  20.603  0.00  0.00    +0.000 N 
ATOM      3  C   UNL     1       0.769   9.919  19.873  0.00  0.00    +0.000 C 
ATOM      4  O   UNL     1       0.767   9.865  18.635  0.00  0.00    +0.000 OA
ATOM      5  H   UNL     1       1.448   8.945  21.597  0.00  0.00    +0.000 HD
BRANCH   3   6
ATOM      6  C   UNL     1       0.165  11.136  20.539  0.00  0.00    +0.000 C 
ATOM      7  C   UNL     1       1.069  12.278  20.050  0.00  0.00    +0.000 C 
ATOM      8  S   UNL     1      -0.025  13.414  19.199  0.00  0.00    +0.000 S 
ATOM      9  C   UNL     1      -1.396  12.957  20.264  0.00  0.00    +0.000 C 
ATOM     10  N   UNL     1      -1.277  11.452  20.348  0.00  0.00    +0.000 NA
ATOM     11  H   UNL     1      -1.634  11.087  19.469  0.00  0.00    +0.000 HD
BRANCH   9  12
ATOM     12  C   UNL     1      -1.323  13.731  21.585  0.00  0.00    +0.000 A 
ATOM     13  C   UNL     1      -1.167  15.140  21.596  0.00  0.00    +0.000 A 
ATOM     14  C   UNL     1      -1.197  15.891  22.772  0.00  0.00    +0.000 A 
ATOM     15  C   UNL     1      -1.307  15.242  23.994  0.00  0.00    +0.000 A 
ATOM     16  C   UNL     1      -1.439  13.847  24.014  0.00  0.00    +0.000 A 
ATOM     17  C   UNL     1      -1.457  13.101  22.823  0.00  0.00    +0.000 A 
BRANCH  15  18
ATOM     18  C   UNL     1      -1.210  16.006  25.189  0.00  0.00    +0.000 C 
ATOM     19  N   UNL     1      -1.194  16.636  26.185  0.00  0.00    +0.000 NA
ENDBRANCH  15  18
ENDBRANCH   9  12
ENDBRANCH   3   6
ENDBRANCH   1   2
BRANCH   1  20
ATOM     20  C   UNL     1       2.298   6.637  20.628  0.00  0.00    +0.000 C 
BRANCH  20  21
ATOM     21  C   UNL     1       1.454   5.402  20.337  0.00  0.00    +0.000 C 
BRANCH  21  22
ATOM     22  C   UNL     1       1.973   4.241  21.165  0.00  0.00    +0.000 C 
BRANCH  22  23
ATOM     23  C   UNL     1       1.253   2.960  20.790  0.00  0.00    +0.000 C 
BRANCH  23  24
ATOM     24  C   UNL     1       2.062   2.198  19.756  0.00  0.00    +0.000 C 
BRANCH  24  25
ATOM     25  C   UNL     1       1.509   2.461  18.369  0.00  0.00    +0.000 C 
BRANCH  25  26
ATOM     26  C   UNL     1       2.409   3.433  17.630  0.00  0.00    +0.000 C 
BRANCH  26  27
ATOM     27  C   UNL     1       3.858   3.015  17.790  0.00  0.00    +0.000 C 
BRANCH  27  28
ATOM     28  C   UNL     1       4.706   4.223  18.144  0.00  0.00    +0.000 C 
BRANCH  28  29
ATOM     29  C   UNL     1       4.282   5.413  17.305  0.00  0.00    +0.000 C 
BRANCH  29  30
ATOM     30  C   UNL     1       5.497   6.032  16.640  0.00  0.00    +0.000 C 
BRANCH  30  31
ATOM     31  C   UNL     1       5.532   5.647  15.172  0.00  0.00    +0.000 C 
BRANCH  31  32
ATOM     32  C   UNL     1       6.559   4.554  14.948  0.00  0.00    +0.000 C 
BRANCH  32  33
ATOM     33  C   UNL     1       6.520   4.094  13.502  0.00  0.00    +0.000 C 
BRANCH  33  34
ATOM     34  C   UNL     1       5.083   3.853  13.071  0.00  0.00    +0.000 C 
BRANCH  34  36
ATOM     35  C   UNL     1       3.932   3.309  10.930  0.00  0.00    +0.000 C 
ATOM     36  C   UNL     1       5.040   2.904  11.883  0.00  0.00    +0.000 C 
ENDBRANCH  34  36
ENDBRANCH  33  34
ENDBRANCH  32  33
ENDBRANCH  31  32
ENDBRANCH  30  31
ENDBRANCH  29  30
ENDBRANCH  28  29
ENDBRANCH  27  28
ENDBRANCH  26  27
ENDBRANCH  25  26
ENDBRANCH  24  25
ENDBRANCH  23  24
ENDBRANCH  22  23
ENDBRANCH  21  22
ENDBRANCH  20  21
ENDBRANCH   1  20
TORSDOF 20
ENDMDL
MODEL 6
REMARK VINA RESULT:      -5.9      2.043      3.566
REMARK  Name = 
REMARK  21 active torsions:
REMARK  status: ('A' for Active; 'I' for Inactive)
REMARK    1  A    between atoms: C_1  and  C_2
REMARK    2  A    between atoms: C_2  and  C_3
REMARK    3  A    between atoms: C_3  and  C_4
REMARK    4  A    between atoms: C_4  and  C_5
REMARK    5  A    between atoms: C_5  and  C_6
REMARK    6  A    between atoms: C_6  and  C_7
REMARK    7  A    between atoms: C_7  and  C_8
REMARK    8  A    between atoms: C_8  and  C_9
REMARK    9  A    between atoms: C_9  and  C_10
REMARK   10  A    between atoms: C_10  and  C_11
REMARK   11  A    between atoms: C_11  and  C_12
REMARK   12  A    between atoms: C_12  and  C_13
REMARK   13  A    between atoms: C_13  and  C_14
REMARK   14  A    between atoms: C_14  and  C_15
REMARK   15  A    between atoms: C_15  and  C_16
REMARK   16  A    between atoms: C_16  and  C_17
REMARK   17  A    between atoms: C_17  and  C_18
REMARK   18  A    between atoms: C_18  and  N_19
REMARK   19  A    between atoms: C_20  and  C_22
REMARK   20  A    between atoms: C_25  and  C_26
REMARK   21  A    between atoms: C_29  and  C_30
REMARK                            x       y       z     vdW  Elec       q    Type
REMARK                         _______ _______ _______ _____ _____    ______ ____
ROOT
ATOM      1  C   UNL     1       2.098   6.240  21.165  0.00  0.00    +0.000 C 
ENDROOT
BRANCH   1   2
ATOM      2  N   UNL     1       1.094   7.148  20.621  0.00  0.00    +0.000 N 
ATOM      3  C   UNL     1       1.075   8.378  21.206  0.00  0.00    +0.000 C 
ATOM      4  O   UNL     1       1.913   8.669  22.071  0.00  0.00    +0.000 OA
ATOM      5  H   UNL     1       0.337   6.800  20.044  0.00  0.00    +0.000 HD
BRANCH   3   6
ATOM      6  C   UNL     1       0.075   9.435  20.791  0.00  0.00    +0.000 C 
ATOM      7  C   UNL     1      -0.815   9.573  22.035  0.00  0.00    +0.000 C 
ATOM      8  S   UNL     1      -0.678  11.290  22.526  0.00  0.00    +0.000 S 
ATOM      9  C   UNL     1      -0.416  11.798  20.824  0.00  0.00    +0.000 C 
ATOM     10  N   UNL     1       0.550  10.758  20.302  0.00  0.00    +0.000 NA
ATOM     11  H   UNL     1       1.462  11.000  20.679  0.00  0.00    +0.000 HD
BRANCH   9  12
ATOM     12  C   UNL     1      -1.758  11.924  20.094  0.00  0.00    +0.000 A 
ATOM     13  C   UNL     1      -1.954  11.331  18.822  0.00  0.00    +0.000 A 
ATOM     14  C   UNL     1      -3.188  11.338  18.171  0.00  0.00    +0.000 A 
ATOM     15  C   UNL     1      -4.258  12.012  18.743  0.00  0.00    +0.000 A 
ATOM     16  C   UNL     1      -4.086  12.628  19.990  0.00  0.00    +0.000 A 
ATOM     17  C   UNL     1      -2.853  12.576  20.663  0.00  0.00    +0.000 A 
BRANCH  15  18
ATOM     18  C   UNL     1      -5.473  12.118  18.013  0.00  0.00    +0.000 C 
ATOM     19  N   UNL     1      -6.485  12.142  17.409  0.00  0.00    +0.000 NA
ENDBRANCH  15  18
ENDBRANCH   9  12
ENDBRANCH   3   6
ENDBRANCH   1   2
BRANCH   1  20
ATOM     20  C   UNL     1       2.231   4.968  20.377  0.00  0.00    +0.000 C 
BRANCH  20  21
ATOM     21  C   UNL     1       1.088   4.010  20.696  0.00  0.00    +0.000 C 
BRANCH  21  22
ATOM     22  C   UNL     1       1.237   2.762  19.846  0.00  0.00    +0.000 C 
BRANCH  22  23
ATOM     23  C   UNL     1       1.221   3.120  18.373  0.00  0.00    +0.000 C 
BRANCH  23  24
ATOM     24  C   UNL     1       2.354   2.408  17.656  0.00  0.00    +0.000 C 
BRANCH  24  25
ATOM     25  C   UNL     1       3.240   3.421  16.956  0.00  0.00    +0.000 C 
BRANCH  25  26
ATOM     26  C   UNL     1       4.605   3.456  17.617  0.00  0.00    +0.000 C 
BRANCH  26  27
ATOM     27  C   UNL     1       4.876   4.844  18.165  0.00  0.00    +0.000 C 
BRANCH  27  28
ATOM     28  C   UNL     1       6.333   4.962  18.570  0.00  0.00    +0.000 C 
BRANCH  28  29
ATOM     29  C   UNL     1       7.222   4.789  17.353  0.00  0.00    +0.000 C 
BRANCH  29  30
ATOM     30  C   UNL     1       7.109   6.007  16.456  0.00  0.00    +0.000 C 
BRANCH  30  31
ATOM     31  C   UNL     1       6.926   5.570  15.014  0.00  0.00    +0.000 C 
BRANCH  31  32
ATOM     32  C   UNL     1       6.600   4.090  14.960  0.00  0.00    +0.000 C 
BRANCH  32  33
ATOM     33  C   UNL     1       5.660   3.808  13.802  0.00  0.00    +0.000 C 
BRANCH  33  34
ATOM     34  C   UNL     1       6.456   3.425  12.566  0.00  0.00    +0.000 C 
BRANCH  34  36
ATOM     35  C   UNL     1       4.175   3.385  11.568  0.00  0.00    +0.000 C 
ATOM     36  C   UNL     1       5.553   2.754  11.542  0.00  0.00    +0.000 C 
ENDBRANCH  34  36
ENDBRANCH  33  34
ENDBRANCH  32  33
ENDBRANCH  31  32
ENDBRANCH  30  31
ENDBRANCH  29  30
ENDBRANCH  28  29
ENDBRANCH  27  28
ENDBRANCH  26  27
ENDBRANCH  25  26
ENDBRANCH  24  25
ENDBRANCH  23  24
ENDBRANCH  22  23
ENDBRANCH  21  22
ENDBRANCH  20  21
ENDBRANCH   1  20
TORSDOF 20
ENDMDL
MODEL 7
REMARK VINA RESULT:      -5.8      2.171      2.897
REMARK  Name = 
REMARK  21 active torsions:
REMARK  status: ('A' for Active; 'I' for Inactive)
REMARK    1  A    between atoms: C_1  and  C_2
REMARK    2  A    between atoms: C_2  and  C_3
REMARK    3  A    between atoms: C_3  and  C_4
REMARK    4  A    between atoms: C_4  and  C_5
REMARK    5  A    between atoms: C_5  and  C_6
REMARK    6  A    between atoms: C_6  and  C_7
REMARK    7  A    between atoms: C_7  and  C_8
REMARK    8  A    between atoms: C_8  and  C_9
REMARK    9  A    between atoms: C_9  and  C_10
REMARK   10  A    between atoms: C_10  and  C_11
REMARK   11  A    between atoms: C_11  and  C_12
REMARK   12  A    between atoms: C_12  and  C_13
REMARK   13  A    between atoms: C_13  and  C_14
REMARK   14  A    between atoms: C_14  and  C_15
REMARK   15  A    between atoms: C_15  and  C_16
REMARK   16  A    between atoms: C_16  and  C_17
REMARK   17  A    between atoms: C_17  and  C_18
REMARK   18  A    between atoms: C_18  and  N_19
REMARK   19  A    between atoms: C_20  and  C_22
REMARK   20  A    between atoms: C_25  and  C_26
REMARK   21  A    between atoms: C_29  and  C_30
REMARK                            x       y       z     vdW  Elec       q    Type
REMARK                         _______ _______ _______ _____ _____    ______ ____
ROOT
ATOM      1  C   UNL     1       2.601   8.921  17.633  0.00  0.00    +0.000 C 
ENDROOT
BRANCH   1   2
ATOM      2  N   UNL     1       1.569   9.457  18.513  0.00  0.00    +0.000 N 
ATOM      3  C   UNL     1       1.601  10.812  18.654  0.00  0.00    +0.000 C 
ATOM      4  O   UNL     1       2.414  11.485  18.006  0.00  0.00    +0.000 OA
ATOM      5  H   UNL     1       1.051   8.850  19.138  0.00  0.00    +0.000 HD
BRANCH   3   6
ATOM      6  C   UNL     1       0.626  11.536  19.556  0.00  0.00    +0.000 C 
ATOM      7  C   UNL     1      -0.264  12.295  18.560  0.00  0.00    +0.000 C 
ATOM      8  S   UNL     1      -1.927  11.706  18.869  0.00  0.00    +0.000 S 
ATOM      9  C   UNL     1      -1.548  11.417  20.600  0.00  0.00    +0.000 C 
ATOM     10  N   UNL     1      -0.181  10.772  20.547  0.00  0.00    +0.000 NA
ATOM     11  H   UNL     1      -0.330   9.809  20.257  0.00  0.00    +0.000 HD
BRANCH   9  12
ATOM     12  C   UNL     1      -1.666  12.722  21.395  0.00  0.00    +0.000 A 
ATOM     13  C   UNL     1      -2.625  13.705  21.043  0.00  0.00    +0.000 A 
ATOM     14  C   UNL     1      -2.832  14.859  21.799  0.00  0.00    +0.000 A 
ATOM     15  C   UNL     1      -2.026  15.107  22.901  0.00  0.00    +0.000 A 
ATOM     16  C   UNL     1      -1.053  14.163  23.259  0.00  0.00    +0.000 A 
ATOM     17  C   UNL     1      -0.883  12.980  22.521  0.00  0.00    +0.000 A 
BRANCH  15  18
ATOM     18  C   UNL     1      -2.162  16.343  23.589  0.00  0.00    +0.000 C 
ATOM     19  N   UNL     1      -2.250  17.341  24.211  0.00  0.00    +0.000 NA
ENDBRANCH  15  18
ENDBRANCH   9  12
ENDBRANCH   3   6
ENDBRANCH   1   2
BRANCH   1  20
ATOM     20  C   UNL     1       3.060   7.547  18.032  0.00  0.00    +0.000 C 
BRANCH  20  21
ATOM     21  C   UNL     1       1.943   6.784  18.737  0.00  0.00    +0.000 C 
BRANCH  21  22
ATOM     22  C   UNL     1       2.517   6.070  19.946  0.00  0.00    +0.000 C 
BRANCH  22  23
ATOM     23  C   UNL     1       1.529   5.050  20.477  0.00  0.00    +0.000 C 
BRANCH  23  24
ATOM     24  C   UNL     1       2.220   4.130  21.466  0.00  0.00    +0.000 C 
BRANCH  24  25
ATOM     25  C   UNL     1       2.327   2.733  20.885  0.00  0.00    +0.000 C 
BRANCH  25  26
ATOM     26  C   UNL     1       1.361   2.581  19.725  0.00  0.00    +0.000 C 
BRANCH  26  27
ATOM     27  C   UNL     1       1.954   1.659  18.678  0.00  0.00    +0.000 C 
BRANCH  27  28
ATOM     28  C   UNL     1       3.187   2.298  18.068  0.00  0.00    +0.000 C 
BRANCH  28  29
ATOM     29  C   UNL     1       2.776   3.401  17.112  0.00  0.00    +0.000 C 
BRANCH  29  30
ATOM     30  C   UNL     1       3.926   4.373  16.923  0.00  0.00    +0.000 C 
BRANCH  30  31
ATOM     31  C   UNL     1       4.945   4.187  18.031  0.00  0.00    +0.000 C 
BRANCH  31  32
ATOM     32  C   UNL     1       6.346   4.380  17.483  0.00  0.00    +0.000 C 
BRANCH  32  33
ATOM     33  C   UNL     1       6.476   5.760  16.866  0.00  0.00    +0.000 C 
BRANCH  33  34
ATOM     34  C   UNL     1       6.890   6.767  17.925  0.00  0.00    +0.000 C 
BRANCH  34  36
ATOM     35  C   UNL     1       7.868   9.058  17.868  0.00  0.00    +0.000 C 
ATOM     36  C   UNL     1       8.044   7.621  17.420  0.00  0.00    +0.000 C 
ENDBRANCH  34  36
ENDBRANCH  33  34
ENDBRANCH  32  33
ENDBRANCH  31  32
ENDBRANCH  30  31
ENDBRANCH  29  30
ENDBRANCH  28  29
ENDBRANCH  27  28
ENDBRANCH  26  27
ENDBRANCH  25  26
ENDBRANCH  24  25
ENDBRANCH  23  24
ENDBRANCH  22  23
ENDBRANCH  21  22
ENDBRANCH  20  21
ENDBRANCH   1  20
TORSDOF 20
ENDMDL
MODEL 8
REMARK VINA RESULT:      -5.7      1.613      2.726
REMARK  Name = 
REMARK  21 active torsions:
REMARK  status: ('A' for Active; 'I' for Inactive)
REMARK    1  A    between atoms: C_1  and  C_2
REMARK    2  A    between atoms: C_2  and  C_3
REMARK    3  A    between atoms: C_3  and  C_4
REMARK    4  A    between atoms: C_4  and  C_5
REMARK    5  A    between atoms: C_5  and  C_6
REMARK    6  A    between atoms: C_6  and  C_7
REMARK    7  A    between atoms: C_7  and  C_8
REMARK    8  A    between atoms: C_8  and  C_9
REMARK    9  A    between atoms: C_9  and  C_10
REMARK   10  A    between atoms: C_10  and  C_11
REMARK   11  A    between atoms: C_11  and  C_12
REMARK   12  A    between atoms: C_12  and  C_13
REMARK   13  A    between atoms: C_13  and  C_14
REMARK   14  A    between atoms: C_14  and  C_15
REMARK   15  A    between atoms: C_15  and  C_16
REMARK   16  A    between atoms: C_16  and  C_17
REMARK   17  A    between atoms: C_17  and  C_18
REMARK   18  A    between atoms: C_18  and  N_19
REMARK   19  A    between atoms: C_20  and  C_22
REMARK   20  A    between atoms: C_25  and  C_26
REMARK   21  A    between atoms: C_29  and  C_30
REMARK                            x       y       z     vdW  Elec       q    Type
REMARK                         _______ _______ _______ _____ _____    ______ ____
ROOT
ATOM      1  C   UNL     1       3.236   7.404  18.200  0.00  0.00    +0.000 C 
ENDROOT
BRANCH   1   2
ATOM      2  N   UNL     1       2.230   8.121  18.977  0.00  0.00    +0.000 N 
ATOM      3  C   UNL     1       1.799   9.279  18.401  0.00  0.00    +0.000 C 
ATOM      4  O   UNL     1       2.208   9.605  17.278  0.00  0.00    +0.000 OA
ATOM      5  H   UNL     1       2.066   7.896  19.950  0.00  0.00    +0.000 HD
BRANCH   3   6
ATOM      6  C   UNL     1       0.782  10.169  19.082  0.00  0.00    +0.000 C 
ATOM      7  C   UNL     1       0.264   9.285  20.227  0.00  0.00    +0.000 C 
ATOM      8  S   UNL     1       0.618  10.200  21.726  0.00  0.00    +0.000 S 
ATOM      9  C   UNL     1       0.444  11.764  20.862  0.00  0.00    +0.000 C 
ATOM     10  N   UNL     1       1.178  11.520  19.563  0.00  0.00    +0.000 NA
ATOM     11  H   UNL     1       2.170  11.573  19.781  0.00  0.00    +0.000 HD
BRANCH   9  12
ATOM     12  C   UNL     1      -1.036  12.151  20.758  0.00  0.00    +0.000 A 
ATOM     13  C   UNL     1      -1.708  12.130  19.510  0.00  0.00    +0.000 A 
ATOM     14  C   UNL     1      -3.076  12.378  19.388  0.00  0.00    +0.000 A 
ATOM     15  C   UNL     1      -3.808  12.734  20.512  0.00  0.00    +0.000 A 
ATOM     16  C   UNL     1      -3.163  12.786  21.755  0.00  0.00    +0.000 A 
ATOM     17  C   UNL     1      -1.796  12.488  21.879  0.00  0.00    +0.000 A 
BRANCH  15  18
ATOM     18  C   UNL     1      -5.171  13.106  20.356  0.00  0.00    +0.000 C 
ATOM     19  N   UNL     1      -6.290  13.466  20.263  0.00  0.00    +0.000 NA
ENDBRANCH  15  18
ENDBRANCH   9  12
ENDBRANCH   3   6
ENDBRANCH   1   2
BRANCH   1  20
ATOM     20  C   UNL     1       2.760   6.065  17.714  0.00  0.00    +0.000 C 
BRANCH  20  21
ATOM     21  C   UNL     1       1.622   5.543  18.585  0.00  0.00    +0.000 C 
BRANCH  21  22
ATOM     22  C   UNL     1       1.364   4.088  18.243  0.00  0.00    +0.000 C 
BRANCH  22  23
ATOM     23  C   UNL     1       0.928   3.324  19.478  0.00  0.00    +0.000 C 
BRANCH  23  24
ATOM     24  C   UNL     1       2.147   2.835  20.239  0.00  0.00    +0.000 C 
BRANCH  24  25
ATOM     25  C   UNL     1       2.943   1.874  19.377  0.00  0.00    +0.000 C 
BRANCH  25  26
ATOM     26  C   UNL     1       4.428   2.127  19.559  0.00  0.00    +0.000 C 
BRANCH  26  27
ATOM     27  C   UNL     1       4.674   3.607  19.783  0.00  0.00    +0.000 C 
BRANCH  27  28
ATOM     28  C   UNL     1       5.350   4.207  18.565  0.00  0.00    +0.000 C 
BRANCH  28  29
ATOM     29  C   UNL     1       6.336   5.276  18.997  0.00  0.00    +0.000 C 
BRANCH  29  30
ATOM     30  C   UNL     1       7.095   5.793  17.790  0.00  0.00    +0.000 C 
BRANCH  30  31
ATOM     31  C   UNL     1       7.407   4.646  16.846  0.00  0.00    +0.000 C 
BRANCH  31  32
ATOM     32  C   UNL     1       7.140   5.067  15.414  0.00  0.00    +0.000 C 
BRANCH  32  33
ATOM     33  C   UNL     1       5.646   5.074  15.146  0.00  0.00    +0.000 C 
BRANCH  33  34
ATOM     34  C   UNL     1       5.326   4.187  13.955  0.00  0.00    +0.000 C 
BRANCH  34  36
ATOM     35  C   UNL     1       6.301   2.964  12.016  0.00  0.00    +0.000 C 
ATOM     36  C   UNL     1       6.559   4.011  13.081  0.00  0.00    +0.000 C 
ENDBRANCH  34  36
ENDBRANCH  33  34
ENDBRANCH  32  33
ENDBRANCH  31  32
ENDBRANCH  30  31
ENDBRANCH  29  30
ENDBRANCH  28  29
ENDBRANCH  27  28
ENDBRANCH  26  27
ENDBRANCH  25  26
ENDBRANCH  24  25
ENDBRANCH  23  24
ENDBRANCH  22  23
ENDBRANCH  21  22
ENDBRANCH  20  21
ENDBRANCH   1  20
TORSDOF 20
ENDMDL
MODEL 9
REMARK VINA RESULT:      -5.7      6.158      9.545
REMARK  Name = 
REMARK  21 active torsions:
REMARK  status: ('A' for Active; 'I' for Inactive)
REMARK    1  A    between atoms: C_1  and  C_2
REMARK    2  A    between atoms: C_2  and  C_3
REMARK    3  A    between atoms: C_3  and  C_4
REMARK    4  A    between atoms: C_4  and  C_5
REMARK    5  A    between atoms: C_5  and  C_6
REMARK    6  A    between atoms: C_6  and  C_7
REMARK    7  A    between atoms: C_7  and  C_8
REMARK    8  A    between atoms: C_8  and  C_9
REMARK    9  A    between atoms: C_9  and  C_10
REMARK   10  A    between atoms: C_10  and  C_11
REMARK   11  A    between atoms: C_11  and  C_12
REMARK   12  A    between atoms: C_12  and  C_13
REMARK   13  A    between atoms: C_13  and  C_14
REMARK   14  A    between atoms: C_14  and  C_15
REMARK   15  A    between atoms: C_15  and  C_16
REMARK   16  A    between atoms: C_16  and  C_17
REMARK   17  A    between atoms: C_17  and  C_18
REMARK   18  A    between atoms: C_18  and  N_19
REMARK   19  A    between atoms: C_20  and  C_22
REMARK   20  A    between atoms: C_25  and  C_26
REMARK   21  A    between atoms: C_29  and  C_30
REMARK                            x       y       z     vdW  Elec       q    Type
REMARK                         _______ _______ _______ _____ _____    ______ ____
ROOT
ATOM      1  C   UNL     1       8.889   9.901  17.858  0.00  0.00    +0.000 C 
ENDROOT
BRANCH   1   2
ATOM      2  N   UNL     1       8.700  10.775  19.011  0.00  0.00    +0.000 N 
ATOM      3  C   UNL     1       9.424  11.928  18.964  0.00  0.00    +0.000 C 
ATOM      4  O   UNL     1      10.110  12.192  17.967  0.00  0.00    +0.000 OA
ATOM      5  H   UNL     1       8.266  10.431  19.859  0.00  0.00    +0.000 HD
BRANCH   3   6
ATOM      6  C   UNL     1       9.378  12.937  20.091  0.00  0.00    +0.000 C 
ATOM      7  C   UNL     1      10.822  13.459  20.143  0.00  0.00    +0.000 C 
ATOM      8  S   UNL     1      10.695  15.225  19.867  0.00  0.00    +0.000 S 
ATOM      9  C   UNL     1       9.070  15.269  20.631  0.00  0.00    +0.000 C 
ATOM     10  N   UNL     1       8.388  14.048  20.056  0.00  0.00    +0.000 NA
ATOM     11  H   UNL     1       8.120  14.291  19.106  0.00  0.00    +0.000 HD
BRANCH   9  12
ATOM     12  C   UNL     1       9.202  15.333  22.157  0.00  0.00    +0.000 A 
ATOM     13  C   UNL     1       8.463  14.456  22.990  0.00  0.00    +0.000 A 
ATOM     14  C   UNL     1       8.630  14.415  24.375  0.00  0.00    +0.000 A 
ATOM     15  C   UNL     1       9.495  15.313  24.985  0.00  0.00    +0.000 A 
ATOM     16  C   UNL     1      10.221  16.207  24.188  0.00  0.00    +0.000 A 
ATOM     17  C   UNL     1      10.085  16.210  22.789  0.00  0.00    +0.000 A 
BRANCH  15  18
ATOM     18  C   UNL     1       9.562  15.345  26.405  0.00  0.00    +0.000 C 
ATOM     19  N   UNL     1       9.589  15.314  27.583  0.00  0.00    +0.000 NA
ENDBRANCH  15  18
ENDBRANCH   9  12
ENDBRANCH   3   6
ENDBRANCH   1   2
BRANCH   1  20
ATOM     20  C   UNL     1       7.886   8.783  17.796  0.00  0.00    +0.000 C 
BRANCH  20  21
ATOM     21  C   UNL     1       8.308   7.625  18.693  0.00  0.00    +0.000 C 
BRANCH  21  22
ATOM     22  C   UNL     1       7.779   6.329  18.110  0.00  0.00    +0.000 C 
BRANCH  22  23
ATOM     23  C   UNL     1       7.094   5.506  19.183  0.00  0.00    +0.000 C 
BRANCH  23  24
ATOM     24  C   UNL     1       5.630   5.314  18.830  0.00  0.00    +0.000 C 
BRANCH  24  25
ATOM     25  C   UNL     1       5.390   5.713  17.387  0.00  0.00    +0.000 C 
BRANCH  25  26
ATOM     26  C   UNL     1       4.918   4.511  16.591  0.00  0.00    +0.000 C 
BRANCH  26  27
ATOM     27  C   UNL     1       4.268   3.503  17.518  0.00  0.00    +0.000 C 
BRANCH  27  28
ATOM     28  C   UNL     1       2.830   3.268  17.097  0.00  0.00    +0.000 C 
BRANCH  28  29
ATOM     29  C   UNL     1       2.202   2.206  17.980  0.00  0.00    +0.000 C 
BRANCH  29  30
ATOM     30  C   UNL     1       1.156   2.837  18.879  0.00  0.00    +0.000 C 
BRANCH  30  31
ATOM     31  C   UNL     1       1.527   2.618  20.334  0.00  0.00    +0.000 C 
BRANCH  31  32
ATOM     32  C   UNL     1       1.532   3.943  21.072  0.00  0.00    +0.000 C 
BRANCH  32  33
ATOM     33  C   UNL     1       2.575   4.867  20.469  0.00  0.00    +0.000 C 
BRANCH  33  34
ATOM     34  C   UNL     1       1.930   6.179  20.053  0.00  0.00    +0.000 C 
BRANCH  34  36
ATOM     35  C   UNL     1       2.555   7.838  18.304  0.00  0.00    +0.000 C 
ATOM     36  C   UNL     1       2.118   6.410  18.561  0.00  0.00    +0.000 C 
ENDBRANCH  34  36
ENDBRANCH  33  34
ENDBRANCH  32  33
ENDBRANCH  31  32
ENDBRANCH  30  31
ENDBRANCH  29  30
ENDBRANCH  28  29
ENDBRANCH  27  28
ENDBRANCH  26  27
ENDBRANCH  25  26
ENDBRANCH  24  25
ENDBRANCH  23  24
ENDBRANCH  22  23
ENDBRANCH  21  22
ENDBRANCH  20  21
ENDBRANCH   1  20
TORSDOF 20
ENDMDL
