MODEL 1
REMARK VINA RESULT:      -6.6      0.000      0.000
REMARK  Name = 
REMARK  11 active torsions:
REMARK  status: ('A' for Active; 'I' for Inactive)
REMARK    1  A    between atoms: C_1  and  N_2
REMARK    2  A    between atoms: N_2  and  C_3
REMARK    3  A    between atoms: N_2  and  C_4
REMARK    4  A    between atoms: C_4  and  C_5
REMARK    5  A    between atoms: C_5  and  C_6
REMARK    6  A    between atoms: C_6  and  N_7
REMARK    7  A    between atoms: C_8  and  C_10
REMARK    8  A    between atoms: C_13  and  N_14
REMARK    9  A    between atoms: N_14  and  C_15
REMARK   10  A    between atoms: N_14  and  C_16
REMARK   11  A    between atoms: C_24  and  N_25
REMARK                            x       y       z     vdW  Elec       q    Type
REMARK                         _______ _______ _______ _____ _____    ______ ____
ROOT
ATOM      1  C   UNL     1      -1.608  10.641  18.695  0.00  0.00    +0.000 A 
ATOM      2  C   UNL     1      -2.373   9.944  17.769  0.00  0.00    +0.000 A 
ATOM      3  C   UNL     1      -3.707  10.304  17.556  0.00  0.00    +0.000 A 
ATOM      4  C   UNL     1      -4.374  11.333  18.264  0.00  0.00    +0.000 A 
ATOM      5  C   UNL     1      -3.583  11.997  19.253  0.00  0.00    +0.000 A 
ATOM      6  C   UNL     1      -4.098  13.004  20.245  0.00  0.00    +0.000 A 
ATOM      7  O   UNL     1      -5.266  13.027  20.625  0.00  0.00    +0.000 OA
ATOM      8  C   UNL     1      -3.169  13.945  20.909  0.00  0.00    +0.000 A 
ATOM      9  C   UNL     1      -3.666  15.121  21.488  0.00  0.00    +0.000 A 
ATOM     10  C   UNL     1      -2.818  15.959  22.205  0.00  0.00    +0.000 A 
ATOM     11  C   UNL     1      -1.478  15.609  22.360  0.00  0.00    +0.000 A 
ATOM     12  C   UNL     1      -0.979  14.428  21.773  0.00  0.00    +0.000 A 
ATOM     13  C   UNL     1      -1.824  13.577  21.027  0.00  0.00    +0.000 A 
ATOM     14  N   UNL     1      -1.404  12.442  20.333  0.00  0.00    +0.000 N 
ATOM     15  C   UNL     1      -2.202  11.668  19.454  0.00  0.00    +0.000 A 
ATOM     16  H   UNL     1      -0.477  12.048  20.561  0.00  0.00    +0.000 HD
ENDROOT
BRANCH   1  18
ATOM     17  N   UNL     1       0.590  10.037  17.801  0.00  0.00    +0.000 N 
ATOM     18  C   UNL     1      -0.183  10.271  18.917  0.00  0.00    +0.000 C 
ATOM     19  O   UNL     1       0.253  10.209  20.061  0.00  0.00    +0.000 OA
ATOM     20  H   UNL     1       0.217  10.157  16.869  0.00  0.00    +0.000 HD
BRANCH  17  21
ATOM     21  C   UNL     1       1.985   9.662  17.918  0.00  0.00    +0.000 C 
BRANCH  21  22
ATOM     22  C   UNL     1       2.188   8.149  17.870  0.00  0.00    +0.000 C 
BRANCH  22  23
ATOM     23  C   UNL     1       2.305   7.501  19.258  0.00  0.00    +0.000 C 
BRANCH  23  25
ATOM     24  C   UNL     1       2.364   5.151  19.892  0.00  0.00    +0.000 C 
ATOM     25  N   UNL     1       3.101   6.259  19.280  0.00  0.00    +0.000 NA
ATOM     26  C   UNL     1       3.500   5.889  17.919  0.00  0.00    +0.000 C 
ENDBRANCH  23  25
ENDBRANCH  22  23
ENDBRANCH  21  22
ENDBRANCH  17  21
ENDBRANCH   1  18
BRANCH   4  27
ATOM     27  N   UNL     1      -5.677  11.641  17.865  0.00  0.00    +0.000 N 
ATOM     28  C   UNL     1      -6.850  10.936  18.395  0.00  0.00    +0.000 C 
ATOM     29  C   UNL     1      -6.032  12.843  17.114  0.00  0.00    +0.000 C 
ENDBRANCH   4  27
BRANCH  12  30
ATOM     30  N   UNL     1       0.445  14.115  21.987  0.00  0.00    +0.000 N 
ATOM     31  O   UNL     1       1.163  15.008  22.461  0.00  0.00    +0.000 OA
ATOM     32  O   UNL     1       0.852  12.987  21.689  0.00  0.00    +0.000 OA
ENDBRANCH  12  30
TORSDOF 7
ENDMDL
MODEL 2
REMARK VINA RESULT:      -6.6      2.333      4.721
REMARK  Name = 
REMARK  11 active torsions:
REMARK  status: ('A' for Active; 'I' for Inactive)
REMARK    1  A    between atoms: C_1  and  N_2
REMARK    2  A    between atoms: N_2  and  C_3
REMARK    3  A    between atoms: N_2  and  C_4
REMARK    4  A    between atoms: C_4  and  C_5
REMARK    5  A    between atoms: C_5  and  C_6
REMARK    6  A    between atoms: C_6  and  N_7
REMARK    7  A    between atoms: C_8  and  C_10
REMARK    8  A    between atoms: C_13  and  N_14
REMARK    9  A    between atoms: N_14  and  C_15
REMARK   10  A    between atoms: N_14  and  C_16
REMARK   11  A    between atoms: C_24  and  N_25
REMARK                            x       y       z     vdW  Elec       q    Type
REMARK                         _______ _______ _______ _____ _____    ______ ____
ROOT
ATOM      1  C   UNL     1      -0.529  11.126  20.928  0.00  0.00    +0.000 A 
ATOM      2  C   UNL     1      -0.238  11.347  22.267  0.00  0.00    +0.000 A 
ATOM      3  C   UNL     1      -1.158  12.019  23.078  0.00  0.00    +0.000 A 
ATOM      4  C   UNL     1      -2.388  12.545  22.614  0.00  0.00    +0.000 A 
ATOM      5  C   UNL     1      -2.638  12.357  21.219  0.00  0.00    +0.000 A 
ATOM      6  C   UNL     1      -3.784  12.960  20.452  0.00  0.00    +0.000 A 
ATOM      7  O   UNL     1      -4.337  14.003  20.792  0.00  0.00    +0.000 OA
ATOM      8  C   UNL     1      -4.215  12.374  19.164  0.00  0.00    +0.000 A 
ATOM      9  C   UNL     1      -5.497  12.649  18.669  0.00  0.00    +0.000 A 
ATOM     10  C   UNL     1      -5.873  12.190  17.410  0.00  0.00    +0.000 A 
ATOM     11  C   UNL     1      -4.958  11.474  16.640  0.00  0.00    +0.000 A 
ATOM     12  C   UNL     1      -3.671  11.195  17.141  0.00  0.00    +0.000 A 
ATOM     13  C   UNL     1      -3.281  11.639  18.425  0.00  0.00    +0.000 A 
ATOM     14  N   UNL     1      -2.068  11.332  19.042  0.00  0.00    +0.000 N 
ATOM     15  C   UNL     1      -1.725  11.633  20.384  0.00  0.00    +0.000 A 
ATOM     16  H   UNL     1      -1.302  10.966  18.455  0.00  0.00    +0.000 HD
ENDROOT
BRANCH   1  18
ATOM     17  N   UNL     1       0.842   9.148  20.476  0.00  0.00    +0.000 N 
ATOM     18  C   UNL     1       0.441  10.400  20.063  0.00  0.00    +0.000 C 
ATOM     19  O   UNL     1       0.827  10.918  19.021  0.00  0.00    +0.000 OA
ATOM     20  H   UNL     1       0.458   8.722  21.308  0.00  0.00    +0.000 HD
BRANCH  17  21
ATOM     21  C   UNL     1       1.790   8.369  19.705  0.00  0.00    +0.000 C 
BRANCH  21  22
ATOM     22  C   UNL     1       1.845   6.909  20.151  0.00  0.00    +0.000 C 
BRANCH  22  23
ATOM     23  C   UNL     1       2.989   6.112  19.506  0.00  0.00    +0.000 C 
BRANCH  23  25
ATOM     24  C   UNL     1       4.022   5.511  17.385  0.00  0.00    +0.000 C 
ATOM     25  N   UNL     1       2.764   5.770  18.088  0.00  0.00    +0.000 NA
ATOM     26  C   UNL     1       1.894   4.595  17.983  0.00  0.00    +0.000 C 
ENDBRANCH  23  25
ENDBRANCH  22  23
ENDBRANCH  21  22
ENDBRANCH  17  21
ENDBRANCH   1  18
BRANCH   4  27
ATOM     27  N   UNL     1      -3.244  13.101  23.567  0.00  0.00    +0.000 N 
ATOM     28  C   UNL     1      -4.182  12.289  24.351  0.00  0.00    +0.000 C 
ATOM     29  C   UNL     1      -3.117  14.464  24.076  0.00  0.00    +0.000 C 
ENDBRANCH   4  27
BRANCH  12  30
ATOM     30  N   UNL     1      -2.752  10.443  16.268  0.00  0.00    +0.000 N 
ATOM     31  O   UNL     1      -1.973   9.644  16.807  0.00  0.00    +0.000 OA
ATOM     32  O   UNL     1      -2.803  10.642  15.048  0.00  0.00    +0.000 OA
ENDBRANCH  12  30
TORSDOF 7
ENDMDL
MODEL 3
REMARK VINA RESULT:      -6.6      2.303      4.717
REMARK  Name = 
REMARK  11 active torsions:
REMARK  status: ('A' for Active; 'I' for Inactive)
REMARK    1  A    between atoms: C_1  and  N_2
REMARK    2  A    between atoms: N_2  and  C_3
REMARK    3  A    between atoms: N_2  and  C_4
REMARK    4  A    between atoms: C_4  and  C_5
REMARK    5  A    between atoms: C_5  and  C_6
REMARK    6  A    between atoms: C_6  and  N_7
REMARK    7  A    between atoms: C_8  and  C_10
REMARK    8  A    between atoms: C_13  and  N_14
REMARK    9  A    between atoms: N_14  and  C_15
REMARK   10  A    between atoms: N_14  and  C_16
REMARK   11  A    between atoms: C_24  and  N_25
REMARK                            x       y       z     vdW  Elec       q    Type
REMARK                         _______ _______ _______ _____ _____    ______ ____
ROOT
ATOM      1  C   UNL     1      -0.281  11.334  20.450  0.00  0.00    +0.000 A 
ATOM      2  C   UNL     1       0.163  11.528  21.751  0.00  0.00    +0.000 A 
ATOM      3  C   UNL     1      -0.690  12.097  22.701  0.00  0.00    +0.000 A 
ATOM      4  C   UNL     1      -2.004  12.544  22.421  0.00  0.00    +0.000 A 
ATOM      5  C   UNL     1      -2.417  12.388  21.061  0.00  0.00    +0.000 A 
ATOM      6  C   UNL     1      -3.693  12.928  20.474  0.00  0.00    +0.000 A 
ATOM      7  O   UNL     1      -4.271  13.912  20.928  0.00  0.00    +0.000 OA
ATOM      8  C   UNL     1      -4.244  12.359  19.224  0.00  0.00    +0.000 A 
ATOM      9  C   UNL     1      -5.595  12.552  18.907  0.00  0.00    +0.000 A 
ATOM     10  C   UNL     1      -6.096  12.111  17.686  0.00  0.00    +0.000 A 
ATOM     11  C   UNL     1      -5.240  11.497  16.774  0.00  0.00    +0.000 A 
ATOM     12  C   UNL     1      -3.882  11.300  17.097  0.00  0.00    +0.000 A 
ATOM     13  C   UNL     1      -3.363  11.725  18.340  0.00  0.00    +0.000 A 
ATOM     14  N   UNL     1      -2.062  11.489  18.785  0.00  0.00    +0.000 N 
ATOM     15  C   UNL     1      -1.570  11.767  20.085  0.00  0.00    +0.000 A 
ATOM     16  H   UNL     1      -1.354  11.206  18.089  0.00  0.00    +0.000 HD
ENDROOT
BRANCH   1  18
ATOM     17  N   UNL     1       0.881   9.370  19.564  0.00  0.00    +0.000 N 
ATOM     18  C   UNL     1       0.618  10.716  19.437  0.00  0.00    +0.000 C 
ATOM     19  O   UNL     1       1.070  11.406  18.530  0.00  0.00    +0.000 OA
ATOM     20  H   UNL     1       0.444   8.815  20.287  0.00  0.00    +0.000 HD
BRANCH  17  21
ATOM     21  C   UNL     1       1.752   8.683  18.632  0.00  0.00    +0.000 C 
BRANCH  21  22
ATOM     22  C   UNL     1       2.443   7.474  19.260  0.00  0.00    +0.000 C 
BRANCH  22  23
ATOM     23  C   UNL     1       2.786   6.368  18.251  0.00  0.00    +0.000 C 
BRANCH  23  25
ATOM     24  C   UNL     1       1.989   5.003  20.102  0.00  0.00    +0.000 C 
ATOM     25  N   UNL     1       2.495   5.003  18.728  0.00  0.00    +0.000 NA
ATOM     26  C   UNL     1       1.517   4.357  17.848  0.00  0.00    +0.000 C 
ENDBRANCH  23  25
ENDBRANCH  22  23
ENDBRANCH  21  22
ENDBRANCH  17  21
ENDBRANCH   1  18
BRANCH   4  27
ATOM     27  N   UNL     1      -2.768  12.996  23.499  0.00  0.00    +0.000 N 
ATOM     28  C   UNL     1      -2.677  14.370  24.006  0.00  0.00    +0.000 C 
ATOM     29  C   UNL     1      -3.907  12.265  24.048  0.00  0.00    +0.000 C 
ENDBRANCH   4  27
BRANCH  12  30
ATOM     30  N   UNL     1      -3.032  10.653  16.081  0.00  0.00    +0.000 N 
ATOM     31  O   UNL     1      -3.162  11.023  14.905  0.00  0.00    +0.000 OA
ATOM     32  O   UNL     1      -2.235   9.781  16.447  0.00  0.00    +0.000 OA
ENDBRANCH  12  30
TORSDOF 7
ENDMDL
MODEL 4
REMARK VINA RESULT:      -6.5      2.661      4.803
REMARK  Name = 
REMARK  11 active torsions:
REMARK  status: ('A' for Active; 'I' for Inactive)
REMARK    1  A    between atoms: C_1  and  N_2
REMARK    2  A    between atoms: N_2  and  C_3
REMARK    3  A    between atoms: N_2  and  C_4
REMARK    4  A    between atoms: C_4  and  C_5
REMARK    5  A    between atoms: C_5  and  C_6
REMARK    6  A    between atoms: C_6  and  N_7
REMARK    7  A    between atoms: C_8  and  C_10
REMARK    8  A    between atoms: C_13  and  N_14
REMARK    9  A    between atoms: N_14  and  C_15
REMARK   10  A    between atoms: N_14  and  C_16
REMARK   11  A    between atoms: C_24  and  N_25
REMARK                            x       y       z     vdW  Elec       q    Type
REMARK                         _______ _______ _______ _____ _____    ______ ____
ROOT
ATOM      1  C   UNL     1      -2.399  12.213  22.748  0.00  0.00    +0.000 A 
ATOM      2  C   UNL     1      -2.807  12.572  24.025  0.00  0.00    +0.000 A 
ATOM      3  C   UNL     1      -4.075  13.129  24.220  0.00  0.00    +0.000 A 
ATOM      4  C   UNL     1      -4.990  13.402  23.176  0.00  0.00    +0.000 A 
ATOM      5  C   UNL     1      -4.524  13.077  21.863  0.00  0.00    +0.000 A 
ATOM      6  C   UNL     1      -5.233  13.419  20.581  0.00  0.00    +0.000 A 
ATOM      7  O   UNL     1      -6.002  14.371  20.478  0.00  0.00    +0.000 OA
ATOM      8  C   UNL     1      -4.928  12.680  19.336  0.00  0.00    +0.000 A 
ATOM      9  C   UNL     1      -5.844  12.694  18.275  0.00  0.00    +0.000 A 
ATOM     10  C   UNL     1      -5.520  12.091  17.064  0.00  0.00    +0.000 A 
ATOM     11  C   UNL     1      -4.271  11.493  16.908  0.00  0.00    +0.000 A 
ATOM     12  C   UNL     1      -3.352  11.476  17.977  0.00  0.00    +0.000 A 
ATOM     13  C   UNL     1      -3.675  12.068  19.218  0.00  0.00    +0.000 A 
ATOM     14  N   UNL     1      -2.872  12.018  20.359  0.00  0.00    +0.000 N 
ATOM     15  C   UNL     1      -3.245  12.466  21.651  0.00  0.00    +0.000 A 
ATOM     16  H   UNL     1      -1.882  11.751  20.246  0.00  0.00    +0.000 HD
ENDROOT
BRANCH   1  18
ATOM     17  N   UNL     1      -0.905  10.275  22.858  0.00  0.00    +0.000 N 
ATOM     18  C   UNL     1      -1.056  11.606  22.535  0.00  0.00    +0.000 C 
ATOM     19  O   UNL     1      -0.151  12.290  22.070  0.00  0.00    +0.000 OA
ATOM     20  H   UNL     1      -1.687   9.722  23.181  0.00  0.00    +0.000 HD
BRANCH  17  21
ATOM     21  C   UNL     1       0.367   9.601  22.695  0.00  0.00    +0.000 C 
BRANCH  21  22
ATOM     22  C   UNL     1       0.309   8.492  21.647  0.00  0.00    +0.000 C 
BRANCH  22  23
ATOM     23  C   UNL     1       1.158   8.779  20.399  0.00  0.00    +0.000 C 
BRANCH  23  25
ATOM     24  C   UNL     1       1.682   6.406  20.540  0.00  0.00    +0.000 C 
ATOM     25  N   UNL     1       2.131   7.719  20.072  0.00  0.00    +0.000 NA
ATOM     26  C   UNL     1       2.359   7.671  18.625  0.00  0.00    +0.000 C 
ENDBRANCH  23  25
ENDBRANCH  22  23
ENDBRANCH  21  22
ENDBRANCH  17  21
ENDBRANCH   1  18
BRANCH   4  27
ATOM     27  N   UNL     1      -6.256  13.866  23.541  0.00  0.00    +0.000 N 
ATOM     28  C   UNL     1      -7.332  12.964  23.966  0.00  0.00    +0.000 C 
ATOM     29  C   UNL     1      -6.561  15.271  23.802  0.00  0.00    +0.000 C 
ENDBRANCH   4  27
BRANCH  12  30
ATOM     30  N   UNL     1      -2.047  10.835  17.737  0.00  0.00    +0.000 N 
ATOM     31  O   UNL     1      -2.026   9.828  17.015  0.00  0.00    +0.000 OA
ATOM     32  O   UNL     1      -1.042  11.331  18.261  0.00  0.00    +0.000 OA
ENDBRANCH  12  30
TORSDOF 7
ENDMDL
MODEL 5
REMARK VINA RESULT:      -6.5      8.924     11.048
REMARK  Name = 
REMARK  11 active torsions:
REMARK  status: ('A' for Active; 'I' for Inactive)
REMARK    1  A    between atoms: C_1  and  N_2
REMARK    2  A    between atoms: N_2  and  C_3
REMARK    3  A    between atoms: N_2  and  C_4
REMARK    4  A    between atoms: C_4  and  C_5
REMARK    5  A    between atoms: C_5  and  C_6
REMARK    6  A    between atoms: C_6  and  N_7
REMARK    7  A    between atoms: C_8  and  C_10
REMARK    8  A    between atoms: C_13  and  N_14
REMARK    9  A    between atoms: N_14  and  C_15
REMARK   10  A    between atoms: N_14  and  C_16
REMARK   11  A    between atoms: C_24  and  N_25
REMARK                            x       y       z     vdW  Elec       q    Type
REMARK                         _______ _______ _______ _____ _____    ______ ____
ROOT
ATOM      1  C   UNL     1       9.708  12.278  19.145  0.00  0.00    +0.000 A 
ATOM      2  C   UNL     1      10.540  12.617  18.087  0.00  0.00    +0.000 A 
ATOM      3  C   UNL     1      10.853  13.959  17.850  0.00  0.00    +0.000 A 
ATOM      4  C   UNL     1      10.338  15.039  18.606  0.00  0.00    +0.000 A 
ATOM      5  C   UNL     1       9.437  14.669  19.653  0.00  0.00    +0.000 A 
ATOM      6  C   UNL     1       8.632  15.629  20.487  0.00  0.00    +0.000 A 
ATOM      7  O   UNL     1       8.302  16.742  20.087  0.00  0.00    +0.000 OA
ATOM      8  C   UNL     1       8.091  15.211  21.799  0.00  0.00    +0.000 A 
ATOM      9  C   UNL     1       7.720  16.182  22.740  0.00  0.00    +0.000 A 
ATOM     10  C   UNL     1       7.113  15.801  23.933  0.00  0.00    +0.000 A 
ATOM     11  C   UNL     1       6.859  14.453  24.174  0.00  0.00    +0.000 A 
ATOM     12  C   UNL     1       7.236  13.478  23.228  0.00  0.00    +0.000 A 
ATOM     13  C   UNL     1       7.870  13.847  22.021  0.00  0.00    +0.000 A 
ATOM     14  N   UNL     1       8.364  12.951  21.071  0.00  0.00    +0.000 N 
ATOM     15  C   UNL     1       9.139  13.296  19.936  0.00  0.00    +0.000 A 
ATOM     16  H   UNL     1       8.045  11.971  21.116  0.00  0.00    +0.000 HD
ENDROOT
BRANCH   1  18
ATOM     17  N   UNL     1       8.952  10.091  18.344  0.00  0.00    +0.000 N 
ATOM     18  C   UNL     1       9.381  10.850  19.411  0.00  0.00    +0.000 C 
ATOM     19  O   UNL     1       9.520  10.399  20.542  0.00  0.00    +0.000 OA
ATOM     20  H   UNL     1       8.907  10.476  17.410  0.00  0.00    +0.000 HD
BRANCH  17  21
ATOM     21  C   UNL     1       8.602   8.694  18.507  0.00  0.00    +0.000 C 
BRANCH  21  22
ATOM     22  C   UNL     1       7.606   8.216  17.453  0.00  0.00    +0.000 C 
BRANCH  22  23
ATOM     23  C   UNL     1       7.328   6.706  17.510  0.00  0.00    +0.000 C 
BRANCH  23  25
ATOM     24  C   UNL     1       6.982   4.714  16.154  0.00  0.00    +0.000 C 
ATOM     25  N   UNL     1       6.736   6.153  16.278  0.00  0.00    +0.000 NA
ATOM     26  C   UNL     1       5.292   6.405  16.252  0.00  0.00    +0.000 C 
ENDBRANCH  23  25
ENDBRANCH  22  23
ENDBRANCH  21  22
ENDBRANCH  17  21
ENDBRANCH   1  18
BRANCH   4  27
ATOM     27  N   UNL     1      10.825  16.315  18.311  0.00  0.00    +0.000 N 
ATOM     28  C   UNL     1      12.038  16.858  18.932  0.00  0.00    +0.000 C 
ATOM     29  C   UNL     1      10.360  17.119  17.184  0.00  0.00    +0.000 C 
ENDBRANCH   4  27
BRANCH  12  30
ATOM     30  N   UNL     1       6.927  12.072  23.544  0.00  0.00    +0.000 N 
ATOM     31  O   UNL     1       5.737  11.773  23.725  0.00  0.00    +0.000 OA
ATOM     32  O   UNL     1       7.860  11.264  23.611  0.00  0.00    +0.000 OA
ENDBRANCH  12  30
TORSDOF 7
ENDMDL
MODEL 6
REMARK VINA RESULT:      -6.4      0.719      1.115
REMARK  Name = 
REMARK  11 active torsions:
REMARK  status: ('A' for Active; 'I' for Inactive)
REMARK    1  A    between atoms: C_1  and  N_2
REMARK    2  A    between atoms: N_2  and  C_3
REMARK    3  A    between atoms: N_2  and  C_4
REMARK    4  A    between atoms: C_4  and  C_5
REMARK    5  A    between atoms: C_5  and  C_6
REMARK    6  A    between atoms: C_6  and  N_7
REMARK    7  A    between atoms: C_8  and  C_10
REMARK    8  A    between atoms: C_13  and  N_14
REMARK    9  A    between atoms: N_14  and  C_15
REMARK   10  A    between atoms: N_14  and  C_16
REMARK   11  A    between atoms: C_24  and  N_25
REMARK                            x       y       z     vdW  Elec       q    Type
REMARK                         _______ _______ _______ _____ _____    ______ ____
ROOT
ATOM      1  C   UNL     1      -1.363  11.180  18.286  0.00  0.00    +0.000 A 
ATOM      2  C   UNL     1      -2.140  10.574  17.308  0.00  0.00    +0.000 A 
ATOM      3  C   UNL     1      -3.525  10.763  17.301  0.00  0.00    +0.000 A 
ATOM      4  C   UNL     1      -4.227  11.518  18.272  0.00  0.00    +0.000 A 
ATOM      5  C   UNL     1      -3.412  12.084  19.302  0.00  0.00    +0.000 A 
ATOM      6  C   UNL     1      -3.927  12.784  20.531  0.00  0.00    +0.000 A 
ATOM      7  O   UNL     1      -5.033  12.554  21.014  0.00  0.00    +0.000 OA
ATOM      8  C   UNL     1      -3.053  13.704  21.291  0.00  0.00    +0.000 A 
ATOM      9  C   UNL     1      -3.622  14.653  22.152  0.00  0.00    +0.000 A 
ATOM     10  C   UNL     1      -2.807  15.450  22.949  0.00  0.00    +0.000 A 
ATOM     11  C   UNL     1      -1.424  15.283  22.901  0.00  0.00    +0.000 A 
ATOM     12  C   UNL     1      -0.854  14.331  22.031  0.00  0.00    +0.000 A 
ATOM     13  C   UNL     1      -1.667  13.527  21.202  0.00  0.00    +0.000 A 
ATOM     14  N   UNL     1      -1.192  12.630  20.245  0.00  0.00    +0.000 N 
ATOM     15  C   UNL     1      -1.986  11.934  19.299  0.00  0.00    +0.000 A 
ATOM     16  H   UNL     1      -0.202  12.343  20.296  0.00  0.00    +0.000 HD
ENDROOT
BRANCH   1  18
ATOM     17  N   UNL     1       0.593   9.743  17.963  0.00  0.00    +0.000 N 
ATOM     18  C   UNL     1       0.114  10.993  18.290  0.00  0.00    +0.000 C 
ATOM     19  O   UNL     1       0.842  11.942  18.558  0.00  0.00    +0.000 OA
ATOM     20  H   UNL     1      -0.030   8.997  17.686  0.00  0.00    +0.000 HD
BRANCH  17  21
ATOM     21  C   UNL     1       2.015   9.463  17.950  0.00  0.00    +0.000 C 
BRANCH  21  22
ATOM     22  C   UNL     1       2.315   7.966  17.981  0.00  0.00    +0.000 C 
BRANCH  22  23
ATOM     23  C   UNL     1       2.255   7.356  19.389  0.00  0.00    +0.000 C 
BRANCH  23  25
ATOM     24  C   UNL     1       3.952   5.610  19.370  0.00  0.00    +0.000 C 
ATOM     25  N   UNL     1       2.519   5.905  19.432  0.00  0.00    +0.000 NA
ATOM     26  C   UNL     1       1.952   5.323  20.652  0.00  0.00    +0.000 C 
ENDBRANCH  23  25
ENDBRANCH  22  23
ENDBRANCH  21  22
ENDBRANCH  17  21
ENDBRANCH   1  18
BRANCH   4  27
ATOM     27  N   UNL     1      -5.597  11.699  18.072  0.00  0.00    +0.000 N 
ATOM     28  C   UNL     1      -6.135  12.768  17.223  0.00  0.00    +0.000 C 
ATOM     29  C   UNL     1      -6.608  10.712  18.444  0.00  0.00    +0.000 C 
ENDBRANCH   4  27
BRANCH  12  30
ATOM     30  N   UNL     1       0.614  14.201  22.039  0.00  0.00    +0.000 N 
ATOM     31  O   UNL     1       1.273  15.166  22.453  0.00  0.00    +0.000 OA
ATOM     32  O   UNL     1       1.115  13.143  21.639  0.00  0.00    +0.000 OA
ENDBRANCH  12  30
TORSDOF 7
ENDMDL
MODEL 7
REMARK VINA RESULT:      -6.4      2.347      4.828
REMARK  Name = 
REMARK  11 active torsions:
REMARK  status: ('A' for Active; 'I' for Inactive)
REMARK    1  A    between atoms: C_1  and  N_2
REMARK    2  A    between atoms: N_2  and  C_3
REMARK    3  A    between atoms: N_2  and  C_4
REMARK    4  A    between atoms: C_4  and  C_5
REMARK    5  A    between atoms: C_5  and  C_6
REMARK    6  A    between atoms: C_6  and  N_7
REMARK    7  A    between atoms: C_8  and  C_10
REMARK    8  A    between atoms: C_13  and  N_14
REMARK    9  A    between atoms: N_14  and  C_15
REMARK   10  A    between atoms: N_14  and  C_16
REMARK   11  A    between atoms: C_24  and  N_25
REMARK                            x       y       z     vdW  Elec       q    Type
REMARK                         _______ _______ _______ _____ _____    ______ ____
ROOT
ATOM      1  C   UNL     1      -0.099  10.794  20.307  0.00  0.00    +0.000 A 
ATOM      2  C   UNL     1       0.376  10.957  21.601  0.00  0.00    +0.000 A 
ATOM      3  C   UNL     1      -0.395  11.641  22.546  0.00  0.00    +0.000 A 
ATOM      4  C   UNL     1      -1.648  12.237  22.265  0.00  0.00    +0.000 A 
ATOM      5  C   UNL     1      -2.089  12.106  20.911  0.00  0.00    +0.000 A 
ATOM      6  C   UNL     1      -3.297  12.785  20.321  0.00  0.00    +0.000 A 
ATOM      7  O   UNL     1      -3.749  13.838  20.760  0.00  0.00    +0.000 OA
ATOM      8  C   UNL     1      -3.921  12.262  19.086  0.00  0.00    +0.000 A 
ATOM      9  C   UNL     1      -5.243  12.609  18.774  0.00  0.00    +0.000 A 
ATOM     10  C   UNL     1      -5.803  12.209  17.565  0.00  0.00    +0.000 A 
ATOM     11  C   UNL     1      -5.034  11.481  16.660  0.00  0.00    +0.000 A 
ATOM     12  C   UNL     1      -3.706  11.129  16.977  0.00  0.00    +0.000 A 
ATOM     13  C   UNL     1      -3.130  11.511  18.209  0.00  0.00    +0.000 A 
ATOM     14  N   UNL     1      -1.862  11.131  18.650  0.00  0.00    +0.000 N 
ATOM     15  C   UNL     1      -1.331  11.371  19.942  0.00  0.00    +0.000 A 
ATOM     16  H   UNL     1      -1.199  10.752  17.956  0.00  0.00    +0.000 HD
ENDROOT
BRANCH   1  18
ATOM     17  N   UNL     1       1.294   8.874  19.704  0.00  0.00    +0.000 N 
ATOM     18  C   UNL     1       0.712  10.055  19.301  0.00  0.00    +0.000 C 
ATOM     19  O   UNL     1       0.815  10.501  18.164  0.00  0.00    +0.000 OA
ATOM     20  H   UNL     1       1.139   8.500  20.630  0.00  0.00    +0.000 HD
BRANCH  17  21
ATOM     21  C   UNL     1       2.109   8.090  18.797  0.00  0.00    +0.000 C 
BRANCH  21  22
ATOM     22  C   UNL     1       2.432   6.704  19.353  0.00  0.00    +0.000 C 
BRANCH  22  23
ATOM     23  C   UNL     1       3.632   6.032  18.669  0.00  0.00    +0.000 C 
BRANCH  23  25
ATOM     24  C   UNL     1       5.092   4.105  18.957  0.00  0.00    +0.000 C 
ATOM     25  N   UNL     1       3.707   4.573  18.875  0.00  0.00    +0.000 NA
ATOM     26  C   UNL     1       2.991   4.197  20.098  0.00  0.00    +0.000 C 
ENDBRANCH  23  25
ENDBRANCH  22  23
ENDBRANCH  21  22
ENDBRANCH  17  21
ENDBRANCH   1  18
BRANCH   4  27
ATOM     27  N   UNL     1      -2.344  12.797  23.339  0.00  0.00    +0.000 N 
ATOM     28  C   UNL     1      -2.067  14.148  23.837  0.00  0.00    +0.000 C 
ATOM     29  C   UNL     1      -3.573  12.232  23.892  0.00  0.00    +0.000 C 
ENDBRANCH   4  27
BRANCH  12  30
ATOM     30  N   UNL     1      -2.949  10.367  15.969  0.00  0.00    +0.000 N 
ATOM     31  O   UNL     1      -2.145   9.516  16.377  0.00  0.00    +0.000 OA
ATOM     32  O   UNL     1      -3.151  10.609  14.773  0.00  0.00    +0.000 OA
ENDBRANCH  12  30
TORSDOF 7
ENDMDL
MODEL 8
REMARK VINA RESULT:      -6.4      2.430      4.870
REMARK  Name = 
REMARK  11 active torsions:
REMARK  status: ('A' for Active; 'I' for Inactive)
REMARK    1  A    between atoms: C_1  and  N_2
REMARK    2  A    between atoms: N_2  and  C_3
REMARK    3  A    between atoms: N_2  and  C_4
REMARK    4  A    between atoms: C_4  and  C_5
REMARK    5  A    between atoms: C_5  and  C_6
REMARK    6  A    between atoms: C_6  and  N_7
REMARK    7  A    between atoms: C_8  and  C_10
REMARK    8  A    between atoms: C_13  and  N_14
REMARK    9  A    between atoms: N_14  and  C_15
REMARK   10  A    between atoms: N_14  and  C_16
REMARK   11  A    between atoms: C_24  and  N_25
REMARK                            x       y       z     vdW  Elec       q    Type
REMARK                         _______ _______ _______ _____ _____    ______ ____
ROOT
ATOM      1  C   UNL     1       0.083  10.605  20.018  0.00  0.00    +0.000 A 
ATOM      2  C   UNL     1       0.621  10.734  21.291  0.00  0.00    +0.000 A 
ATOM      3  C   UNL     1      -0.088  11.423  22.280  0.00  0.00    +0.000 A 
ATOM      4  C   UNL     1      -1.336  12.055  22.066  0.00  0.00    +0.000 A 
ATOM      5  C   UNL     1      -1.842  11.958  20.732  0.00  0.00    +0.000 A 
ATOM      6  C   UNL     1      -3.056  12.677  20.209  0.00  0.00    +0.000 A 
ATOM      7  O   UNL     1      -3.460  13.734  20.685  0.00  0.00    +0.000 OA
ATOM      8  C   UNL     1      -3.751  12.190  18.997  0.00  0.00    +0.000 A 
ATOM      9  C   UNL     1      -5.076  12.577  18.752  0.00  0.00    +0.000 A 
ATOM     10  C   UNL     1      -5.701  12.211  17.563  0.00  0.00    +0.000 A 
ATOM     11  C   UNL     1      -4.994  11.478  16.613  0.00  0.00    +0.000 A 
ATOM     12  C   UNL     1      -3.663  11.086  16.863  0.00  0.00    +0.000 A 
ATOM     13  C   UNL     1      -3.021  11.434  18.073  0.00  0.00    +0.000 A 
ATOM     14  N   UNL     1      -1.745  11.013  18.449  0.00  0.00    +0.000 N 
ATOM     15  C   UNL     1      -1.148  11.219  19.718  0.00  0.00    +0.000 A 
ATOM     16  H   UNL     1      -1.124  10.629  17.719  0.00  0.00    +0.000 HD
ENDROOT
BRANCH   1  18
ATOM     17  N   UNL     1       1.477   8.708  19.344  0.00  0.00    +0.000 N 
ATOM     18  C   UNL     1       0.827   9.861  18.964  0.00  0.00    +0.000 C 
ATOM     19  O   UNL     1       0.820  10.278  17.811  0.00  0.00    +0.000 OA
ATOM     20  H   UNL     1       1.413   8.356  20.289  0.00  0.00    +0.000 HD
BRANCH  17  21
ATOM     21  C   UNL     1       2.235   7.922  18.391  0.00  0.00    +0.000 C 
BRANCH  21  22
ATOM     22  C   UNL     1       2.782   6.633  19.001  0.00  0.00    +0.000 C 
BRANCH  22  23
ATOM     23  C   UNL     1       2.846   5.462  18.008  0.00  0.00    +0.000 C 
BRANCH  23  25
ATOM     24  C   UNL     1       1.483   3.452  18.181  0.00  0.00    +0.000 C 
ATOM     25  N   UNL     1       2.700   4.133  18.631  0.00  0.00    +0.000 NA
ATOM     26  C   UNL     1       3.867   3.301  18.326  0.00  0.00    +0.000 C 
ENDBRANCH  23  25
ENDBRANCH  22  23
ENDBRANCH  21  22
ENDBRANCH  17  21
ENDBRANCH   1  18
BRANCH   4  27
ATOM     27  N   UNL     1      -1.967  12.615  23.179  0.00  0.00    +0.000 N 
ATOM     28  C   UNL     1      -1.595  13.929  23.717  0.00  0.00    +0.000 C 
ATOM     29  C   UNL     1      -3.211  12.104  23.749  0.00  0.00    +0.000 C 
ENDBRANCH   4  27
BRANCH  12  30
ATOM     30  N   UNL     1      -2.973  10.321  15.810  0.00  0.00    +0.000 N 
ATOM     31  O   UNL     1      -3.141  10.682  14.635  0.00  0.00    +0.000 OA
ATOM     32  O   UNL     1      -2.263   9.366  16.144  0.00  0.00    +0.000 OA
ENDBRANCH  12  30
TORSDOF 7
ENDMDL
MODEL 9
REMARK VINA RESULT:      -6.3      2.740      5.279
REMARK  Name = 
REMARK  11 active torsions:
REMARK  status: ('A' for Active; 'I' for Inactive)
REMARK    1  A    between atoms: C_1  and  N_2
REMARK    2  A    between atoms: N_2  and  C_3
REMARK    3  A    between atoms: N_2  and  C_4
REMARK    4  A    between atoms: C_4  and  C_5
REMARK    5  A    between atoms: C_5  and  C_6
REMARK    6  A    between atoms: C_6  and  N_7
REMARK    7  A    between atoms: C_8  and  C_10
REMARK    8  A    between atoms: C_13  and  N_14
REMARK    9  A    between atoms: N_14  and  C_15
REMARK   10  A    between atoms: N_14  and  C_16
REMARK   11  A    between atoms: C_24  and  N_25
REMARK                            x       y       z     vdW  Elec       q    Type
REMARK                         _______ _______ _______ _____ _____    ______ ____
ROOT
ATOM      1  C   UNL     1      -2.785  12.762  22.729  0.00  0.00    +0.000 A 
ATOM      2  C   UNL     1      -3.104  13.211  24.003  0.00  0.00    +0.000 A 
ATOM      3  C   UNL     1      -4.364  13.766  24.251  0.00  0.00    +0.000 A 
ATOM      4  C   UNL     1      -5.358  13.949  23.260  0.00  0.00    +0.000 A 
ATOM      5  C   UNL     1      -4.984  13.532  21.944  0.00  0.00    +0.000 A 
ATOM      6  C   UNL     1      -5.791  13.769  20.696  0.00  0.00    +0.000 A 
ATOM      7  O   UNL     1      -6.581  14.701  20.581  0.00  0.00    +0.000 OA
ATOM      8  C   UNL     1      -5.565  12.942  19.490  0.00  0.00    +0.000 A 
ATOM      9  C   UNL     1      -6.557  12.866  18.502  0.00  0.00    +0.000 A 
ATOM     10  C   UNL     1      -6.312  12.178  17.318  0.00  0.00    +0.000 A 
ATOM     11  C   UNL     1      -5.068  11.585  17.114  0.00  0.00    +0.000 A 
ATOM     12  C   UNL     1      -4.073  11.659  18.110  0.00  0.00    +0.000 A 
ATOM     13  C   UNL     1      -4.313  12.338  19.325  0.00  0.00    +0.000 A 
ATOM     14  N   UNL     1      -3.429  12.384  20.403  0.00  0.00    +0.000 N 
ATOM     15  C   UNL     1      -3.713  12.922  21.683  0.00  0.00    +0.000 A 
ATOM     16  H   UNL     1      -2.445  12.121  20.236  0.00  0.00    +0.000 HD
ENDROOT
BRANCH   1  18
ATOM     17  N   UNL     1      -1.257  10.853  22.861  0.00  0.00    +0.000 N 
ATOM     18  C   UNL     1      -1.450  12.157  22.463  0.00  0.00    +0.000 C 
ATOM     19  O   UNL     1      -0.592  12.819  21.890  0.00  0.00    +0.000 OA
ATOM     20  H   UNL     1      -2.005  10.313  23.274  0.00  0.00    +0.000 HD
BRANCH  17  21
ATOM     21  C   UNL     1       0.011  10.183  22.653  0.00  0.00    +0.000 C 
BRANCH  21  22
ATOM     22  C   UNL     1      -0.046   9.165  21.515  0.00  0.00    +0.000 C 
BRANCH  22  23
ATOM     23  C   UNL     1      -0.186   9.804  20.125  0.00  0.00    +0.000 C 
BRANCH  23  25
ATOM     24  C   UNL     1       1.178   9.380  18.154  0.00  0.00    +0.000 C 
ATOM     25  N   UNL     1       1.098  10.064  19.447  0.00  0.00    +0.000 NA
ATOM     26  C   UNL     1       1.283  11.504  19.250  0.00  0.00    +0.000 C 
ENDBRANCH  23  25
ENDBRANCH  22  23
ENDBRANCH  21  22
ENDBRANCH  17  21
ENDBRANCH   1  18
BRANCH   4  27
ATOM     27  N   UNL     1      -6.602  14.423  23.684  0.00  0.00    +0.000 N 
ATOM     28  C   UNL     1      -7.630  13.542  24.248  0.00  0.00    +0.000 C 
ATOM     29  C   UNL     1      -6.909  15.839  23.868  0.00  0.00    +0.000 C 
ENDBRANCH   4  27
BRANCH  12  30
ATOM     30  N   UNL     1      -2.777  11.018  17.822  0.00  0.00    +0.000 N 
ATOM     31  O   UNL     1      -2.751   9.780  17.761  0.00  0.00    +0.000 OA
ATOM     32  O   UNL     1      -1.787  11.739  17.653  0.00  0.00    +0.000 OA
ENDBRANCH  12  30
TORSDOF 7
ENDMDL
