MODEL 1
REMARK VINA RESULT:      -7.9      0.000      0.000
REMARK  Name = 
REMARK  8 active torsions:
REMARK  status: ('A' for Active; 'I' for Inactive)
REMARK    1  A    between atoms: C_1  and  O_2
REMARK    2  A    between atoms: O_2  and  C_3
REMARK    3  A    between atoms: C_6  and  C_7
REMARK    4  A    between atoms: C_7  and  C_9
REMARK    5  A    between atoms: C_9  and  N_10
REMARK    6  A    between atoms: C_14  and  O_15
REMARK    7  A    between atoms: C_17  and  O_18
REMARK    8  A    between atoms: O_18  and  C_19
REMARK                            x       y       z     vdW  Elec       q    Type
REMARK                         _______ _______ _______ _____ _____    ______ ____
ROOT
ATOM      1  C   UNL     1       6.369   5.855  17.285  0.00  0.00    +0.000 A 
ATOM      2  C   UNL     1       5.694   5.785  18.515  0.00  0.00    +0.000 A 
ATOM      3  C   UNL     1       4.473   5.130  18.635  0.00  0.00    +0.000 A 
ATOM      4  C   UNL     1       3.876   4.567  17.514  0.00  0.00    +0.000 A 
ATOM      5  C   UNL     1       4.477   4.761  16.259  0.00  0.00    +0.000 A 
ATOM      6  C   UNL     1       5.719   5.417  16.126  0.00  0.00    +0.000 A 
ENDROOT
BRANCH   1   8
ATOM      7  C   UNL     1       7.746   7.710  17.682  0.00  0.00    +0.000 C 
ATOM      8  O   UNL     1       7.644   6.353  17.234  0.00  0.00    +0.000 OA
ENDBRANCH   1   8
BRANCH   4   9
ATOM      9  C   UNL     1       2.648   3.721  17.633  0.00  0.00    +0.000 C 
ATOM     10  O   UNL     1       1.583   4.169  17.204  0.00  0.00    +0.000 OA
BRANCH   9  11
ATOM     11  C   UNL     1       2.729   2.359  18.290  0.00  0.00    +0.000 C 
BRANCH  11  12
ATOM     12  N   UNL     1       2.478   2.384  19.718  0.00  0.00    +0.000 N 
ATOM     13  C   UNL     1       1.270   2.652  20.316  0.00  0.00    +0.000 A 
ATOM     14  C   UNL     1       1.545   2.716  21.666  0.00  0.00    +0.000 A 
ATOM     15  N   UNL     1       2.877   2.497  21.908  0.00  0.00    +0.000 NA
ATOM     16  C   UNL     1       3.397   2.315  20.721  0.00  0.00    +0.000 A 
BRANCH  16  17
ATOM     17  O   UNL     1       4.689   2.097  20.559  0.00  0.00    +0.000 OA
ATOM     18  H   UNL     1       4.698   1.122  20.481  0.00  0.00    +0.000 HD
ENDBRANCH  16  17
ENDBRANCH  11  12
ENDBRANCH   9  11
ENDBRANCH   4   9
BRANCH   6  19
ATOM     19  O   UNL     1       6.108   5.560  14.822  0.00  0.00    +0.000 OA
BRANCH  19  20
ATOM     20  C   UNL     1       6.713   4.494  14.087  0.00  0.00    +0.000 C 
ATOM     21  C   UNL     1       5.661   3.669  13.353  0.00  0.00    +0.000 C 
ATOM     22  C   UNL     1       6.287   3.240  12.037  0.00  0.00    +0.000 C 
ATOM     23  C   UNL     1       7.385   4.245  11.726  0.00  0.00    +0.000 C 
ATOM     24  C   UNL     1       7.553   5.118  12.964  0.00  0.00    +0.000 C 
ENDBRANCH  19  20
ENDBRANCH   6  19
TORSDOF 7
ENDMDL
MODEL 2
REMARK VINA RESULT:      -7.8      0.822      1.156
REMARK  Name = 
REMARK  8 active torsions:
REMARK  status: ('A' for Active; 'I' for Inactive)
REMARK    1  A    between atoms: C_1  and  O_2
REMARK    2  A    between atoms: O_2  and  C_3
REMARK    3  A    between atoms: C_6  and  C_7
REMARK    4  A    between atoms: C_7  and  C_9
REMARK    5  A    between atoms: C_9  and  N_10
REMARK    6  A    between atoms: C_14  and  O_15
REMARK    7  A    between atoms: C_17  and  O_18
REMARK    8  A    between atoms: O_18  and  C_19
REMARK                            x       y       z     vdW  Elec       q    Type
REMARK                         _______ _______ _______ _____ _____    ______ ____
ROOT
ATOM      1  C   UNL     1       6.202   5.199  17.618  0.00  0.00    +0.000 A 
ATOM      2  C   UNL     1       5.269   5.691  18.544  0.00  0.00    +0.000 A 
ATOM      3  C   UNL     1       3.949   5.251  18.548  0.00  0.00    +0.000 A 
ATOM      4  C   UNL     1       3.523   4.337  17.593  0.00  0.00    +0.000 A 
ATOM      5  C   UNL     1       4.415   3.954  16.577  0.00  0.00    +0.000 A 
ATOM      6  C   UNL     1       5.757   4.389  16.568  0.00  0.00    +0.000 A 
ENDROOT
BRANCH   1   8
ATOM      7  C   UNL     1       7.870   6.016  19.049  0.00  0.00    +0.000 C 
ATOM      8  O   UNL     1       7.527   5.520  17.749  0.00  0.00    +0.000 OA
ENDBRANCH   1   8
BRANCH   4   9
ATOM      9  C   UNL     1       2.160   3.723  17.663  0.00  0.00    +0.000 C 
ATOM     10  O   UNL     1       1.212   4.343  17.178  0.00  0.00    +0.000 OA
BRANCH   9  11
ATOM     11  C   UNL     1       1.971   2.381  18.337  0.00  0.00    +0.000 C 
BRANCH  11  12
ATOM     12  N   UNL     1       2.043   2.441  19.785  0.00  0.00    +0.000 N 
ATOM     13  C   UNL     1       1.010   2.771  20.628  0.00  0.00    +0.000 A 
ATOM     14  C   UNL     1       1.579   2.844  21.882  0.00  0.00    +0.000 A 
ATOM     15  N   UNL     1       2.923   2.572  21.829  0.00  0.00    +0.000 NA
ATOM     16  C   UNL     1       3.159   2.348  20.561  0.00  0.00    +0.000 A 
BRANCH  16  17
ATOM     17  O   UNL     1       4.373   2.070  20.123  0.00  0.00    +0.000 OA
ATOM     18  H   UNL     1       4.192   1.923  19.173  0.00  0.00    +0.000 HD
ENDBRANCH  16  17
ENDBRANCH  11  12
ENDBRANCH   9  11
ENDBRANCH   4   9
BRANCH   6  19
ATOM     19  O   UNL     1       6.448   3.957  15.469  0.00  0.00    +0.000 OA
BRANCH  19  20
ATOM     20  C   UNL     1       6.272   4.546  14.179  0.00  0.00    +0.000 C 
ATOM     21  C   UNL     1       7.595   5.070  13.631  0.00  0.00    +0.000 C 
ATOM     22  C   UNL     1       7.566   4.836  12.131  0.00  0.00    +0.000 C 
ATOM     23  C   UNL     1       6.587   3.699  11.883  0.00  0.00    +0.000 C 
ATOM     24  C   UNL     1       5.877   3.429  13.204  0.00  0.00    +0.000 C 
ENDBRANCH  19  20
ENDBRANCH   6  19
TORSDOF 7
ENDMDL
MODEL 3
REMARK VINA RESULT:      -7.5      2.521      4.589
REMARK  Name = 
REMARK  8 active torsions:
REMARK  status: ('A' for Active; 'I' for Inactive)
REMARK    1  A    between atoms: C_1  and  O_2
REMARK    2  A    between atoms: O_2  and  C_3
REMARK    3  A    between atoms: C_6  and  C_7
REMARK    4  A    between atoms: C_7  and  C_9
REMARK    5  A    between atoms: C_9  and  N_10
REMARK    6  A    between atoms: C_14  and  O_15
REMARK    7  A    between atoms: C_17  and  O_18
REMARK    8  A    between atoms: O_18  and  C_19
REMARK                            x       y       z     vdW  Elec       q    Type
REMARK                         _______ _______ _______ _____ _____    ______ ____
ROOT
ATOM      1  C   UNL     1       5.623   6.488  17.235  0.00  0.00    +0.000 A 
ATOM      2  C   UNL     1       6.129   5.179  17.281  0.00  0.00    +0.000 A 
ATOM      3  C   UNL     1       5.286   4.079  17.391  0.00  0.00    +0.000 A 
ATOM      4  C   UNL     1       3.914   4.266  17.501  0.00  0.00    +0.000 A 
ATOM      5  C   UNL     1       3.418   5.577  17.602  0.00  0.00    +0.000 A 
ATOM      6  C   UNL     1       4.263   6.701  17.484  0.00  0.00    +0.000 A 
ENDROOT
BRANCH   1   8
ATOM      7  C   UNL     1       7.684   7.503  17.697  0.00  0.00    +0.000 C 
ATOM      8  O   UNL     1       6.461   7.534  16.953  0.00  0.00    +0.000 OA
ENDBRANCH   1   8
BRANCH   4   9
ATOM      9  C   UNL     1       2.968   3.108  17.461  0.00  0.00    +0.000 C 
ATOM     10  O   UNL     1       2.031   3.143  16.662  0.00  0.00    +0.000 OA
BRANCH   9  11
ATOM     11  C   UNL     1       3.164   1.940  18.406  0.00  0.00    +0.000 C 
BRANCH  11  12
ATOM     12  N   UNL     1       2.700   2.199  19.756  0.00  0.00    +0.000 N 
ATOM     13  C   UNL     1       1.419   2.543  20.113  0.00  0.00    +0.000 A 
ATOM     14  C   UNL     1       1.487   2.835  21.459  0.00  0.00    +0.000 A 
ATOM     15  N   UNL     1       2.766   2.681  21.931  0.00  0.00    +0.000 NA
ATOM     16  C   UNL     1       3.457   2.313  20.883  0.00  0.00    +0.000 A 
BRANCH  16  17
ATOM     17  O   UNL     1       4.757   2.091  20.955  0.00  0.00    +0.000 OA
ATOM     18  H   UNL     1       4.858   1.395  20.275  0.00  0.00    +0.000 HD
ENDBRANCH  16  17
ENDBRANCH  11  12
ENDBRANCH   9  11
ENDBRANCH   4   9
BRANCH   6  19
ATOM     19  O   UNL     1       3.601   7.884  17.668  0.00  0.00    +0.000 OA
BRANCH  19  20
ATOM     20  C   UNL     1       2.260   7.939  18.157  0.00  0.00    +0.000 C 
ATOM     21  C   UNL     1       2.224   7.810  19.676  0.00  0.00    +0.000 C 
ATOM     22  C   UNL     1       1.094   8.701  20.160  0.00  0.00    +0.000 C 
ATOM     23  C   UNL     1       0.880   9.759  19.089  0.00  0.00    +0.000 C 
ATOM     24  C   UNL     1       1.720   9.351  17.886  0.00  0.00    +0.000 C 
ENDBRANCH  19  20
ENDBRANCH   6  19
TORSDOF 7
ENDMDL
MODEL 4
REMARK VINA RESULT:      -7.4      1.238      1.556
REMARK  Name = 
REMARK  8 active torsions:
REMARK  status: ('A' for Active; 'I' for Inactive)
REMARK    1  A    between atoms: C_1  and  O_2
REMARK    2  A    between atoms: O_2  and  C_3
REMARK    3  A    between atoms: C_6  and  C_7
REMARK    4  A    between atoms: C_7  and  C_9
REMARK    5  A    between atoms: C_9  and  N_10
REMARK    6  A    between atoms: C_14  and  O_15
REMARK    7  A    between atoms: C_17  and  O_18
REMARK    8  A    between atoms: O_18  and  C_19
REMARK                            x       y       z     vdW  Elec       q    Type
REMARK                         _______ _______ _______ _____ _____    ______ ____
ROOT
ATOM      1  C   UNL     1       6.403   5.877  17.406  0.00  0.00    +0.000 A 
ATOM      2  C   UNL     1       5.408   6.347  18.279  0.00  0.00    +0.000 A 
ATOM      3  C   UNL     1       4.146   5.762  18.323  0.00  0.00    +0.000 A 
ATOM      4  C   UNL     1       3.837   4.719  17.461  0.00  0.00    +0.000 A 
ATOM      5  C   UNL     1       4.780   4.343  16.489  0.00  0.00    +0.000 A 
ATOM      6  C   UNL     1       6.064   4.924  16.439  0.00  0.00    +0.000 A 
ENDROOT
BRANCH   1   8
ATOM      7  C   UNL     1       7.751   7.784  17.602  0.00  0.00    +0.000 C 
ATOM      8  O   UNL     1       7.681   6.356  17.508  0.00  0.00    +0.000 OA
ENDBRANCH   1   8
BRANCH   4   9
ATOM      9  C   UNL     1       2.551   3.965  17.588  0.00  0.00    +0.000 C 
ATOM     10  O   UNL     1       2.330   3.045  16.798  0.00  0.00    +0.000 OA
BRANCH   9  11
ATOM     11  C   UNL     1       1.550   4.353  18.656  0.00  0.00    +0.000 C 
BRANCH  11  12
ATOM     12  N   UNL     1       1.772   3.696  19.929  0.00  0.00    +0.000 N 
ATOM     13  C   UNL     1       1.492   2.382  20.215  0.00  0.00    +0.000 A 
ATOM     14  C   UNL     1       1.721   2.251  21.568  0.00  0.00    +0.000 A 
ATOM     15  N   UNL     1       2.130   3.441  22.115  0.00  0.00    +0.000 NA
ATOM     16  C   UNL     1       2.136   4.276  21.107  0.00  0.00    +0.000 A 
BRANCH  16  17
ATOM     17  O   UNL     1       2.462   5.546  21.264  0.00  0.00    +0.000 OA
ATOM     18  H   UNL     1       1.666   5.982  20.901  0.00  0.00    +0.000 HD
ENDBRANCH  16  17
ENDBRANCH  11  12
ENDBRANCH   9  11
ENDBRANCH   4   9
BRANCH   6  19
ATOM     19  O   UNL     1       6.813   4.469  15.388  0.00  0.00    +0.000 OA
BRANCH  19  20
ATOM     20  C   UNL     1       6.526   4.830  14.036  0.00  0.00    +0.000 C 
ATOM     21  C   UNL     1       7.796   5.237  13.296  0.00  0.00    +0.000 C 
ATOM     22  C   UNL     1       7.639   4.749  11.866  0.00  0.00    +0.000 C 
ATOM     23  C   UNL     1       6.646   3.599  11.902  0.00  0.00    +0.000 C 
ATOM     24  C   UNL     1       6.051   3.567  13.304  0.00  0.00    +0.000 C 
ENDBRANCH  19  20
ENDBRANCH   6  19
TORSDOF 7
ENDMDL
MODEL 5
REMARK VINA RESULT:      -7.4      3.275      6.930
REMARK  Name = 
REMARK  8 active torsions:
REMARK  status: ('A' for Active; 'I' for Inactive)
REMARK    1  A    between atoms: C_1  and  O_2
REMARK    2  A    between atoms: O_2  and  C_3
REMARK    3  A    between atoms: C_6  and  C_7
REMARK    4  A    between atoms: C_7  and  C_9
REMARK    5  A    between atoms: C_9  and  N_10
REMARK    6  A    between atoms: C_14  and  O_15
REMARK    7  A    between atoms: C_17  and  O_18
REMARK    8  A    between atoms: O_18  and  C_19
REMARK                            x       y       z     vdW  Elec       q    Type
REMARK                         _______ _______ _______ _____ _____    ______ ____
ROOT
ATOM      1  C   UNL     1       2.744   3.848  19.740  0.00  0.00    +0.000 A 
ATOM      2  C   UNL     1       3.818   2.999  19.427  0.00  0.00    +0.000 A 
ATOM      3  C   UNL     1       5.095   3.501  19.197  0.00  0.00    +0.000 A 
ATOM      4  C   UNL     1       5.317   4.871  19.232  0.00  0.00    +0.000 A 
ATOM      5  C   UNL     1       4.217   5.730  19.401  0.00  0.00    +0.000 A 
ATOM      6  C   UNL     1       2.919   5.232  19.642  0.00  0.00    +0.000 A 
ENDROOT
BRANCH   1   8
ATOM      7  C   UNL     1       0.854   2.630  19.076  0.00  0.00    +0.000 C 
ATOM      8  O   UNL     1       1.544   3.314  20.129  0.00  0.00    +0.000 OA
ENDBRANCH   1   8
BRANCH   4   9
ATOM      9  C   UNL     1       6.700   5.434  19.148  0.00  0.00    +0.000 C 
ATOM     10  O   UNL     1       7.417   5.384  20.149  0.00  0.00    +0.000 OA
BRANCH   9  11
ATOM     11  C   UNL     1       7.181   6.066  17.858  0.00  0.00    +0.000 C 
BRANCH  11  12
ATOM     12  N   UNL     1       6.671   5.417  16.666  0.00  0.00    +0.000 N 
ATOM     13  C   UNL     1       7.247   4.347  16.025  0.00  0.00    +0.000 A 
ATOM     14  C   UNL     1       6.507   4.177  14.874  0.00  0.00    +0.000 A 
ATOM     15  N   UNL     1       5.502   5.107  14.793  0.00  0.00    +0.000 NA
ATOM     16  C   UNL     1       5.643   5.832  15.874  0.00  0.00    +0.000 A 
BRANCH  16  17
ATOM     17  O   UNL     1       4.850   6.857  16.127  0.00  0.00    +0.000 OA
ATOM     18  H   UNL     1       5.484   7.477  16.538  0.00  0.00    +0.000 HD
ENDBRANCH  16  17
ENDBRANCH  11  12
ENDBRANCH   9  11
ENDBRANCH   4   9
BRANCH   6  19
ATOM     19  O   UNL     1       1.977   6.222  19.719  0.00  0.00    +0.000 OA
BRANCH  19  20
ATOM     20  C   UNL     1       2.290   7.592  19.463  0.00  0.00    +0.000 C 
ATOM     21  C   UNL     1       1.939   7.975  18.029  0.00  0.00    +0.000 C 
ATOM     22  C   UNL     1       1.445   9.411  18.073  0.00  0.00    +0.000 C 
ATOM     23  C   UNL     1       0.943   9.659  19.487  0.00  0.00    +0.000 C 
ATOM     24  C   UNL     1       1.355   8.454  20.323  0.00  0.00    +0.000 C 
ENDBRANCH  19  20
ENDBRANCH   6  19
TORSDOF 7
ENDMDL
MODEL 6
REMARK VINA RESULT:      -7.4      1.271      1.655
REMARK  Name = 
REMARK  8 active torsions:
REMARK  status: ('A' for Active; 'I' for Inactive)
REMARK    1  A    between atoms: C_1  and  O_2
REMARK    2  A    between atoms: O_2  and  C_3
REMARK    3  A    between atoms: C_6  and  C_7
REMARK    4  A    between atoms: C_7  and  C_9
REMARK    5  A    between atoms: C_9  and  N_10
REMARK    6  A    between atoms: C_14  and  O_15
REMARK    7  A    between atoms: C_17  and  O_18
REMARK    8  A    between atoms: O_18  and  C_19
REMARK                            x       y       z     vdW  Elec       q    Type
REMARK                         _______ _______ _______ _____ _____    ______ ____
ROOT
ATOM      1  C   UNL     1       5.870   6.432  16.967  0.00  0.00    +0.000 A 
ATOM      2  C   UNL     1       4.776   6.870  17.730  0.00  0.00    +0.000 A 
ATOM      3  C   UNL     1       3.641   6.081  17.889  0.00  0.00    +0.000 A 
ATOM      4  C   UNL     1       3.557   4.852  17.249  0.00  0.00    +0.000 A 
ATOM      5  C   UNL     1       4.587   4.477  16.369  0.00  0.00    +0.000 A 
ATOM      6  C   UNL     1       5.746   5.265  16.206  0.00  0.00    +0.000 A 
ENDROOT
BRANCH   1   8
ATOM      7  C   UNL     1       7.792   7.007  18.179  0.00  0.00    +0.000 C 
ATOM      8  O   UNL     1       7.036   7.151  16.971  0.00  0.00    +0.000 OA
ENDBRANCH   1   8
BRANCH   4   9
ATOM      9  C   UNL     1       2.426   3.912  17.522  0.00  0.00    +0.000 C 
ATOM     10  O   UNL     1       1.299   4.219  17.130  0.00  0.00    +0.000 OA
BRANCH   9  11
ATOM     11  C   UNL     1       2.679   2.628  18.285  0.00  0.00    +0.000 C 
BRANCH  11  12
ATOM     12  N   UNL     1       2.376   2.721  19.700  0.00  0.00    +0.000 N 
ATOM     13  C   UNL     1       3.286   2.623  20.725  0.00  0.00    +0.000 A 
ATOM     14  C   UNL     1       2.530   2.618  21.878  0.00  0.00    +0.000 A 
ATOM     15  N   UNL     1       1.192   2.710  21.589  0.00  0.00    +0.000 NA
ATOM     16  C   UNL     1       1.145   2.758  20.282  0.00  0.00    +0.000 A 
BRANCH  16  17
ATOM     17  O   UNL     1      -0.004   2.827  19.634  0.00  0.00    +0.000 OA
ATOM     18  H   UNL     1       0.299   3.164  18.767  0.00  0.00    +0.000 HD
ENDBRANCH  16  17
ENDBRANCH  11  12
ENDBRANCH   9  11
ENDBRANCH   4   9
BRANCH   6  19
ATOM     19  O   UNL     1       6.602   4.762  15.264  0.00  0.00    +0.000 OA
BRANCH  19  20
ATOM     20  C   UNL     1       6.355   4.893  13.863  0.00  0.00    +0.000 C 
ATOM     21  C   UNL     1       7.655   5.105  13.096  0.00  0.00    +0.000 C 
ATOM     22  C   UNL     1       7.499   4.382  11.769  0.00  0.00    +0.000 C 
ATOM     23  C   UNL     1       6.449   3.303  11.980  0.00  0.00    +0.000 C 
ATOM     24  C   UNL     1       5.831   3.544  13.351  0.00  0.00    +0.000 C 
ENDBRANCH  19  20
ENDBRANCH   6  19
TORSDOF 7
ENDMDL
MODEL 7
REMARK VINA RESULT:      -7.4      3.388      7.095
REMARK  Name = 
REMARK  8 active torsions:
REMARK  status: ('A' for Active; 'I' for Inactive)
REMARK    1  A    between atoms: C_1  and  O_2
REMARK    2  A    between atoms: O_2  and  C_3
REMARK    3  A    between atoms: C_6  and  C_7
REMARK    4  A    between atoms: C_7  and  C_9
REMARK    5  A    between atoms: C_9  and  N_10
REMARK    6  A    between atoms: C_14  and  O_15
REMARK    7  A    between atoms: C_17  and  O_18
REMARK    8  A    between atoms: O_18  and  C_19
REMARK                            x       y       z     vdW  Elec       q    Type
REMARK                         _______ _______ _______ _____ _____    ______ ____
ROOT
ATOM      1  C   UNL     1       2.630   3.769  19.911  0.00  0.00    +0.000 A 
ATOM      2  C   UNL     1       3.724   2.971  19.541  0.00  0.00    +0.000 A 
ATOM      3  C   UNL     1       4.969   3.529  19.269  0.00  0.00    +0.000 A 
ATOM      4  C   UNL     1       5.136   4.907  19.319  0.00  0.00    +0.000 A 
ATOM      5  C   UNL     1       4.010   5.716  19.546  0.00  0.00    +0.000 A 
ATOM      6  C   UNL     1       2.744   5.161  19.830  0.00  0.00    +0.000 A 
ENDROOT
BRANCH   1   8
ATOM      7  C   UNL     1       0.654   2.682  19.271  0.00  0.00    +0.000 C 
ATOM      8  O   UNL     1       1.469   3.180  20.339  0.00  0.00    +0.000 OA
ENDBRANCH   1   8
BRANCH   4   9
ATOM      9  C   UNL     1       6.490   5.528  19.189  0.00  0.00    +0.000 C 
ATOM     10  O   UNL     1       7.319   5.320  20.077  0.00  0.00    +0.000 OA
BRANCH   9  11
ATOM     11  C   UNL     1       6.807   6.407  17.997  0.00  0.00    +0.000 C 
BRANCH  11  12
ATOM     12  N   UNL     1       6.538   5.775  16.720  0.00  0.00    +0.000 N 
ATOM     13  C   UNL     1       5.520   6.106  15.859  0.00  0.00    +0.000 A 
ATOM     14  C   UNL     1       5.564   5.151  14.865  0.00  0.00    +0.000 A 
ATOM     15  N   UNL     1       6.574   4.250  15.094  0.00  0.00    +0.000 NA
ATOM     16  C   UNL     1       7.120   4.653  16.213  0.00  0.00    +0.000 A 
BRANCH  16  17
ATOM     17  O   UNL     1       8.128   4.001  16.763  0.00  0.00    +0.000 OA
ATOM     18  H   UNL     1       7.661   3.509  17.468  0.00  0.00    +0.000 HD
ENDBRANCH  16  17
ENDBRANCH  11  12
ENDBRANCH   9  11
ENDBRANCH   4   9
BRANCH   6  19
ATOM     19  O   UNL     1       1.766   6.109  19.962  0.00  0.00    +0.000 OA
BRANCH  19  20
ATOM     20  C   UNL     1       2.062   7.506  20.013  0.00  0.00    +0.000 C 
ATOM     21  C   UNL     1       1.692   8.193  18.703  0.00  0.00    +0.000 C 
ATOM     22  C   UNL     1       1.183   9.577  19.068  0.00  0.00    +0.000 C 
ATOM     23  C   UNL     1       0.694   9.500  20.506  0.00  0.00    +0.000 C 
ATOM     24  C   UNL     1       1.127   8.145  21.051  0.00  0.00    +0.000 C 
ENDBRANCH  19  20
ENDBRANCH   6  19
TORSDOF 7
ENDMDL
MODEL 8
REMARK VINA RESULT:      -7.3      1.262      1.407
REMARK  Name = 
REMARK  8 active torsions:
REMARK  status: ('A' for Active; 'I' for Inactive)
REMARK    1  A    between atoms: C_1  and  O_2
REMARK    2  A    between atoms: O_2  and  C_3
REMARK    3  A    between atoms: C_6  and  C_7
REMARK    4  A    between atoms: C_7  and  C_9
REMARK    5  A    between atoms: C_9  and  N_10
REMARK    6  A    between atoms: C_14  and  O_15
REMARK    7  A    between atoms: C_17  and  O_18
REMARK    8  A    between atoms: O_18  and  C_19
REMARK                            x       y       z     vdW  Elec       q    Type
REMARK                         _______ _______ _______ _____ _____    ______ ____
ROOT
ATOM      1  C   UNL     1       5.716   6.610  17.009  0.00  0.00    +0.000 A 
ATOM      2  C   UNL     1       4.733   6.575  18.011  0.00  0.00    +0.000 A 
ATOM      3  C   UNL     1       3.848   5.508  18.122  0.00  0.00    +0.000 A 
ATOM      4  C   UNL     1       3.897   4.469  17.202  0.00  0.00    +0.000 A 
ATOM      5  C   UNL     1       4.782   4.572  16.114  0.00  0.00    +0.000 A 
ATOM      6  C   UNL     1       5.689   5.645  15.996  0.00  0.00    +0.000 A 
ENDROOT
BRANCH   1   8
ATOM      7  C   UNL     1       7.767   7.291  17.917  0.00  0.00    +0.000 C 
ATOM      8  O   UNL     1       6.679   7.583  17.031  0.00  0.00    +0.000 OA
ENDBRANCH   1   8
BRANCH   4   9
ATOM      9  C   UNL     1       3.071   3.235  17.382  0.00  0.00    +0.000 C 
ATOM     10  O   UNL     1       2.139   3.034  16.601  0.00  0.00    +0.000 OA
BRANCH   9  11
ATOM     11  C   UNL     1       3.377   2.281  18.517  0.00  0.00    +0.000 C 
BRANCH  11  12
ATOM     12  N   UNL     1       2.670   2.590  19.745  0.00  0.00    +0.000 N 
ATOM     13  C   UNL     1       3.245   2.769  20.980  0.00  0.00    +0.000 A 
ATOM     14  C   UNL     1       2.185   2.889  21.855  0.00  0.00    +0.000 A 
ATOM     15  N   UNL     1       0.987   2.788  21.194  0.00  0.00    +0.000 NA
ATOM     16  C   UNL     1       1.322   2.600  19.943  0.00  0.00    +0.000 A 
BRANCH  16  17
ATOM     17  O   UNL     1       0.411   2.434  19.002  0.00  0.00    +0.000 OA
ATOM     18  H   UNL     1       0.765   3.020  18.303  0.00  0.00    +0.000 HD
ENDBRANCH  16  17
ENDBRANCH  11  12
ENDBRANCH   9  11
ENDBRANCH   4   9
BRANCH   6  19
ATOM     19  O   UNL     1       6.422   5.596  14.841  0.00  0.00    +0.000 OA
BRANCH  19  20
ATOM     20  C   UNL     1       6.621   4.381  14.117  0.00  0.00    +0.000 C 
ATOM     21  C   UNL     1       5.338   3.945  13.416  0.00  0.00    +0.000 C 
ATOM     22  C   UNL     1       5.756   3.316  12.098  0.00  0.00    +0.000 C 
ATOM     23  C   UNL     1       7.119   3.894  11.750  0.00  0.00    +0.000 C 
ATOM     24  C   UNL     1       7.596   4.675  12.968  0.00  0.00    +0.000 C 
ENDBRANCH  19  20
ENDBRANCH   6  19
TORSDOF 7
ENDMDL
MODEL 9
REMARK VINA RESULT:      -7.3      1.368      2.018
REMARK  Name = 
REMARK  8 active torsions:
REMARK  status: ('A' for Active; 'I' for Inactive)
REMARK    1  A    between atoms: C_1  and  O_2
REMARK    2  A    between atoms: O_2  and  C_3
REMARK    3  A    between atoms: C_6  and  C_7
REMARK    4  A    between atoms: C_7  and  C_9
REMARK    5  A    between atoms: C_9  and  N_10
REMARK    6  A    between atoms: C_14  and  O_15
REMARK    7  A    between atoms: C_17  and  O_18
REMARK    8  A    between atoms: O_18  and  C_19
REMARK                            x       y       z     vdW  Elec       q    Type
REMARK                         _______ _______ _______ _____ _____    ______ ____
ROOT
ATOM      1  C   UNL     1       6.820   6.395  17.251  0.00  0.00    +0.000 A 
ATOM      2  C   UNL     1       6.591   6.320  18.635  0.00  0.00    +0.000 A 
ATOM      3  C   UNL     1       5.867   5.272  19.194  0.00  0.00    +0.000 A 
ATOM      4  C   UNL     1       5.316   4.297  18.373  0.00  0.00    +0.000 A 
ATOM      5  C   UNL     1       5.419   4.448  16.980  0.00  0.00    +0.000 A 
ATOM      6  C   UNL     1       6.157   5.502  16.402  0.00  0.00    +0.000 A 
ENDROOT
BRANCH   1   8
ATOM      7  C   UNL     1       8.008   8.367  17.693  0.00  0.00    +0.000 C 
ATOM      8  O   UNL     1       7.679   7.338  16.752  0.00  0.00    +0.000 OA
ENDBRANCH   1   8
BRANCH   4   9
ATOM      9  C   UNL     1       4.669   3.077  18.948  0.00  0.00    +0.000 C 
ATOM     10  O   UNL     1       5.252   2.473  19.850  0.00  0.00    +0.000 OA
BRANCH   9  11
ATOM     11  C   UNL     1       3.339   2.599  18.402  0.00  0.00    +0.000 C 
BRANCH  11  12
ATOM     12  N   UNL     1       2.192   3.174  19.078  0.00  0.00    +0.000 N 
ATOM     13  C   UNL     1       2.227   4.211  19.978  0.00  0.00    +0.000 A 
ATOM     14  C   UNL     1       0.940   4.309  20.464  0.00  0.00    +0.000 A 
ATOM     15  N   UNL     1       0.125   3.366  19.890  0.00  0.00    +0.000 NA
ATOM     16  C   UNL     1       0.913   2.706  19.080  0.00  0.00    +0.000 A 
BRANCH  16  17
ATOM     17  O   UNL     1       0.470   1.690  18.362  0.00  0.00    +0.000 OA
ATOM     18  H   UNL     1       0.787   1.947  17.473  0.00  0.00    +0.000 HD
ENDBRANCH  16  17
ENDBRANCH  11  12
ENDBRANCH   9  11
ENDBRANCH   4   9
BRANCH   6  19
ATOM     19  O   UNL     1       6.089   5.512  15.035  0.00  0.00    +0.000 OA
BRANCH  19  20
ATOM     20  C   UNL     1       6.596   4.438  14.241  0.00  0.00    +0.000 C 
ATOM     21  C   UNL     1       5.480   3.772  13.443  0.00  0.00    +0.000 C 
ATOM     22  C   UNL     1       6.082   3.365  12.110  0.00  0.00    +0.000 C 
ATOM     23  C   UNL     1       7.282   4.271  11.876  0.00  0.00    +0.000 C 
ATOM     24  C   UNL     1       7.516   5.042  13.170  0.00  0.00    +0.000 C 
ENDBRANCH  19  20
ENDBRANCH   6  19
TORSDOF 7
ENDMDL
