MODEL 1
REMARK VINA RESULT:      -8.5      0.000      0.000
REMARK  Name = 
REMARK  5 active torsions:
REMARK  status: ('A' for Active; 'I' for Inactive)
REMARK    1  A    between atoms: C_1  and  N_2
REMARK    2  A    between atoms: N_2  and  C_3
REMARK    3  A    between atoms: C_4  and  C_6
REMARK    4  A    between atoms: C_9  and  C_10
REMARK    5  A    between atoms: C_13  and  C_14
REMARK                            x       y       z     vdW  Elec       q    Type
REMARK                         _______ _______ _______ _____ _____    ______ ____
ROOT
ATOM      1  C   UNL     1       1.100   8.094  20.663  0.00  0.00    +0.000 A 
ATOM      2  C   UNL     1       1.614   8.368  19.388  0.00  0.00    +0.000 A 
ATOM      3  C   UNL     1       2.233   7.368  18.635  0.00  0.00    +0.000 A 
ATOM      4  C   UNL     1       2.257   6.049  19.093  0.00  0.00    +0.000 A 
ATOM      5  C   UNL     1       1.766   5.765  20.370  0.00  0.00    +0.000 A 
ATOM      6  C   UNL     1       1.195   6.782  21.149  0.00  0.00    +0.000 A 
ENDROOT
BRANCH   4   7
ATOM      7  C   UNL     1       2.810   4.932  18.275  0.00  0.00    +0.000 C 
ATOM      8  O   UNL     1       2.007   4.181  17.725  0.00  0.00    +0.000 OA
ATOM      9  N   UNL     1       4.191   4.786  18.150  0.00  0.00    +0.000 N 
ATOM     10  C   UNL     1       4.723   3.631  17.389  0.00  0.00    +0.000 C 
ATOM     11  C   UNL     1       5.481   4.074  16.120  0.00  0.00    +0.000 C 
ATOM     12  C   UNL     1       6.392   5.195  16.465  0.00  0.00    +0.000 A 
ATOM     13  N   UNL     1       7.407   5.614  15.707  0.00  0.00    +0.000 NA
ATOM     14  N   UNL     1       7.891   6.672  16.391  0.00  0.00    +0.000 N 
ATOM     15  C   UNL     1       7.234   6.919  17.559  0.00  0.00    +0.000 A 
ATOM     16  C   UNL     1       6.241   5.971  17.632  0.00  0.00    +0.000 A 
ATOM     17  C   UNL     1       5.192   5.752  18.647  0.00  0.00    +0.000 C 
ATOM     18  H   UNL     1       8.671   7.187  15.992  0.00  0.00    +0.000 HD
ENDBRANCH   4   7
BRANCH   1  22
ATOM     19  C   UNL     1      -0.020  11.297  21.765  0.00  0.00    +0.000 A 
ATOM     20  C   UNL     1      -0.490  10.598  22.860  0.00  0.00    +0.000 A 
ATOM     21  C   UNL     1      -0.134   9.243  22.666  0.00  0.00    +0.000 A 
ATOM     22  C   UNL     1       0.544   9.180  21.465  0.00  0.00    +0.000 A 
ATOM     23  O   UNL     1       0.643  10.433  20.936  0.00  0.00    +0.000 OA
BRANCH  19  27
ATOM     24  C   UNL     1      -1.136  14.565  20.238  0.00  0.00    +0.000 C 
ATOM     25  N   UNL     1      -1.110  13.153  20.565  0.00  0.00    +0.000 N 
ATOM     26  C   UNL     1      -2.179  12.311  20.048  0.00  0.00    +0.000 C 
ATOM     27  C   UNL     1      -0.113  12.713  21.450  0.00  0.00    +0.000 C 
ATOM     28  O   UNL     1       0.652  13.527  21.973  0.00  0.00    +0.000 OA
ENDBRANCH  19  27
ENDBRANCH   1  22
TORSDOF 3
ENDMDL
MODEL 2
REMARK VINA RESULT:      -8.4      4.994      7.928
REMARK  Name = 
REMARK  5 active torsions:
REMARK  status: ('A' for Active; 'I' for Inactive)
REMARK    1  A    between atoms: C_1  and  N_2
REMARK    2  A    between atoms: N_2  and  C_3
REMARK    3  A    between atoms: C_4  and  C_6
REMARK    4  A    between atoms: C_9  and  C_10
REMARK    5  A    between atoms: C_13  and  C_14
REMARK                            x       y       z     vdW  Elec       q    Type
REMARK                         _______ _______ _______ _____ _____    ______ ____
ROOT
ATOM      1  C   UNL     1       8.502   9.016  18.505  0.00  0.00    +0.000 A 
ATOM      2  C   UNL     1       8.707   7.815  19.195  0.00  0.00    +0.000 A 
ATOM      3  C   UNL     1       8.075   6.637  18.790  0.00  0.00    +0.000 A 
ATOM      4  C   UNL     1       7.307   6.612  17.622  0.00  0.00    +0.000 A 
ATOM      5  C   UNL     1       7.078   7.806  16.934  0.00  0.00    +0.000 A 
ATOM      6  C   UNL     1       7.669   8.999  17.376  0.00  0.00    +0.000 A 
ENDROOT
BRANCH   4   7
ATOM      7  C   UNL     1       6.704   5.355  17.094  0.00  0.00    +0.000 C 
ATOM      8  O   UNL     1       7.471   4.496  16.664  0.00  0.00    +0.000 OA
ATOM      9  N   UNL     1       5.320   5.191  17.116  0.00  0.00    +0.000 N 
ATOM     10  C   UNL     1       4.735   3.966  16.524  0.00  0.00    +0.000 C 
ATOM     11  C   UNL     1       4.031   3.091  17.584  0.00  0.00    +0.000 C 
ATOM     12  C   UNL     1       3.183   3.957  18.443  0.00  0.00    +0.000 A 
ATOM     13  N   UNL     1       2.211   3.518  19.246  0.00  0.00    +0.000 NA
ATOM     14  N   UNL     1       1.780   4.641  19.856  0.00  0.00    +0.000 N 
ATOM     15  C   UNL     1       2.426   5.770  19.451  0.00  0.00    +0.000 A 
ATOM     16  C   UNL     1       3.357   5.353  18.530  0.00  0.00    +0.000 A 
ATOM     17  C   UNL     1       4.370   6.114  17.772  0.00  0.00    +0.000 C 
ATOM     18  H   UNL     1       1.041   4.559  20.549  0.00  0.00    +0.000 HD
ENDBRANCH   4   7
BRANCH   1  22
ATOM     19  C   UNL     1       9.638  12.385  18.807  0.00  0.00    +0.000 A 
ATOM     20  C   UNL     1       9.954  12.012  20.099  0.00  0.00    +0.000 A 
ATOM     21  C   UNL     1       9.605  10.647  20.230  0.00  0.00    +0.000 A 
ATOM     22  C   UNL     1       9.100  10.249  19.009  0.00  0.00    +0.000 A 
ATOM     23  O   UNL     1       9.152  11.295  18.136  0.00  0.00    +0.000 OA
BRANCH  19  27
ATOM     24  C   UNL     1      11.131  15.298  16.927  0.00  0.00    +0.000 C 
ATOM     25  N   UNL     1      11.010  13.987  17.534  0.00  0.00    +0.000 N 
ATOM     26  C   UNL     1      12.115  13.053  17.376  0.00  0.00    +0.000 C 
ATOM     27  C   UNL     1       9.785  13.669  18.142  0.00  0.00    +0.000 C 
ATOM     28  O   UNL     1       8.842  14.461  18.084  0.00  0.00    +0.000 OA
ENDBRANCH  19  27
ENDBRANCH   1  22
TORSDOF 3
ENDMDL
MODEL 3
REMARK VINA RESULT:      -8.3      5.078      7.931
REMARK  Name = 
REMARK  5 active torsions:
REMARK  status: ('A' for Active; 'I' for Inactive)
REMARK    1  A    between atoms: C_1  and  N_2
REMARK    2  A    between atoms: N_2  and  C_3
REMARK    3  A    between atoms: C_4  and  C_6
REMARK    4  A    between atoms: C_9  and  C_10
REMARK    5  A    between atoms: C_13  and  C_14
REMARK                            x       y       z     vdW  Elec       q    Type
REMARK                         _______ _______ _______ _____ _____    ______ ____
ROOT
ATOM      1  C   UNL     1       8.566   8.879  18.657  0.00  0.00    +0.000 A 
ATOM      2  C   UNL     1       7.857   8.943  17.450  0.00  0.00    +0.000 A 
ATOM      3  C   UNL     1       7.290   7.797  16.889  0.00  0.00    +0.000 A 
ATOM      4  C   UNL     1       7.328   6.580  17.574  0.00  0.00    +0.000 A 
ATOM      5  C   UNL     1       8.047   6.496  18.770  0.00  0.00    +0.000 A 
ATOM      6  C   UNL     1       8.664   7.637  19.303  0.00  0.00    +0.000 A 
ENDROOT
BRANCH   4   7
ATOM      7  C   UNL     1       6.643   5.358  17.065  0.00  0.00    +0.000 C 
ATOM      8  O   UNL     1       7.346   4.482  16.565  0.00  0.00    +0.000 OA
ATOM      9  N   UNL     1       5.258   5.242  17.181  0.00  0.00    +0.000 N 
ATOM     10  C   UNL     1       4.589   4.052  16.608  0.00  0.00    +0.000 C 
ATOM     11  C   UNL     1       3.929   3.180  17.696  0.00  0.00    +0.000 C 
ATOM     12  C   UNL     1       3.175   4.055  18.630  0.00  0.00    +0.000 A 
ATOM     13  N   UNL     1       2.246   3.633  19.490  0.00  0.00    +0.000 NA
ATOM     14  N   UNL     1       1.900   4.757  20.151  0.00  0.00    +0.000 N 
ATOM     15  C   UNL     1       2.557   5.871  19.724  0.00  0.00    +0.000 A 
ATOM     16  C   UNL     1       3.406   5.442  18.733  0.00  0.00    +0.000 A 
ATOM     17  C   UNL     1       4.391   6.183  17.921  0.00  0.00    +0.000 C 
ATOM     18  H   UNL     1       1.209   4.686  20.893  0.00  0.00    +0.000 HD
ENDBRANCH   4   7
BRANCH   1  22
ATOM     19  C   UNL     1      10.336  11.967  18.888  0.00  0.00    +0.000 A 
ATOM     20  C   UNL     1      10.035  11.875  20.234  0.00  0.00    +0.000 A 
ATOM     21  C   UNL     1       9.321  10.667  20.413  0.00  0.00    +0.000 A 
ATOM     22  C   UNL     1       9.228  10.074  19.170  0.00  0.00    +0.000 A 
ATOM     23  O   UNL     1       9.874  10.847  18.252  0.00  0.00    +0.000 OA
BRANCH  19  27
ATOM     24  C   UNL     1      11.095  15.140  16.987  0.00  0.00    +0.000 C 
ATOM     25  N   UNL     1      10.358  14.155  17.756  0.00  0.00    +0.000 N 
ATOM     26  C   UNL     1       8.995  14.476  18.153  0.00  0.00    +0.000 C 
ATOM     27  C   UNL     1      11.050  13.002  18.159  0.00  0.00    +0.000 C 
ATOM     28  O   UNL     1      12.255  12.888  17.921  0.00  0.00    +0.000 OA
ENDBRANCH  19  27
ENDBRANCH   1  22
TORSDOF 3
ENDMDL
MODEL 4
REMARK VINA RESULT:      -8.3      1.393      1.708
REMARK  Name = 
REMARK  5 active torsions:
REMARK  status: ('A' for Active; 'I' for Inactive)
REMARK    1  A    between atoms: C_1  and  N_2
REMARK    2  A    between atoms: N_2  and  C_3
REMARK    3  A    between atoms: C_4  and  C_6
REMARK    4  A    between atoms: C_9  and  C_10
REMARK    5  A    between atoms: C_13  and  C_14
REMARK                            x       y       z     vdW  Elec       q    Type
REMARK                         _______ _______ _______ _____ _____    ______ ____
ROOT
ATOM      1  C   UNL     1       1.098   9.279  19.958  0.00  0.00    +0.000 A 
ATOM      2  C   UNL     1       1.377   9.211  18.586  0.00  0.00    +0.000 A 
ATOM      3  C   UNL     1       1.914   8.053  18.020  0.00  0.00    +0.000 A 
ATOM      4  C   UNL     1       2.085   6.901  18.791  0.00  0.00    +0.000 A 
ATOM      5  C   UNL     1       1.830   6.960  20.164  0.00  0.00    +0.000 A 
ATOM      6  C   UNL     1       1.344   8.142  20.741  0.00  0.00    +0.000 A 
ENDROOT
BRANCH   4   7
ATOM      7  C   UNL     1       2.553   5.613  18.205  0.00  0.00    +0.000 C 
ATOM      8  O   UNL     1       1.699   4.851  17.756  0.00  0.00    +0.000 OA
ATOM      9  N   UNL     1       3.917   5.324  18.172  0.00  0.00    +0.000 N 
ATOM     10  C   UNL     1       4.357   4.010  17.649  0.00  0.00    +0.000 C 
ATOM     11  C   UNL     1       5.193   4.152  16.359  0.00  0.00    +0.000 C 
ATOM     12  C   UNL     1       6.197   5.231  16.547  0.00  0.00    +0.000 A 
ATOM     13  N   UNL     1       7.271   5.417  15.777  0.00  0.00    +0.000 NA
ATOM     14  N   UNL     1       7.833   6.532  16.289  0.00  0.00    +0.000 N 
ATOM     15  C   UNL     1       7.167   7.038  17.365  0.00  0.00    +0.000 A 
ATOM     16  C   UNL     1       6.086   6.211  17.554  0.00  0.00    +0.000 A 
ATOM     17  C   UNL     1       4.990   6.269  18.541  0.00  0.00    +0.000 C 
ATOM     18  H   UNL     1       8.670   6.896  15.845  0.00  0.00    +0.000 HD
ENDBRANCH   4   7
BRANCH   1  22
ATOM     19  C   UNL     1      -0.851  11.732  21.663  0.00  0.00    +0.000 A 
ATOM     20  C   UNL     1       0.241  12.549  21.440  0.00  0.00    +0.000 A 
ATOM     21  C   UNL     1       1.189  11.780  20.725  0.00  0.00    +0.000 A 
ATOM     22  C   UNL     1       0.627  10.533  20.537  0.00  0.00    +0.000 A 
ATOM     23  O   UNL     1      -0.624  10.516  21.077  0.00  0.00    +0.000 OA
BRANCH  19  27
ATOM     24  C   UNL     1      -4.377  12.886  22.364  0.00  0.00    +0.000 C 
ATOM     25  N   UNL     1      -3.166  12.577  21.630  0.00  0.00    +0.000 N 
ATOM     26  C   UNL     1      -3.172  12.765  20.186  0.00  0.00    +0.000 C 
ATOM     27  C   UNL     1      -2.101  12.011  22.350  0.00  0.00    +0.000 C 
ATOM     28  O   UNL     1      -2.242  11.730  23.542  0.00  0.00    +0.000 OA
ENDBRANCH  19  27
ENDBRANCH   1  22
TORSDOF 3
ENDMDL
MODEL 5
REMARK VINA RESULT:      -8.3      1.009      1.463
REMARK  Name = 
REMARK  5 active torsions:
REMARK  status: ('A' for Active; 'I' for Inactive)
REMARK    1  A    between atoms: C_1  and  N_2
REMARK    2  A    between atoms: N_2  and  C_3
REMARK    3  A    between atoms: C_4  and  C_6
REMARK    4  A    between atoms: C_9  and  C_10
REMARK    5  A    between atoms: C_13  and  C_14
REMARK                            x       y       z     vdW  Elec       q    Type
REMARK                         _______ _______ _______ _____ _____    ______ ____
ROOT
ATOM      1  C   UNL     1       1.207   8.901  20.196  0.00  0.00    +0.000 A 
ATOM      2  C   UNL     1       1.351   7.693  20.890  0.00  0.00    +0.000 A 
ATOM      3  C   UNL     1       1.736   6.526  20.227  0.00  0.00    +0.000 A 
ATOM      4  C   UNL     1       2.089   6.563  18.875  0.00  0.00    +0.000 A 
ATOM      5  C   UNL     1       1.931   7.757  18.166  0.00  0.00    +0.000 A 
ATOM      6  C   UNL     1       1.490   8.915  18.822  0.00  0.00    +0.000 A 
ENDROOT
BRANCH   4   7
ATOM      7  C   UNL     1       2.608   5.367  18.154  0.00  0.00    +0.000 C 
ATOM      8  O   UNL     1       1.786   4.630  17.613  0.00  0.00    +0.000 OA
ATOM      9  N   UNL     1       3.982   5.132  18.105  0.00  0.00    +0.000 N 
ATOM     10  C   UNL     1       4.475   3.902  17.443  0.00  0.00    +0.000 C 
ATOM     11  C   UNL     1       5.315   4.219  16.187  0.00  0.00    +0.000 C 
ATOM     12  C   UNL     1       6.277   5.305  16.507  0.00  0.00    +0.000 A 
ATOM     13  N   UNL     1       7.348   5.615  15.775  0.00  0.00    +0.000 NA
ATOM     14  N   UNL     1       7.865   6.685  16.415  0.00  0.00    +0.000 N 
ATOM     15  C   UNL     1       7.173   7.043  17.532  0.00  0.00    +0.000 A 
ATOM     16  C   UNL     1       6.122   6.162  17.615  0.00  0.00    +0.000 A 
ATOM     17  C   UNL     1       5.017   6.069  18.590  0.00  0.00    +0.000 C 
ATOM     18  H   UNL     1       8.691   7.127  16.024  0.00  0.00    +0.000 HD
ENDBRANCH   4   7
BRANCH   1  22
ATOM     19  C   UNL     1       0.649  12.264  21.248  0.00  0.00    +0.000 A 
ATOM     20  C   UNL     1      -0.336  11.703  22.039  0.00  0.00    +0.000 A 
ATOM     21  C   UNL     1      -0.300  10.307  21.811  0.00  0.00    +0.000 A 
ATOM     22  C   UNL     1       0.711  10.081  20.898  0.00  0.00    +0.000 A 
ATOM     23  O   UNL     1       1.308  11.266  20.583  0.00  0.00    +0.000 OA
BRANCH  19  27
ATOM     24  C   UNL     1       1.096  15.723  19.803  0.00  0.00    +0.000 C 
ATOM     25  N   UNL     1       0.639  14.354  19.943  0.00  0.00    +0.000 N 
ATOM     26  C   UNL     1      -0.291  13.836  18.951  0.00  0.00    +0.000 C 
ATOM     27  C   UNL     1       1.042  13.655  21.092  0.00  0.00    +0.000 C 
ATOM     28  O   UNL     1       1.696  14.227  21.967  0.00  0.00    +0.000 OA
ENDBRANCH  19  27
ENDBRANCH   1  22
TORSDOF 3
ENDMDL
MODEL 6
REMARK VINA RESULT:      -8.2      2.294      3.760
REMARK  Name = 
REMARK  5 active torsions:
REMARK  status: ('A' for Active; 'I' for Inactive)
REMARK    1  A    between atoms: C_1  and  N_2
REMARK    2  A    between atoms: N_2  and  C_3
REMARK    3  A    between atoms: C_4  and  C_6
REMARK    4  A    between atoms: C_9  and  C_10
REMARK    5  A    between atoms: C_13  and  C_14
REMARK                            x       y       z     vdW  Elec       q    Type
REMARK                         _______ _______ _______ _____ _____    ______ ____
ROOT
ATOM      1  C   UNL     1       0.900   9.593  19.322  0.00  0.00    +0.000 A 
ATOM      2  C   UNL     1       1.365   8.605  20.200  0.00  0.00    +0.000 A 
ATOM      3  C   UNL     1       2.210   7.587  19.752  0.00  0.00    +0.000 A 
ATOM      4  C   UNL     1       2.693   7.593  18.441  0.00  0.00    +0.000 A 
ATOM      5  C   UNL     1       2.223   8.560  17.549  0.00  0.00    +0.000 A 
ATOM      6  C   UNL     1       1.330   9.549  17.987  0.00  0.00    +0.000 A 
ENDROOT
BRANCH   4   7
ATOM      7  C   UNL     1       3.680   6.589  17.952  0.00  0.00    +0.000 C 
ATOM      8  O   UNL     1       4.864   6.920  17.934  0.00  0.00    +0.000 OA
ATOM      9  N   UNL     1       3.241   5.327  17.553  0.00  0.00    +0.000 N 
ATOM     10  C   UNL     1       4.227   4.367  17.005  0.00  0.00    +0.000 C 
ATOM     11  C   UNL     1       4.384   3.123  17.906  0.00  0.00    +0.000 C 
ATOM     12  C   UNL     1       3.036   2.634  18.298  0.00  0.00    +0.000 A 
ATOM     13  N   UNL     1       2.780   1.426  18.802  0.00  0.00    +0.000 NA
ATOM     14  N   UNL     1       1.455   1.468  19.055  0.00  0.00    +0.000 N 
ATOM     15  C   UNL     1       0.867   2.646  18.707  0.00  0.00    +0.000 A 
ATOM     16  C   UNL     1       1.879   3.434  18.214  0.00  0.00    +0.000 A 
ATOM     17  C   UNL     1       1.862   4.822  17.713  0.00  0.00    +0.000 C 
ATOM     18  H   UNL     1       1.019   0.653  19.477  0.00  0.00    +0.000 HD
ENDBRANCH   4   7
BRANCH   1  22
ATOM     19  C   UNL     1      -0.637  12.270  21.110  0.00  0.00    +0.000 A 
ATOM     20  C   UNL     1      -1.669  12.090  20.209  0.00  0.00    +0.000 A 
ATOM     21  C   UNL     1      -1.295  11.018  19.365  0.00  0.00    +0.000 A 
ATOM     22  C   UNL     1      -0.056  10.588  19.797  0.00  0.00    +0.000 A 
ATOM     23  O   UNL     1       0.327  11.326  20.877  0.00  0.00    +0.000 OA
BRANCH  19  27
ATOM     24  C   UNL     1      -1.368  14.352  24.173  0.00  0.00    +0.000 C 
ATOM     25  N   UNL     1      -1.524  13.346  23.141  0.00  0.00    +0.000 N 
ATOM     26  C   UNL     1      -2.670  12.451  23.224  0.00  0.00    +0.000 C 
ATOM     27  C   UNL     1      -0.497  13.232  22.191  0.00  0.00    +0.000 C 
ATOM     28  O   UNL     1       0.521  13.920  22.295  0.00  0.00    +0.000 OA
ENDBRANCH  19  27
ENDBRANCH   1  22
TORSDOF 3
ENDMDL
MODEL 7
REMARK VINA RESULT:      -8.2      2.471      3.881
REMARK  Name = 
REMARK  5 active torsions:
REMARK  status: ('A' for Active; 'I' for Inactive)
REMARK    1  A    between atoms: C_1  and  N_2
REMARK    2  A    between atoms: N_2  and  C_3
REMARK    3  A    between atoms: C_4  and  C_6
REMARK    4  A    between atoms: C_9  and  C_10
REMARK    5  A    between atoms: C_13  and  C_14
REMARK                            x       y       z     vdW  Elec       q    Type
REMARK                         _______ _______ _______ _____ _____    ______ ____
ROOT
ATOM      1  C   UNL     1       0.718   9.669  19.313  0.00  0.00    +0.000 A 
ATOM      2  C   UNL     1       1.164   9.515  17.994  0.00  0.00    +0.000 A 
ATOM      3  C   UNL     1       2.081   8.517  17.658  0.00  0.00    +0.000 A 
ATOM      4  C   UNL     1       2.492   7.583  18.613  0.00  0.00    +0.000 A 
ATOM      5  C   UNL     1       2.071   7.736  19.937  0.00  0.00    +0.000 A 
ATOM      6  C   UNL     1       1.194   8.773  20.282  0.00  0.00    +0.000 A 
ENDROOT
BRANCH   4   7
ATOM      7  C   UNL     1       3.384   6.438  18.274  0.00  0.00    +0.000 C 
ATOM      8  O   UNL     1       4.456   6.696  17.728  0.00  0.00    +0.000 OA
ATOM      9  N   UNL     1       2.992   5.139  18.592  0.00  0.00    +0.000 N 
ATOM     10  C   UNL     1       3.859   4.009  18.186  0.00  0.00    +0.000 C 
ATOM     11  C   UNL     1       4.434   3.255  19.404  0.00  0.00    +0.000 C 
ATOM     12  C   UNL     1       3.345   3.016  20.386  0.00  0.00    +0.000 A 
ATOM     13  N   UNL     1       3.403   2.140  21.391  0.00  0.00    +0.000 NA
ATOM     14  N   UNL     1       2.230   2.323  22.032  0.00  0.00    +0.000 N 
ATOM     15  C   UNL     1       1.429   3.262  21.455  0.00  0.00    +0.000 A 
ATOM     16  C   UNL     1       2.136   3.740  20.378  0.00  0.00    +0.000 A 
ATOM     17  C   UNL     1       1.801   4.788  19.394  0.00  0.00    +0.000 C 
ATOM     18  H   UNL     1       2.046   1.774  22.867  0.00  0.00    +0.000 HD
ENDBRANCH   4   7
BRANCH   1  22
ATOM     19  C   UNL     1      -0.721  12.531  20.883  0.00  0.00    +0.000 A 
ATOM     20  C   UNL     1      -1.620  12.477  19.834  0.00  0.00    +0.000 A 
ATOM     21  C   UNL     1      -1.261  11.361  19.043  0.00  0.00    +0.000 A 
ATOM     22  C   UNL     1      -0.166  10.780  19.651  0.00  0.00    +0.000 A 
ATOM     23  O   UNL     1       0.139  11.471  20.786  0.00  0.00    +0.000 OA
BRANCH  19  27
ATOM     24  C   UNL     1      -1.432  14.359  24.109  0.00  0.00    +0.000 C 
ATOM     25  N   UNL     1      -1.528  13.367  23.055  0.00  0.00    +0.000 N 
ATOM     26  C   UNL     1      -2.468  12.270  23.231  0.00  0.00    +0.000 C 
ATOM     27  C   UNL     1      -0.626  13.474  21.985  0.00  0.00    +0.000 C 
ATOM     28  O   UNL     1       0.251  14.341  21.999  0.00  0.00    +0.000 OA
ENDBRANCH  19  27
ENDBRANCH   1  22
TORSDOF 3
ENDMDL
MODEL 8
REMARK VINA RESULT:      -8.1      2.799      4.364
REMARK  Name = 
REMARK  5 active torsions:
REMARK  status: ('A' for Active; 'I' for Inactive)
REMARK    1  A    between atoms: C_1  and  N_2
REMARK    2  A    between atoms: N_2  and  C_3
REMARK    3  A    between atoms: C_4  and  C_6
REMARK    4  A    between atoms: C_9  and  C_10
REMARK    5  A    between atoms: C_13  and  C_14
REMARK                            x       y       z     vdW  Elec       q    Type
REMARK                         _______ _______ _______ _____ _____    ______ ____
ROOT
ATOM      1  C   UNL     1       0.844   9.588  19.068  0.00  0.00    +0.000 A 
ATOM      2  C   UNL     1       1.407   9.403  17.799  0.00  0.00    +0.000 A 
ATOM      3  C   UNL     1       2.341   8.390  17.570  0.00  0.00    +0.000 A 
ATOM      4  C   UNL     1       2.653   7.473  18.577  0.00  0.00    +0.000 A 
ATOM      5  C   UNL     1       2.113   7.656  19.853  0.00  0.00    +0.000 A 
ATOM      6  C   UNL     1       1.219   8.709  20.095  0.00  0.00    +0.000 A 
ENDROOT
BRANCH   4   7
ATOM      7  C   UNL     1       3.560   6.313  18.344  0.00  0.00    +0.000 C 
ATOM      8  O   UNL     1       4.680   6.551  17.897  0.00  0.00    +0.000 OA
ATOM      9  N   UNL     1       3.125   5.024  18.649  0.00  0.00    +0.000 N 
ATOM     10  C   UNL     1       4.015   3.878  18.347  0.00  0.00    +0.000 C 
ATOM     11  C   UNL     1       4.465   3.144  19.628  0.00  0.00    +0.000 C 
ATOM     12  C   UNL     1       3.286   2.934  20.508  0.00  0.00    +0.000 A 
ATOM     13  N   UNL     1       3.240   2.078  21.530  0.00  0.00    +0.000 NA
ATOM     14  N   UNL     1       2.015   2.284  22.055  0.00  0.00    +0.000 N 
ATOM     15  C   UNL     1       1.281   3.218  21.388  0.00  0.00    +0.000 A 
ATOM     16  C   UNL     1       2.091   3.668  20.373  0.00  0.00    +0.000 A 
ATOM     17  C   UNL     1       1.861   4.700  19.343  0.00  0.00    +0.000 C 
ATOM     18  H   UNL     1       1.748   1.753  22.879  0.00  0.00    +0.000 HD
ENDBRANCH   4   7
BRANCH   1  22
ATOM     19  C   UNL     1      -2.035  11.693  19.170  0.00  0.00    +0.000 A 
ATOM     20  C   UNL     1      -1.225  12.523  19.923  0.00  0.00    +0.000 A 
ATOM     21  C   UNL     1       0.038  11.893  20.012  0.00  0.00    +0.000 A 
ATOM     22  C   UNL     1      -0.056  10.713  19.301  0.00  0.00    +0.000 A 
ATOM     23  O   UNL     1      -1.304  10.610  18.762  0.00  0.00    +0.000 OA
BRANCH  19  27
ATOM     24  C   UNL     1      -5.169  11.854  17.071  0.00  0.00    +0.000 C 
ATOM     25  N   UNL     1      -3.782  11.636  17.434  0.00  0.00    +0.000 N 
ATOM     26  C   UNL     1      -2.884  11.104  16.420  0.00  0.00    +0.000 C 
ATOM     27  C   UNL     1      -3.425  11.851  18.774  0.00  0.00    +0.000 C 
ATOM     28  O   UNL     1      -4.287  12.142  19.606  0.00  0.00    +0.000 OA
ENDBRANCH  19  27
ENDBRANCH   1  22
TORSDOF 3
ENDMDL
MODEL 9
REMARK VINA RESULT:      -8.1      2.261      3.702
REMARK  Name = 
REMARK  5 active torsions:
REMARK  status: ('A' for Active; 'I' for Inactive)
REMARK    1  A    between atoms: C_1  and  N_2
REMARK    2  A    between atoms: N_2  and  C_3
REMARK    3  A    between atoms: C_4  and  C_6
REMARK    4  A    between atoms: C_9  and  C_10
REMARK    5  A    between atoms: C_13  and  C_14
REMARK                            x       y       z     vdW  Elec       q    Type
REMARK                         _______ _______ _______ _____ _____    ______ ____
ROOT
ATOM      1  C   UNL     1       1.027   9.545  19.365  0.00  0.00    +0.000 A 
ATOM      2  C   UNL     1       1.443   8.484  20.179  0.00  0.00    +0.000 A 
ATOM      3  C   UNL     1       2.266   7.474  19.677  0.00  0.00    +0.000 A 
ATOM      4  C   UNL     1       2.778   7.557  18.380  0.00  0.00    +0.000 A 
ATOM      5  C   UNL     1       2.357   8.599  17.550  0.00  0.00    +0.000 A 
ATOM      6  C   UNL     1       1.485   9.582  18.039  0.00  0.00    +0.000 A 
ENDROOT
BRANCH   4   7
ATOM      7  C   UNL     1       3.745   6.559  17.840  0.00  0.00    +0.000 C 
ATOM      8  O   UNL     1       4.924   6.897  17.760  0.00  0.00    +0.000 OA
ATOM      9  N   UNL     1       3.294   5.294  17.463  0.00  0.00    +0.000 N 
ATOM     10  C   UNL     1       4.256   4.340  16.865  0.00  0.00    +0.000 C 
ATOM     11  C   UNL     1       4.467   3.097  17.756  0.00  0.00    +0.000 C 
ATOM     12  C   UNL     1       3.145   2.600  18.217  0.00  0.00    +0.000 A 
ATOM     13  N   UNL     1       2.922   1.390  18.734  0.00  0.00    +0.000 NA
ATOM     14  N   UNL     1       1.612   1.424  19.055  0.00  0.00    +0.000 N 
ATOM     15  C   UNL     1       0.999   2.598  18.738  0.00  0.00    +0.000 A 
ATOM     16  C   UNL     1       1.980   3.392  18.194  0.00  0.00    +0.000 A 
ATOM     17  C   UNL     1       1.928   4.781  17.694  0.00  0.00    +0.000 C 
ATOM     18  H   UNL     1       1.204   0.606  19.498  0.00  0.00    +0.000 HD
ENDBRANCH   4   7
BRANCH   1  22
ATOM     19  C   UNL     1      -0.389  12.319  21.105  0.00  0.00    +0.000 A 
ATOM     20  C   UNL     1      -1.537  11.985  20.413  0.00  0.00    +0.000 A 
ATOM     21  C   UNL     1      -1.228  10.847  19.631  0.00  0.00    +0.000 A 
ATOM     22  C   UNL     1       0.091  10.534  19.890  0.00  0.00    +0.000 A 
ATOM     23  O   UNL     1       0.589  11.407  20.811  0.00  0.00    +0.000 OA
BRANCH  19  27
ATOM     24  C   UNL     1       0.683  15.637  22.553  0.00  0.00    +0.000 C 
ATOM     25  N   UNL     1       0.409  14.602  21.575  0.00  0.00    +0.000 N 
ATOM     26  C   UNL     1       0.620  14.915  20.169  0.00  0.00    +0.000 C 
ATOM     27  C   UNL     1      -0.146  13.401  22.045  0.00  0.00    +0.000 C 
ATOM     28  O   UNL     1      -0.448  13.283  23.234  0.00  0.00    +0.000 OA
ENDBRANCH  19  27
ENDBRANCH   1  22
TORSDOF 3
ENDMDL
