MODEL 1
REMARK VINA RESULT:      -6.8      0.000      0.000
REMARK  Name = 
REMARK  4 active torsions:
REMARK  status: ('A' for Active; 'I' for Inactive)
REMARK    1  A    between atoms: C_1  and  C_2
REMARK    2  A    between atoms: C_10  and  O_11
REMARK    3  A    between atoms: O_11  and  C_12
REMARK    4  A    between atoms: C_12  and  C_13
REMARK                            x       y       z     vdW  Elec       q    Type
REMARK                         _______ _______ _______ _____ _____    ______ ____
ROOT
ATOM      1  C   UNL     1       4.888   4.036  12.806  0.00  0.00    +0.000 C 
ATOM      2  C   UNL     1       5.499   4.141  14.159  0.00  0.00    +0.000 A 
ATOM      3  C   UNL     1       4.871   4.062  15.384  0.00  0.00    +0.000 A 
ATOM      4  C   UNL     1       5.772   4.244  16.488  0.00  0.00    +0.000 A 
ATOM      5  C   UNL     1       5.559   4.305  17.881  0.00  0.00    +0.000 A 
ATOM      6  N   UNL     1       4.252   4.298  18.366  0.00  0.00    +0.000 N 
ATOM      7  C   UNL     1       4.009   3.746  19.693  0.00  0.00    +0.000 C 
ATOM      8  C   UNL     1       2.488   3.535  19.805  0.00  0.00    +0.000 C 
ATOM      9  C   UNL     1       1.687   4.812  19.492  0.00  0.00    +0.000 C 
ATOM     10  C   UNL     1       2.144   5.501  18.192  0.00  0.00    +0.000 C 
ATOM     11  C   UNL     1       3.673   5.635  18.214  0.00  0.00    +0.000 C 
ATOM     12  N   UNL     1       6.617   4.486  18.695  0.00  0.00    +0.000 NA
ATOM     13  C   UNL     1       7.829   4.641  18.128  0.00  0.00    +0.000 A 
ATOM     14  N   UNL     1       8.144   4.636  16.825  0.00  0.00    +0.000 NA
ATOM     15  C   UNL     1       7.068   4.428  16.048  0.00  0.00    +0.000 A 
ATOM     16  S   UNL     1       7.184   4.402  14.345  0.00  0.00    +0.000 S 
ENDROOT
BRANCH  10  17
ATOM     17  O   UNL     1       1.495   6.775  18.081  0.00  0.00    +0.000 OA
BRANCH  17  18
ATOM     18  C   UNL     1       2.274   7.846  18.625  0.00  0.00    +0.000 C 
BRANCH  18  19
ATOM     19  C   UNL     1       1.500   8.621  19.649  0.00  0.00    +0.000 A 
ATOM     20  C   UNL     1       1.396   8.211  20.979  0.00  0.00    +0.000 A 
ATOM     21  C   UNL     1       0.642   8.966  21.872  0.00  0.00    +0.000 A 
ATOM     22  C   UNL     1       0.004  10.100  21.399  0.00  0.00    +0.000 A 
ATOM     23  N   UNL     1       0.063  10.519  20.117  0.00  0.00    +0.000 NA
ATOM     24  C   UNL     1       0.807   9.768  19.276  0.00  0.00    +0.000 A 
ENDBRANCH  18  19
ENDBRANCH  17  18
ENDBRANCH  10  17
TORSDOF 3
ENDMDL
MODEL 2
REMARK VINA RESULT:      -6.7      0.667      1.157
REMARK  Name = 
REMARK  4 active torsions:
REMARK  status: ('A' for Active; 'I' for Inactive)
REMARK    1  A    between atoms: C_1  and  C_2
REMARK    2  A    between atoms: C_10  and  O_11
REMARK    3  A    between atoms: O_11  and  C_12
REMARK    4  A    between atoms: C_12  and  C_13
REMARK                            x       y       z     vdW  Elec       q    Type
REMARK                         _______ _______ _______ _____ _____    ______ ____
ROOT
ATOM      1  C   UNL     1       4.954   4.007  12.777  0.00  0.00    +0.000 C 
ATOM      2  C   UNL     1       5.539   4.121  14.141  0.00  0.00    +0.000 A 
ATOM      3  C   UNL     1       4.892   4.025  15.354  0.00  0.00    +0.000 A 
ATOM      4  C   UNL     1       5.771   4.223  16.474  0.00  0.00    +0.000 A 
ATOM      5  C   UNL     1       5.533   4.275  17.864  0.00  0.00    +0.000 A 
ATOM      6  N   UNL     1       4.219   4.241  18.326  0.00  0.00    +0.000 N 
ATOM      7  C   UNL     1       3.964   3.681  19.647  0.00  0.00    +0.000 C 
ATOM      8  C   UNL     1       2.446   3.438  19.733  0.00  0.00    +0.000 C 
ATOM      9  C   UNL     1       1.625   4.701  19.410  0.00  0.00    +0.000 C 
ATOM     10  C   UNL     1       2.089   5.402  18.120  0.00  0.00    +0.000 C 
ATOM     11  C   UNL     1       3.615   5.566  18.167  0.00  0.00    +0.000 C 
ATOM     12  N   UNL     1       6.573   4.475  18.695  0.00  0.00    +0.000 NA
ATOM     13  C   UNL     1       7.792   4.656  18.149  0.00  0.00    +0.000 A 
ATOM     14  N   UNL     1       8.128   4.661  16.852  0.00  0.00    +0.000 NA
ATOM     15  C   UNL     1       7.070   4.434  16.056  0.00  0.00    +0.000 A 
ATOM     16  S   UNL     1       7.215   4.414  14.356  0.00  0.00    +0.000 S 
ENDROOT
BRANCH  10  17
ATOM     17  O   UNL     1       1.417   6.663  18.000  0.00  0.00    +0.000 OA
BRANCH  17  18
ATOM     18  C   UNL     1       2.307   7.781  18.108  0.00  0.00    +0.000 C 
BRANCH  18  19
ATOM     19  C   UNL     1       1.660   8.928  18.822  0.00  0.00    +0.000 A 
ATOM     20  C   UNL     1       1.443  10.165  18.213  0.00  0.00    +0.000 A 
ATOM     21  C   UNL     1       0.858  11.196  18.942  0.00  0.00    +0.000 A 
ATOM     22  C   UNL     1       0.521  10.957  20.263  0.00  0.00    +0.000 A 
ATOM     23  N   UNL     1       0.731   9.783  20.894  0.00  0.00    +0.000 NA
ATOM     24  C   UNL     1       1.296   8.800  20.159  0.00  0.00    +0.000 A 
ENDBRANCH  18  19
ENDBRANCH  17  18
ENDBRANCH  10  17
TORSDOF 3
ENDMDL
MODEL 3
REMARK VINA RESULT:      -6.6      6.685     11.854
REMARK  Name = 
REMARK  4 active torsions:
REMARK  status: ('A' for Active; 'I' for Inactive)
REMARK    1  A    between atoms: C_1  and  C_2
REMARK    2  A    between atoms: C_10  and  O_11
REMARK    3  A    between atoms: O_11  and  C_12
REMARK    4  A    between atoms: C_12  and  C_13
REMARK                            x       y       z     vdW  Elec       q    Type
REMARK                         _______ _______ _______ _____ _____    ______ ____
ROOT
ATOM      1  C   UNL     1      -4.355  11.505  17.434  0.00  0.00    +0.000 C 
ATOM      2  C   UNL     1      -5.010  11.711  18.755  0.00  0.00    +0.000 A 
ATOM      3  C   UNL     1      -4.542  12.432  19.833  0.00  0.00    +0.000 A 
ATOM      4  C   UNL     1      -5.427  12.385  20.964  0.00  0.00    +0.000 A 
ATOM      5  C   UNL     1      -5.321  12.911  22.269  0.00  0.00    +0.000 A 
ATOM      6  N   UNL     1      -4.128  13.517  22.658  0.00  0.00    +0.000 N 
ATOM      7  C   UNL     1      -4.182  14.563  23.672  0.00  0.00    +0.000 C 
ATOM      8  C   UNL     1      -2.820  15.281  23.630  0.00  0.00    +0.000 C 
ATOM      9  C   UNL     1      -1.633  14.311  23.781  0.00  0.00    +0.000 C 
ATOM     10  C   UNL     1      -1.740  13.087  22.852  0.00  0.00    +0.000 C 
ATOM     11  C   UNL     1      -3.145  12.483  22.989  0.00  0.00    +0.000 C 
ATOM     12  N   UNL     1      -6.331  12.709  23.137  0.00  0.00    +0.000 NA
ATOM     13  C   UNL     1      -7.381  11.973  22.722  0.00  0.00    +0.000 A 
ATOM     14  N   UNL     1      -7.573  11.398  21.527  0.00  0.00    +0.000 NA
ATOM     15  C   UNL     1      -6.558  11.644  20.682  0.00  0.00    +0.000 A 
ATOM     16  S   UNL     1      -6.535  11.006  19.098  0.00  0.00    +0.000 S 
ENDROOT
BRANCH  10  17
ATOM     17  O   UNL     1      -0.715  12.144  23.195  0.00  0.00    +0.000 OA
BRANCH  17  18
ATOM     18  C   UNL     1      -1.101  10.787  22.948  0.00  0.00    +0.000 C 
BRANCH  18  19
ATOM     19  C   UNL     1      -0.322  10.195  21.812  0.00  0.00    +0.000 A 
ATOM     20  C   UNL     1      -0.494  10.606  20.490  0.00  0.00    +0.000 A 
ATOM     21  C   UNL     1       0.246   9.997  19.481  0.00  0.00    +0.000 A 
ATOM     22  C   UNL     1       1.125   8.985  19.830  0.00  0.00    +0.000 A 
ATOM     23  N   UNL     1       1.306   8.546  21.093  0.00  0.00    +0.000 NA
ATOM     24  C   UNL     1       0.577   9.160  22.050  0.00  0.00    +0.000 A 
ENDBRANCH  18  19
ENDBRANCH  17  18
ENDBRANCH  10  17
TORSDOF 3
ENDMDL
MODEL 4
REMARK VINA RESULT:      -6.6      7.148     12.064
REMARK  Name = 
REMARK  4 active torsions:
REMARK  status: ('A' for Active; 'I' for Inactive)
REMARK    1  A    between atoms: C_1  and  C_2
REMARK    2  A    between atoms: C_10  and  O_11
REMARK    3  A    between atoms: O_11  and  C_12
REMARK    4  A    between atoms: C_12  and  C_13
REMARK                            x       y       z     vdW  Elec       q    Type
REMARK                         _______ _______ _______ _____ _____    ______ ____
ROOT
ATOM      1  C   UNL     1      -4.724  11.504  17.157  0.00  0.00    +0.000 C 
ATOM      2  C   UNL     1      -5.405  11.596  18.478  0.00  0.00    +0.000 A 
ATOM      3  C   UNL     1      -5.077  12.400  19.549  0.00  0.00    +0.000 A 
ATOM      4  C   UNL     1      -5.937  12.200  20.682  0.00  0.00    +0.000 A 
ATOM      5  C   UNL     1      -5.928  12.747  21.983  0.00  0.00    +0.000 A 
ATOM      6  N   UNL     1      -4.868  13.567  22.364  0.00  0.00    +0.000 N 
ATOM      7  C   UNL     1      -5.113  14.593  23.370  0.00  0.00    +0.000 C 
ATOM      8  C   UNL     1      -3.908  15.550  23.318  0.00  0.00    +0.000 C 
ATOM      9  C   UNL     1      -2.562  14.818  23.474  0.00  0.00    +0.000 C 
ATOM     10  C   UNL     1      -2.442  13.587  22.555  0.00  0.00    +0.000 C 
ATOM     11  C   UNL     1      -3.710  12.735  22.701  0.00  0.00    +0.000 C 
ATOM     12  N   UNL     1      -6.882  12.368  22.855  0.00  0.00    +0.000 NA
ATOM     13  C   UNL     1      -7.779  11.448  22.449  0.00  0.00    +0.000 A 
ATOM     14  N   UNL     1      -7.862  10.838  21.259  0.00  0.00    +0.000 NA
ATOM     15  C   UNL     1      -6.911  11.260  20.409  0.00  0.00    +0.000 A 
ATOM     16  S   UNL     1      -6.773  10.624  18.831  0.00  0.00    +0.000 S 
ENDROOT
BRANCH  10  17
ATOM     17  O   UNL     1      -1.259  12.854  22.903  0.00  0.00    +0.000 OA
BRANCH  17  18
ATOM     18  C   UNL     1      -1.516  11.465  23.141  0.00  0.00    +0.000 C 
BRANCH  18  19
ATOM     19  C   UNL     1      -0.650  10.593  22.281  0.00  0.00    +0.000 A 
ATOM     20  C   UNL     1      -0.448   9.239  22.551  0.00  0.00    +0.000 A 
ATOM     21  C   UNL     1       0.387   8.492  21.725  0.00  0.00    +0.000 A 
ATOM     22  C   UNL     1       1.004   9.133  20.662  0.00  0.00    +0.000 A 
ATOM     23  N   UNL     1       0.849  10.443  20.380  0.00  0.00    +0.000 NA
ATOM     24  C   UNL     1       0.029  11.140  21.197  0.00  0.00    +0.000 A 
ENDBRANCH  18  19
ENDBRANCH  17  18
ENDBRANCH  10  17
TORSDOF 3
ENDMDL
MODEL 5
REMARK VINA RESULT:      -6.5      4.210      9.151
REMARK  Name = 
REMARK  4 active torsions:
REMARK  status: ('A' for Active; 'I' for Inactive)
REMARK    1  A    between atoms: C_1  and  C_2
REMARK    2  A    between atoms: C_10  and  O_11
REMARK    3  A    between atoms: O_11  and  C_12
REMARK    4  A    between atoms: C_12  and  C_13
REMARK                            x       y       z     vdW  Elec       q    Type
REMARK                         _______ _______ _______ _____ _____    ______ ____
ROOT
ATOM      1  C   UNL     1      -3.963  10.278  14.511  0.00  0.00    +0.000 C 
ATOM      2  C   UNL     1      -3.622  10.820  15.854  0.00  0.00    +0.000 A 
ATOM      3  C   UNL     1      -2.372  11.004  16.405  0.00  0.00    +0.000 A 
ATOM      4  C   UNL     1      -2.422  11.519  17.746  0.00  0.00    +0.000 A 
ATOM      5  C   UNL     1      -1.410  11.791  18.692  0.00  0.00    +0.000 A 
ATOM      6  N   UNL     1      -0.096  11.430  18.399  0.00  0.00    +0.000 N 
ATOM      7  C   UNL     1       0.984  12.206  18.995  0.00  0.00    +0.000 C 
ATOM      8  C   UNL     1       2.265  11.831  18.227  0.00  0.00    +0.000 C 
ATOM      9  C   UNL     1       2.516  10.311  18.197  0.00  0.00    +0.000 C 
ATOM     10  C   UNL     1       1.267   9.507  17.790  0.00  0.00    +0.000 C 
ATOM     11  C   UNL     1       0.072   9.992  18.624  0.00  0.00    +0.000 C 
ATOM     12  N   UNL     1      -1.760  12.283  19.895  0.00  0.00    +0.000 NA
ATOM     13  C   UNL     1      -3.072  12.453  20.151  0.00  0.00    +0.000 A 
ATOM     14  N   UNL     1      -4.114  12.198  19.348  0.00  0.00    +0.000 NA
ATOM     15  C   UNL     1      -3.725  11.734  18.149  0.00  0.00    +0.000 A 
ATOM     16  S   UNL     1      -4.855  11.303  16.945  0.00  0.00    +0.000 S 
ENDROOT
BRANCH  10  17
ATOM     17  O   UNL     1       1.523   8.109  17.981  0.00  0.00    +0.000 OA
BRANCH  17  18
ATOM     18  C   UNL     1       2.921   7.806  18.069  0.00  0.00    +0.000 C 
BRANCH  18  19
ATOM     19  C   UNL     1       3.154   6.331  18.200  0.00  0.00    +0.000 A 
ATOM     20  C   UNL     1       2.150   5.390  17.964  0.00  0.00    +0.000 A 
ATOM     21  C   UNL     1       2.428   4.036  18.126  0.00  0.00    +0.000 A 
ATOM     22  C   UNL     1       3.701   3.671  18.533  0.00  0.00    +0.000 A 
ATOM     23  N   UNL     1       4.692   4.550  18.789  0.00  0.00    +0.000 NA
ATOM     24  C   UNL     1       4.393   5.856  18.618  0.00  0.00    +0.000 A 
ENDBRANCH  18  19
ENDBRANCH  17  18
ENDBRANCH  10  17
TORSDOF 3
ENDMDL
MODEL 6
REMARK VINA RESULT:      -6.4      4.352      9.067
REMARK  Name = 
REMARK  4 active torsions:
REMARK  status: ('A' for Active; 'I' for Inactive)
REMARK    1  A    between atoms: C_1  and  C_2
REMARK    2  A    between atoms: C_10  and  O_11
REMARK    3  A    between atoms: O_11  and  C_12
REMARK    4  A    between atoms: C_12  and  C_13
REMARK                            x       y       z     vdW  Elec       q    Type
REMARK                         _______ _______ _______ _____ _____    ______ ____
ROOT
ATOM      1  C   UNL     1      -3.825  10.200  14.409  0.00  0.00    +0.000 C 
ATOM      2  C   UNL     1      -3.558  10.771  15.758  0.00  0.00    +0.000 A 
ATOM      3  C   UNL     1      -2.338  11.021  16.349  0.00  0.00    +0.000 A 
ATOM      4  C   UNL     1      -2.459  11.545  17.682  0.00  0.00    +0.000 A 
ATOM      5  C   UNL     1      -1.496  11.875  18.658  0.00  0.00    +0.000 A 
ATOM      6  N   UNL     1      -0.156  11.576  18.414  0.00  0.00    +0.000 N 
ATOM      7  C   UNL     1       0.863  12.410  19.038  0.00  0.00    +0.000 C 
ATOM      8  C   UNL     1       2.187  12.091  18.319  0.00  0.00    +0.000 C 
ATOM      9  C   UNL     1       2.513  10.586  18.315  0.00  0.00    +0.000 C 
ATOM     10  C   UNL     1       1.319   9.718  17.874  0.00  0.00    +0.000 C 
ATOM     11  C   UNL     1       0.074  10.151  18.661  0.00  0.00    +0.000 C 
ATOM     12  N   UNL     1      -1.911  12.361  19.844  0.00  0.00    +0.000 NA
ATOM     13  C   UNL     1      -3.237  12.469  20.053  0.00  0.00    +0.000 A 
ATOM     14  N   UNL     1      -4.238  12.155  19.217  0.00  0.00    +0.000 NA
ATOM     15  C   UNL     1      -3.785  11.700  18.038  0.00  0.00    +0.000 A 
ATOM     16  S   UNL     1      -4.850  11.203  16.800  0.00  0.00    +0.000 S 
ENDROOT
BRANCH  10  17
ATOM     17  O   UNL     1       1.636   8.335  18.089  0.00  0.00    +0.000 OA
BRANCH  17  18
ATOM     18  C   UNL     1       1.967   8.046  19.453  0.00  0.00    +0.000 C 
BRANCH  18  19
ATOM     19  C   UNL     1       2.395   6.620  19.622  0.00  0.00    +0.000 A 
ATOM     20  C   UNL     1       3.316   6.008  18.770  0.00  0.00    +0.000 A 
ATOM     21  C   UNL     1       3.652   4.672  18.969  0.00  0.00    +0.000 A 
ATOM     22  C   UNL     1       3.043   3.990  20.009  0.00  0.00    +0.000 A 
ATOM     23  N   UNL     1       2.135   4.539  20.841  0.00  0.00    +0.000 NA
ATOM     24  C   UNL     1       1.832   5.838  20.625  0.00  0.00    +0.000 A 
ENDBRANCH  18  19
ENDBRANCH  17  18
ENDBRANCH  10  17
TORSDOF 3
ENDMDL
MODEL 7
REMARK VINA RESULT:      -6.4      1.347      1.846
REMARK  Name = 
REMARK  4 active torsions:
REMARK  status: ('A' for Active; 'I' for Inactive)
REMARK    1  A    between atoms: C_1  and  C_2
REMARK    2  A    between atoms: C_10  and  O_11
REMARK    3  A    between atoms: O_11  and  C_12
REMARK    4  A    between atoms: C_12  and  C_13
REMARK                            x       y       z     vdW  Elec       q    Type
REMARK                         _______ _______ _______ _____ _____    ______ ____
ROOT
ATOM      1  C   UNL     1       4.862   4.079  13.060  0.00  0.00    +0.000 C 
ATOM      2  C   UNL     1       5.451   4.263  14.415  0.00  0.00    +0.000 A 
ATOM      3  C   UNL     1       4.793   4.485  15.605  0.00  0.00    +0.000 A 
ATOM      4  C   UNL     1       5.688   4.652  16.717  0.00  0.00    +0.000 A 
ATOM      5  C   UNL     1       5.461   4.956  18.076  0.00  0.00    +0.000 A 
ATOM      6  N   UNL     1       4.167   5.270  18.491  0.00  0.00    +0.000 N 
ATOM      7  C   UNL     1       3.792   4.974  19.868  0.00  0.00    +0.000 C 
ATOM      8  C   UNL     1       2.257   5.076  19.932  0.00  0.00    +0.000 C 
ATOM      9  C   UNL     1       1.728   6.423  19.405  0.00  0.00    +0.000 C 
ATOM     10  C   UNL     1       2.339   6.813  18.046  0.00  0.00    +0.000 C 
ATOM     11  C   UNL     1       3.864   6.655  18.125  0.00  0.00    +0.000 C 
ATOM     12  N   UNL     1       6.515   5.049  18.908  0.00  0.00    +0.000 NA
ATOM     13  C   UNL     1       7.747   4.885  18.386  0.00  0.00    +0.000 A 
ATOM     14  N   UNL     1       8.083   4.630  17.114  0.00  0.00    +0.000 NA
ATOM     15  C   UNL     1       7.005   4.519  16.321  0.00  0.00    +0.000 A 
ATOM     16  S   UNL     1       7.150   4.221  14.646  0.00  0.00    +0.000 S 
ENDROOT
BRANCH  10  17
ATOM     17  O   UNL     1       1.955   8.158  17.725  0.00  0.00    +0.000 OA
BRANCH  17  18
ATOM     18  C   UNL     1       1.719   8.961  18.887  0.00  0.00    +0.000 C 
BRANCH  18  19
ATOM     19  C   UNL     1       0.662   9.993  18.632  0.00  0.00    +0.000 A 
ATOM     20  C   UNL     1      -0.547   9.689  18.004  0.00  0.00    +0.000 A 
ATOM     21  C   UNL     1      -1.476  10.700  17.778  0.00  0.00    +0.000 A 
ATOM     22  C   UNL     1      -1.156  11.987  18.177  0.00  0.00    +0.000 A 
ATOM     23  N   UNL     1       0.008  12.325  18.770  0.00  0.00    +0.000 NA
ATOM     24  C   UNL     1       0.887  11.321  18.980  0.00  0.00    +0.000 A 
ENDBRANCH  18  19
ENDBRANCH  17  18
ENDBRANCH  10  17
TORSDOF 3
ENDMDL
MODEL 8
REMARK VINA RESULT:      -6.3      1.159      1.483
REMARK  Name = 
REMARK  4 active torsions:
REMARK  status: ('A' for Active; 'I' for Inactive)
REMARK    1  A    between atoms: C_1  and  C_2
REMARK    2  A    between atoms: C_10  and  O_11
REMARK    3  A    between atoms: O_11  and  C_12
REMARK    4  A    between atoms: C_12  and  C_13
REMARK                            x       y       z     vdW  Elec       q    Type
REMARK                         _______ _______ _______ _____ _____    ______ ____
ROOT
ATOM      1  C   UNL     1       4.894   4.162  13.023  0.00  0.00    +0.000 C 
ATOM      2  C   UNL     1       5.482   4.284  14.385  0.00  0.00    +0.000 A 
ATOM      3  C   UNL     1       4.822   4.426  15.587  0.00  0.00    +0.000 A 
ATOM      4  C   UNL     1       5.715   4.551  16.705  0.00  0.00    +0.000 A 
ATOM      5  C   UNL     1       5.484   4.775  18.079  0.00  0.00    +0.000 A 
ATOM      6  N   UNL     1       4.185   5.036  18.512  0.00  0.00    +0.000 N 
ATOM      7  C   UNL     1       3.820   4.657  19.871  0.00  0.00    +0.000 C 
ATOM      8  C   UNL     1       2.283   4.721  19.942  0.00  0.00    +0.000 C 
ATOM      9  C   UNL     1       1.723   6.083  19.490  0.00  0.00    +0.000 C 
ATOM     10  C   UNL     1       2.323   6.561  18.154  0.00  0.00    +0.000 C 
ATOM     11  C   UNL     1       3.851   6.433  18.223  0.00  0.00    +0.000 C 
ATOM     12  N   UNL     1       6.539   4.845  18.914  0.00  0.00    +0.000 NA
ATOM     13  C   UNL     1       7.772   4.738  18.383  0.00  0.00    +0.000 A 
ATOM     14  N   UNL     1       8.111   4.561  17.098  0.00  0.00    +0.000 NA
ATOM     15  C   UNL     1       7.034   4.470  16.301  0.00  0.00    +0.000 A 
ATOM     16  S   UNL     1       7.182   4.268  14.613  0.00  0.00    +0.000 S 
ENDROOT
BRANCH  10  17
ATOM     17  O   UNL     1       1.908   7.912  17.908  0.00  0.00    +0.000 OA
BRANCH  17  18
ATOM     18  C   UNL     1       1.845   8.701  19.102  0.00  0.00    +0.000 C 
BRANCH  18  19
ATOM     19  C   UNL     1       0.760   9.732  19.020  0.00  0.00    +0.000 A 
ATOM     20  C   UNL     1       0.601  10.731  19.981  0.00  0.00    +0.000 A 
ATOM     21  C   UNL     1      -0.442  11.644  19.856  0.00  0.00    +0.000 A 
ATOM     22  C   UNL     1      -1.301  11.516  18.776  0.00  0.00    +0.000 A 
ATOM     23  N   UNL     1      -1.192  10.554  17.837  0.00  0.00    +0.000 NA
ATOM     24  C   UNL     1      -0.167   9.686  17.984  0.00  0.00    +0.000 A 
ENDBRANCH  18  19
ENDBRANCH  17  18
ENDBRANCH  10  17
TORSDOF 3
ENDMDL
MODEL 9
REMARK VINA RESULT:      -6.2      4.276      8.748
REMARK  Name = 
REMARK  4 active torsions:
REMARK  status: ('A' for Active; 'I' for Inactive)
REMARK    1  A    between atoms: C_1  and  C_2
REMARK    2  A    between atoms: C_10  and  O_11
REMARK    3  A    between atoms: O_11  and  C_12
REMARK    4  A    between atoms: C_12  and  C_13
REMARK                            x       y       z     vdW  Elec       q    Type
REMARK                         _______ _______ _______ _____ _____    ______ ____
ROOT
ATOM      1  C   UNL     1       4.128  14.306  18.392  0.00  0.00    +0.000 C 
ATOM      2  C   UNL     1       2.756  14.068  18.917  0.00  0.00    +0.000 A 
ATOM      3  C   UNL     1       2.307  13.005  19.672  0.00  0.00    +0.000 A 
ATOM      4  C   UNL     1       0.905  13.086  19.974  0.00  0.00    +0.000 A 
ATOM      5  C   UNL     1       0.031  12.206  20.648  0.00  0.00    +0.000 A 
ATOM      6  N   UNL     1       0.503  10.955  21.041  0.00  0.00    +0.000 N 
ATOM      7  C   UNL     1      -0.099  10.325  22.210  0.00  0.00    +0.000 C 
ATOM      8  C   UNL     1       0.839   9.172  22.614  0.00  0.00    +0.000 C 
ATOM      9  C   UNL     1       1.127   8.206  21.449  0.00  0.00    +0.000 C 
ATOM     10  C   UNL     1       1.531   8.936  20.154  0.00  0.00    +0.000 C 
ATOM     11  C   UNL     1       0.520  10.058  19.883  0.00  0.00    +0.000 C 
ATOM     12  N   UNL     1      -1.263  12.553  20.787  0.00  0.00    +0.000 NA
ATOM     13  C   UNL     1      -1.668  13.714  20.235  0.00  0.00    +0.000 A 
ATOM     14  N   UNL     1      -0.940  14.605  19.548  0.00  0.00    +0.000 NA
ATOM     15  C   UNL     1       0.348  14.237  19.452  0.00  0.00    +0.000 A 
ATOM     16  S   UNL     1       1.489  15.181  18.604  0.00  0.00    +0.000 S 
ENDROOT
BRANCH  10  17
ATOM     17  O   UNL     1       1.584   7.989  19.077  0.00  0.00    +0.000 OA
BRANCH  17  18
ATOM     18  C   UNL     1       2.604   6.999  19.256  0.00  0.00    +0.000 C 
BRANCH  18  19
ATOM     19  C   UNL     1       2.047   5.613  19.138  0.00  0.00    +0.000 A 
ATOM     20  C   UNL     1       1.600   4.887  20.243  0.00  0.00    +0.000 A 
ATOM     21  C   UNL     1       1.116   3.595  20.065  0.00  0.00    +0.000 A 
ATOM     22  C   UNL     1       1.107   3.067  18.785  0.00  0.00    +0.000 A 
ATOM     23  N   UNL     1       1.548   3.728  17.694  0.00  0.00    +0.000 NA
ATOM     24  C   UNL     1       2.008   4.981  17.898  0.00  0.00    +0.000 A 
ENDBRANCH  18  19
ENDBRANCH  17  18
ENDBRANCH  10  17
TORSDOF 3
ENDMDL
