MODEL 1
REMARK VINA RESULT:      -6.8      0.000      0.000
REMARK  Name = 
REMARK  15 active torsions:
REMARK  status: ('A' for Active; 'I' for Inactive)
REMARK    1  A    between atoms: P_2  and  O_3
REMARK    2  A    between atoms: P_2  and  O_4
REMARK    3  A    between atoms: P_2  and  O_5
REMARK    4  A    between atoms: O_5  and  C_6
REMARK    5  A    between atoms: C_7  and  O_8
REMARK    6  A    between atoms: C_9  and  O_10
REMARK    7  A    between atoms: C_11  and  O_12
REMARK    8  A    between atoms: O_12  and  P_13
REMARK    9  A    between atoms: P_13  and  O_15
REMARK   10  A    between atoms: P_13  and  O_16
REMARK   11  A    between atoms: C_17  and  O_18
REMARK   12  A    between atoms: O_18  and  P_19
REMARK   13  A    between atoms: P_19  and  O_21
REMARK   14  A    between atoms: P_19  and  O_22
REMARK   15  A    between atoms: C_23  and  O_24
REMARK                            x       y       z     vdW  Elec       q    Type
REMARK                         _______ _______ _______ _____ _____    ______ ____
ROOT
ATOM      1  C   UNL     1       3.179   3.406  18.901  0.00  0.00    +0.000 C 
ATOM      2  C   UNL     1       4.691   3.132  18.860  0.00  0.00    +0.000 C 
ATOM      3  C   UNL     1       5.503   4.407  18.595  0.00  0.00    +0.000 C 
ATOM      4  C   UNL     1       5.014   5.238  17.388  0.00  0.00    +0.000 C 
ATOM      5  C   UNL     1       3.476   5.462  17.503  0.00  0.00    +0.000 C 
ATOM      6  C   UNL     1       2.752   4.096  17.613  0.00  0.00    +0.000 C 
ENDROOT
BRANCH   2   7
ATOM      7  O   UNL     1       5.151   2.539  20.081  0.00  0.00    +0.000 OA
ATOM      8  H   UNL     1       5.800   3.159  20.475  0.00  0.00    +0.000 HD
ENDBRANCH   2   7
BRANCH   3   9
ATOM      9  O   UNL     1       6.899   4.095  18.536  0.00  0.00    +0.000 OA
ATOM     10  H   UNL     1       7.391   4.679  19.147  0.00  0.00    +0.000 HD
ENDBRANCH   3   9
BRANCH   6  11
ATOM     11  O   UNL     1       1.330   4.271  17.598  0.00  0.00    +0.000 OA
ATOM     12  H   UNL     1       0.937   3.613  16.989  0.00  0.00    +0.000 HD
ENDBRANCH   6  11
BRANCH   1  13
ATOM     13  O   UNL     1       2.802   4.255  20.009  0.00  0.00    +0.000 OA
BRANCH  13  15
ATOM     14  O   UNL     1       1.127   2.427  22.153  0.00  0.00    +0.000 OA
ATOM     15  P   UNL     1       1.918   3.290  21.140  0.00  0.00    +0.000 P 
BRANCH  15  16
ATOM     16  O   UNL     1       1.951   2.083  20.029  0.00  0.00    +0.000 OA
ATOM     17  H   UNL     1       2.721   1.529  20.262  0.00  0.00    +0.000 HD
ENDBRANCH  15  16
BRANCH  15  18
ATOM     18  O   UNL     1       0.569   4.005  20.565  0.00  0.00    +0.000 OA
ATOM     19  H   UNL     1       0.031   4.288  21.326  0.00  0.00    +0.000 HD
ENDBRANCH  15  18
ENDBRANCH  13  15
ENDBRANCH   1  13
BRANCH   4  20
ATOM     20  O   UNL     1       5.238   4.738  16.067  0.00  0.00    +0.000 OA
BRANCH  20  21
ATOM     21  P   UNL     1       6.587   4.610  15.255  0.00  0.00    +0.000 P 
ATOM     22  O   UNL     1       7.861   4.513  16.024  0.00  0.00    +0.000 OA
BRANCH  21  23
ATOM     23  O   UNL     1       6.324   3.300  14.361  0.00  0.00    +0.000 OA
ATOM     24  H   UNL     1       5.893   2.585  14.860  0.00  0.00    +0.000 HD
ENDBRANCH  21  23
BRANCH  21  25
ATOM     25  O   UNL     1       6.627   5.719  14.114  0.00  0.00    +0.000 OA
ATOM     26  H   UNL     1       6.998   6.563  14.460  0.00  0.00    +0.000 HD
ENDBRANCH  21  25
ENDBRANCH  20  21
ENDBRANCH   4  20
BRANCH   5  27
ATOM     27  O   UNL     1       3.145   6.287  18.645  0.00  0.00    +0.000 OA
BRANCH  27  28
ATOM     28  P   UNL     1       2.616   7.853  18.134  0.00  0.00    +0.000 P 
ATOM     29  O   UNL     1       1.415   7.274  17.384  0.00  0.00    +0.000 OA
BRANCH  28  30
ATOM     30  O   UNL     1       1.996   8.148  19.616  0.00  0.00    +0.000 OA
ATOM     31  H   UNL     1       2.318   7.441  20.204  0.00  0.00    +0.000 HD
ENDBRANCH  28  30
BRANCH  28  32
ATOM     32  O   UNL     1       2.087   9.419  17.623  0.00  0.00    +0.000 OA
ATOM     33  H   UNL     1       1.177   9.453  17.982  0.00  0.00    +0.000 HD
ENDBRANCH  28  32
ENDBRANCH  27  28
ENDBRANCH   5  27
TORSDOF 15
ENDMDL
MODEL 2
REMARK VINA RESULT:      -6.7      0.605      1.234
REMARK  Name = 
REMARK  15 active torsions:
REMARK  status: ('A' for Active; 'I' for Inactive)
REMARK    1  A    between atoms: P_2  and  O_3
REMARK    2  A    between atoms: P_2  and  O_4
REMARK    3  A    between atoms: P_2  and  O_5
REMARK    4  A    between atoms: O_5  and  C_6
REMARK    5  A    between atoms: C_7  and  O_8
REMARK    6  A    between atoms: C_9  and  O_10
REMARK    7  A    between atoms: C_11  and  O_12
REMARK    8  A    between atoms: O_12  and  P_13
REMARK    9  A    between atoms: P_13  and  O_15
REMARK   10  A    between atoms: P_13  and  O_16
REMARK   11  A    between atoms: C_17  and  O_18
REMARK   12  A    between atoms: O_18  and  P_19
REMARK   13  A    between atoms: P_19  and  O_21
REMARK   14  A    between atoms: P_19  and  O_22
REMARK   15  A    between atoms: C_23  and  O_24
REMARK                            x       y       z     vdW  Elec       q    Type
REMARK                         _______ _______ _______ _____ _____    ______ ____
ROOT
ATOM      1  C   UNL     1       3.116   3.120  19.020  0.00  0.00    +0.000 C 
ATOM      2  C   UNL     1       4.634   2.896  18.931  0.00  0.00    +0.000 C 
ATOM      3  C   UNL     1       5.387   4.175  18.543  0.00  0.00    +0.000 C 
ATOM      4  C   UNL     1       4.818   4.900  17.303  0.00  0.00    +0.000 C 
ATOM      5  C   UNL     1       3.278   5.079  17.469  0.00  0.00    +0.000 C 
ATOM      6  C   UNL     1       2.611   3.701  17.706  0.00  0.00    +0.000 C 
ENDROOT
BRANCH   2   7
ATOM      7  O   UNL     1       5.166   2.408  20.170  0.00  0.00    +0.000 OA
ATOM      8  H   UNL     1       4.590   1.668  20.459  0.00  0.00    +0.000 HD
ENDBRANCH   2   7
BRANCH   3   9
ATOM      9  O   UNL     1       6.789   3.907  18.445  0.00  0.00    +0.000 OA
ATOM     10  H   UNL     1       7.031   3.195  19.070  0.00  0.00    +0.000 HD
ENDBRANCH   3   9
BRANCH   6  11
ATOM     11  O   UNL     1       1.184   3.826  17.741  0.00  0.00    +0.000 OA
ATOM     12  H   UNL     1       0.903   4.439  17.031  0.00  0.00    +0.000 HD
ENDBRANCH   6  11
BRANCH   1  13
ATOM     13  O   UNL     1       2.754   4.032  20.081  0.00  0.00    +0.000 OA
BRANCH  13  15
ATOM     14  O   UNL     1       1.082   2.340  22.336  0.00  0.00    +0.000 OA
ATOM     15  P   UNL     1       1.871   3.139  21.270  0.00  0.00    +0.000 P 
BRANCH  15  16
ATOM     16  O   UNL     1       1.925   1.858  20.246  0.00  0.00    +0.000 OA
ATOM     17  H   UNL     1       2.278   2.206  19.405  0.00  0.00    +0.000 HD
ENDBRANCH  15  16
BRANCH  15  18
ATOM     18  O   UNL     1       0.520   3.798  20.638  0.00  0.00    +0.000 OA
ATOM     19  H   UNL     1      -0.247   3.319  21.002  0.00  0.00    +0.000 HD
ENDBRANCH  15  18
ENDBRANCH  13  15
ENDBRANCH   1  13
BRANCH   4  20
ATOM     20  O   UNL     1       5.005   4.315  16.012  0.00  0.00    +0.000 OA
BRANCH  20  21
ATOM     21  P   UNL     1       6.127   4.593  14.934  0.00  0.00    +0.000 P 
ATOM     22  O   UNL     1       6.149   3.741  13.710  0.00  0.00    +0.000 OA
BRANCH  21  23
ATOM     23  O   UNL     1       5.888   6.143  14.584  0.00  0.00    +0.000 OA
ATOM     24  H   UNL     1       6.451   6.454  13.854  0.00  0.00    +0.000 HD
ENDBRANCH  21  23
BRANCH  21  25
ATOM     25  O   UNL     1       7.543   4.690  15.656  0.00  0.00    +0.000 OA
ATOM     26  H   UNL     1       7.861   3.797  15.923  0.00  0.00    +0.000 HD
ENDBRANCH  21  25
ENDBRANCH  20  21
ENDBRANCH   4  20
BRANCH   5  27
ATOM     27  O   UNL     1       2.964   5.972  18.564  0.00  0.00    +0.000 OA
BRANCH  27  28
ATOM     28  P   UNL     1       2.454   7.514  17.967  0.00  0.00    +0.000 P 
ATOM     29  O   UNL     1       2.149   8.031  19.374  0.00  0.00    +0.000 OA
BRANCH  28  30
ATOM     30  O   UNL     1       4.008   7.967  17.756  0.00  0.00    +0.000 OA
ATOM     31  H   UNL     1       4.561   7.309  18.215  0.00  0.00    +0.000 HD
ENDBRANCH  28  30
BRANCH  28  32
ATOM     32  O   UNL     1       1.943   9.055  17.370  0.00  0.00    +0.000 OA
ATOM     33  H   UNL     1       1.162   8.816  16.830  0.00  0.00    +0.000 HD
ENDBRANCH  28  32
ENDBRANCH  27  28
ENDBRANCH   5  27
TORSDOF 15
ENDMDL
MODEL 3
REMARK VINA RESULT:      -6.6      0.604      1.179
REMARK  Name = 
REMARK  15 active torsions:
REMARK  status: ('A' for Active; 'I' for Inactive)
REMARK    1  A    between atoms: P_2  and  O_3
REMARK    2  A    between atoms: P_2  and  O_4
REMARK    3  A    between atoms: P_2  and  O_5
REMARK    4  A    between atoms: O_5  and  C_6
REMARK    5  A    between atoms: C_7  and  O_8
REMARK    6  A    between atoms: C_9  and  O_10
REMARK    7  A    between atoms: C_11  and  O_12
REMARK    8  A    between atoms: O_12  and  P_13
REMARK    9  A    between atoms: P_13  and  O_15
REMARK   10  A    between atoms: P_13  and  O_16
REMARK   11  A    between atoms: C_17  and  O_18
REMARK   12  A    between atoms: O_18  and  P_19
REMARK   13  A    between atoms: P_19  and  O_21
REMARK   14  A    between atoms: P_19  and  O_22
REMARK   15  A    between atoms: C_23  and  O_24
REMARK                            x       y       z     vdW  Elec       q    Type
REMARK                         _______ _______ _______ _____ _____    ______ ____
ROOT
ATOM      1  C   UNL     1       3.244   3.693  18.977  0.00  0.00    +0.000 C 
ATOM      2  C   UNL     1       4.772   3.568  19.092  0.00  0.00    +0.000 C 
ATOM      3  C   UNL     1       5.479   4.917  18.904  0.00  0.00    +0.000 C 
ATOM      4  C   UNL     1       5.038   5.700  17.647  0.00  0.00    +0.000 C 
ATOM      5  C   UNL     1       3.481   5.773  17.603  0.00  0.00    +0.000 C 
ATOM      6  C   UNL     1       2.887   4.343  17.648  0.00  0.00    +0.000 C 
ENDROOT
BRANCH   2   7
ATOM      7  O   UNL     1       5.161   3.019  20.358  0.00  0.00    +0.000 OA
ATOM      8  H   UNL     1       5.788   3.653  20.767  0.00  0.00    +0.000 HD
ENDBRANCH   2   7
BRANCH   3   9
ATOM      9  O   UNL     1       6.897   4.743  18.990  0.00  0.00    +0.000 OA
ATOM     10  H   UNL     1       7.103   4.062  19.661  0.00  0.00    +0.000 HD
ENDBRANCH   3   9
BRANCH   6  11
ATOM     11  O   UNL     1       1.463   4.378  17.486  0.00  0.00    +0.000 OA
ATOM     12  H   UNL     1       1.129   3.460  17.427  0.00  0.00    +0.000 HD
ENDBRANCH   6  11
BRANCH   1  13
ATOM     13  O   UNL     1       2.675   4.497  20.036  0.00  0.00    +0.000 OA
BRANCH  13  15
ATOM     14  O   UNL     1       1.175   2.479  22.137  0.00  0.00    +0.000 OA
ATOM     15  P   UNL     1       1.883   3.432  21.144  0.00  0.00    +0.000 P 
BRANCH  15  16
ATOM     16  O   UNL     1       2.242   2.206  20.113  0.00  0.00    +0.000 OA
ATOM     17  H   UNL     1       2.717   2.619  19.366  0.00  0.00    +0.000 HD
ENDBRANCH  15  16
BRANCH  15  18
ATOM     18  O   UNL     1       0.485   3.853  20.417  0.00  0.00    +0.000 OA
ATOM     19  H   UNL     1       0.369   3.284  19.635  0.00  0.00    +0.000 HD
ENDBRANCH  15  18
ENDBRANCH  13  15
ENDBRANCH   1  13
BRANCH   4  20
ATOM     20  O   UNL     1       5.443   5.229  16.360  0.00  0.00    +0.000 OA
BRANCH  20  21
ATOM     21  P   UNL     1       6.885   5.179  15.715  0.00  0.00    +0.000 P 
ATOM     22  O   UNL     1       6.987   5.190  14.227  0.00  0.00    +0.000 OA
BRANCH  21  23
ATOM     23  O   UNL     1       7.600   6.457  16.376  0.00  0.00    +0.000 OA
ATOM     24  H   UNL     1       7.976   6.265  17.253  0.00  0.00    +0.000 HD
ENDBRANCH  21  23
BRANCH  21  25
ATOM     25  O   UNL     1       7.728   4.011  16.392  0.00  0.00    +0.000 OA
ATOM     26  H   UNL     1       8.651   4.305  16.571  0.00  0.00    +0.000 HD
ENDBRANCH  21  25
ENDBRANCH  20  21
ENDBRANCH   4  20
BRANCH   5  27
ATOM     27  O   UNL     1       2.957   6.558  18.700  0.00  0.00    +0.000 OA
BRANCH  27  28
ATOM     28  P   UNL     1       2.430   8.109  18.143  0.00  0.00    +0.000 P 
ATOM     29  O   UNL     1       1.238   7.508  17.395  0.00  0.00    +0.000 OA
BRANCH  28  30
ATOM     30  O   UNL     1       1.792   8.439  19.610  0.00  0.00    +0.000 OA
ATOM     31  H   UNL     1       1.501   7.591  19.991  0.00  0.00    +0.000 HD
ENDBRANCH  28  30
BRANCH  28  32
ATOM     32  O   UNL     1       1.903   9.660  17.586  0.00  0.00    +0.000 OA
ATOM     33  H   UNL     1       2.743  10.162  17.559  0.00  0.00    +0.000 HD
ENDBRANCH  28  32
ENDBRANCH  27  28
ENDBRANCH   5  27
TORSDOF 15
ENDMDL
MODEL 4
REMARK VINA RESULT:      -6.4      0.668      1.005
REMARK  Name = 
REMARK  15 active torsions:
REMARK  status: ('A' for Active; 'I' for Inactive)
REMARK    1  A    between atoms: P_2  and  O_3
REMARK    2  A    between atoms: P_2  and  O_4
REMARK    3  A    between atoms: P_2  and  O_5
REMARK    4  A    between atoms: O_5  and  C_6
REMARK    5  A    between atoms: C_7  and  O_8
REMARK    6  A    between atoms: C_9  and  O_10
REMARK    7  A    between atoms: C_11  and  O_12
REMARK    8  A    between atoms: O_12  and  P_13
REMARK    9  A    between atoms: P_13  and  O_15
REMARK   10  A    between atoms: P_13  and  O_16
REMARK   11  A    between atoms: C_17  and  O_18
REMARK   12  A    between atoms: O_18  and  P_19
REMARK   13  A    between atoms: P_19  and  O_21
REMARK   14  A    between atoms: P_19  and  O_22
REMARK   15  A    between atoms: C_23  and  O_24
REMARK                            x       y       z     vdW  Elec       q    Type
REMARK                         _______ _______ _______ _____ _____    ______ ____
ROOT
ATOM      1  C   UNL     1       3.175   3.134  18.848  0.00  0.00    +0.000 C 
ATOM      2  C   UNL     1       4.701   2.949  18.825  0.00  0.00    +0.000 C 
ATOM      3  C   UNL     1       5.440   4.266  18.555  0.00  0.00    +0.000 C 
ATOM      4  C   UNL     1       4.917   5.054  17.333  0.00  0.00    +0.000 C 
ATOM      5  C   UNL     1       3.368   5.189  17.429  0.00  0.00    +0.000 C 
ATOM      6  C   UNL     1       2.724   3.784  17.547  0.00  0.00    +0.000 C 
ENDROOT
BRANCH   2   7
ATOM      7  O   UNL     1       5.181   2.397  20.058  0.00  0.00    +0.000 OA
ATOM      8  H   UNL     1       4.395   2.153  20.590  0.00  0.00    +0.000 HD
ENDBRANCH   2   7
BRANCH   3   9
ATOM      9  O   UNL     1       6.853   4.036  18.514  0.00  0.00    +0.000 OA
ATOM     10  H   UNL     1       7.137   3.906  17.587  0.00  0.00    +0.000 HD
ENDBRANCH   3   9
BRANCH   6  11
ATOM     11  O   UNL     1       1.293   3.875  17.515  0.00  0.00    +0.000 OA
ATOM     12  H   UNL     1       0.937   3.081  17.068  0.00  0.00    +0.000 HD
ENDBRANCH   6  11
BRANCH   1  13
ATOM     13  O   UNL     1       2.737   3.971  19.942  0.00  0.00    +0.000 OA
BRANCH  13  15
ATOM     14  O   UNL     1       1.345   2.036  22.191  0.00  0.00    +0.000 OA
ATOM     15  P   UNL     1       2.002   2.950  21.129  0.00  0.00    +0.000 P 
BRANCH  15  16
ATOM     16  O   UNL     1       0.551   3.532  20.629  0.00  0.00    +0.000 OA
ATOM     17  H   UNL     1       0.731   4.012  19.797  0.00  0.00    +0.000 HD
ENDBRANCH  15  16
BRANCH  15  18
ATOM     18  O   UNL     1       2.292   4.140  22.207  0.00  0.00    +0.000 OA
ATOM     19  H   UNL     1       1.733   4.902  21.972  0.00  0.00    +0.000 HD
ENDBRANCH  15  18
ENDBRANCH  13  15
ENDBRANCH   1  13
BRANCH   4  20
ATOM     20  O   UNL     1       5.185   4.554  16.020  0.00  0.00    +0.000 OA
BRANCH  20  21
ATOM     21  P   UNL     1       6.530   4.571  15.192  0.00  0.00    +0.000 P 
ATOM     22  O   UNL     1       7.816   4.490  15.943  0.00  0.00    +0.000 OA
BRANCH  21  23
ATOM     23  O   UNL     1       6.335   3.322  14.198  0.00  0.00    +0.000 OA
ATOM     24  H   UNL     1       5.608   2.736  14.471  0.00  0.00    +0.000 HD
ENDBRANCH  21  23
BRANCH  21  25
ATOM     25  O   UNL     1       6.491   5.766  14.142  0.00  0.00    +0.000 OA
ATOM     26  H   UNL     1       5.602   5.837  13.726  0.00  0.00    +0.000 HD
ENDBRANCH  21  25
ENDBRANCH  20  21
ENDBRANCH   4  20
BRANCH   5  27
ATOM     27  O   UNL     1       2.976   6.005  18.558  0.00  0.00    +0.000 OA
BRANCH  27  28
ATOM     28  P   UNL     1       2.376   7.538  18.024  0.00  0.00    +0.000 P 
ATOM     29  O   UNL     1       2.130   8.014  19.457  0.00  0.00    +0.000 OA
BRANCH  28  30
ATOM     30  O   UNL     1       3.898   8.055  17.739  0.00  0.00    +0.000 OA
ATOM     31  H   UNL     1       4.400   7.930  18.565  0.00  0.00    +0.000 HD
ENDBRANCH  28  30
BRANCH  28  32
ATOM     32  O   UNL     1       1.775   9.070  17.490  0.00  0.00    +0.000 OA
ATOM     33  H   UNL     1       1.448   9.462  18.325  0.00  0.00    +0.000 HD
ENDBRANCH  28  32
ENDBRANCH  27  28
ENDBRANCH   5  27
TORSDOF 15
ENDMDL
MODEL 5
REMARK VINA RESULT:      -6.3      0.627      1.213
REMARK  Name = 
REMARK  15 active torsions:
REMARK  status: ('A' for Active; 'I' for Inactive)
REMARK    1  A    between atoms: P_2  and  O_3
REMARK    2  A    between atoms: P_2  and  O_4
REMARK    3  A    between atoms: P_2  and  O_5
REMARK    4  A    between atoms: O_5  and  C_6
REMARK    5  A    between atoms: C_7  and  O_8
REMARK    6  A    between atoms: C_9  and  O_10
REMARK    7  A    between atoms: C_11  and  O_12
REMARK    8  A    between atoms: O_12  and  P_13
REMARK    9  A    between atoms: P_13  and  O_15
REMARK   10  A    between atoms: P_13  and  O_16
REMARK   11  A    between atoms: C_17  and  O_18
REMARK   12  A    between atoms: O_18  and  P_19
REMARK   13  A    between atoms: P_19  and  O_21
REMARK   14  A    between atoms: P_19  and  O_22
REMARK   15  A    between atoms: C_23  and  O_24
REMARK                            x       y       z     vdW  Elec       q    Type
REMARK                         _______ _______ _______ _____ _____    ______ ____
ROOT
ATOM      1  C   UNL     1       3.150   3.041  18.952  0.00  0.00    +0.000 C 
ATOM      2  C   UNL     1       4.666   2.813  18.841  0.00  0.00    +0.000 C 
ATOM      3  C   UNL     1       5.423   4.105  18.506  0.00  0.00    +0.000 C 
ATOM      4  C   UNL     1       4.849   4.889  17.305  0.00  0.00    +0.000 C 
ATOM      5  C   UNL     1       3.311   5.068  17.491  0.00  0.00    +0.000 C 
ATOM      6  C   UNL     1       2.639   3.684  17.670  0.00  0.00    +0.000 C 
ENDROOT
BRANCH   2   7
ATOM      7  O   UNL     1       5.205   2.266  20.052  0.00  0.00    +0.000 OA
ATOM      8  H   UNL     1       6.170   2.442  20.043  0.00  0.00    +0.000 HD
ENDBRANCH   2   7
BRANCH   3   9
ATOM      9  O   UNL     1       6.823   3.835  18.385  0.00  0.00    +0.000 OA
ATOM     10  H   UNL     1       7.331   4.653  18.559  0.00  0.00    +0.000 HD
ENDBRANCH   3   9
BRANCH   6  11
ATOM     11  O   UNL     1       1.212   3.814  17.722  0.00  0.00    +0.000 OA
ATOM     12  H   UNL     1       0.957   4.666  17.313  0.00  0.00    +0.000 HD
ENDBRANCH   6  11
BRANCH   1  13
ATOM     13  O   UNL     1       2.801   3.905  20.057  0.00  0.00    +0.000 OA
BRANCH  13  15
ATOM     14  O   UNL     1       1.254   2.089  22.304  0.00  0.00    +0.000 OA
ATOM     15  P   UNL     1       1.984   2.947  21.243  0.00  0.00    +0.000 P 
BRANCH  15  16
ATOM     16  O   UNL     1       0.579   3.592  20.694  0.00  0.00    +0.000 OA
ATOM     17  H   UNL     1      -0.014   2.834  20.530  0.00  0.00    +0.000 HD
ENDBRANCH  15  16
BRANCH  15  18
ATOM     18  O   UNL     1       2.309   4.141  22.306  0.00  0.00    +0.000 OA
ATOM     19  H   UNL     1       2.850   3.766  23.024  0.00  0.00    +0.000 HD
ENDBRANCH  15  18
ENDBRANCH  13  15
ENDBRANCH   1  13
BRANCH   4  20
ATOM     20  O   UNL     1       5.023   4.363  15.987  0.00  0.00    +0.000 OA
BRANCH  20  21
ATOM     21  P   UNL     1       6.145   4.675  14.919  0.00  0.00    +0.000 P 
ATOM     22  O   UNL     1       6.161   3.870  13.664  0.00  0.00    +0.000 OA
BRANCH  21  23
ATOM     23  O   UNL     1       5.914   6.238  14.628  0.00  0.00    +0.000 OA
ATOM     24  H   UNL     1       5.226   6.397  13.957  0.00  0.00    +0.000 HD
ENDBRANCH  21  23
BRANCH  21  25
ATOM     25  O   UNL     1       7.562   4.736  15.642  0.00  0.00    +0.000 OA
ATOM     26  H   UNL     1       8.292   4.616  14.991  0.00  0.00    +0.000 HD
ENDBRANCH  21  25
ENDBRANCH  20  21
ENDBRANCH   4  20
BRANCH   5  27
ATOM     27  O   UNL     1       3.011   5.912  18.628  0.00  0.00    +0.000 OA
BRANCH  27  28
ATOM     28  P   UNL     1       2.629   7.518  18.112  0.00  0.00    +0.000 P 
ATOM     29  O   UNL     1       1.346   7.061  17.416  0.00  0.00    +0.000 OA
BRANCH  28  30
ATOM     30  O   UNL     1       2.101   7.894  19.611  0.00  0.00    +0.000 OA
ATOM     31  H   UNL     1       1.133   7.993  19.554  0.00  0.00    +0.000 HD
ENDBRANCH  28  30
BRANCH  28  32
ATOM     32  O   UNL     1       2.248   9.125  17.596  0.00  0.00    +0.000 OA
ATOM     33  H   UNL     1       2.526   9.659  18.369  0.00  0.00    +0.000 HD
ENDBRANCH  28  32
ENDBRANCH  27  28
ENDBRANCH   5  27
TORSDOF 15
ENDMDL
MODEL 6
REMARK VINA RESULT:      -6.1      0.773      1.108
REMARK  Name = 
REMARK  15 active torsions:
REMARK  status: ('A' for Active; 'I' for Inactive)
REMARK    1  A    between atoms: P_2  and  O_3
REMARK    2  A    between atoms: P_2  and  O_4
REMARK    3  A    between atoms: P_2  and  O_5
REMARK    4  A    between atoms: O_5  and  C_6
REMARK    5  A    between atoms: C_7  and  O_8
REMARK    6  A    between atoms: C_9  and  O_10
REMARK    7  A    between atoms: C_11  and  O_12
REMARK    8  A    between atoms: O_12  and  P_13
REMARK    9  A    between atoms: P_13  and  O_15
REMARK   10  A    between atoms: P_13  and  O_16
REMARK   11  A    between atoms: C_17  and  O_18
REMARK   12  A    between atoms: O_18  and  P_19
REMARK   13  A    between atoms: P_19  and  O_21
REMARK   14  A    between atoms: P_19  and  O_22
REMARK   15  A    between atoms: C_23  and  O_24
REMARK                            x       y       z     vdW  Elec       q    Type
REMARK                         _______ _______ _______ _____ _____    ______ ____
ROOT
ATOM      1  C   UNL     1       3.202   3.568  19.008  0.00  0.00    +0.000 C 
ATOM      2  C   UNL     1       4.722   3.501  19.227  0.00  0.00    +0.000 C 
ATOM      3  C   UNL     1       5.389   4.875  19.082  0.00  0.00    +0.000 C 
ATOM      4  C   UNL     1       5.005   5.640  17.795  0.00  0.00    +0.000 C 
ATOM      5  C   UNL     1       3.454   5.654  17.645  0.00  0.00    +0.000 C 
ATOM      6  C   UNL     1       2.911   4.202  17.655  0.00  0.00    +0.000 C 
ENDROOT
BRANCH   2   7
ATOM      7  O   UNL     1       5.044   2.968  20.518  0.00  0.00    +0.000 OA
ATOM      8  H   UNL     1       4.245   3.065  21.077  0.00  0.00    +0.000 HD
ENDBRANCH   2   7
BRANCH   3   9
ATOM      9  O   UNL     1       6.804   4.754  19.264  0.00  0.00    +0.000 OA
ATOM     10  H   UNL     1       7.109   3.901  18.897  0.00  0.00    +0.000 HD
ENDBRANCH   3   9
BRANCH   6  11
ATOM     11  O   UNL     1       1.501   4.184  17.397  0.00  0.00    +0.000 OA
ATOM     12  H   UNL     1       1.352   4.347  16.444  0.00  0.00    +0.000 HD
ENDBRANCH   6  11
BRANCH   1  13
ATOM     13  O   UNL     1       2.533   4.351  20.023  0.00  0.00    +0.000 OA
BRANCH  13  15
ATOM     14  O   UNL     1       1.122   2.275  22.130  0.00  0.00    +0.000 OA
ATOM     15  P   UNL     1       1.789   3.255  21.134  0.00  0.00    +0.000 P 
BRANCH  15  16
ATOM     16  O   UNL     1       2.202   2.044  20.108  0.00  0.00    +0.000 OA
ATOM     17  H   UNL     1       1.416   1.890  19.549  0.00  0.00    +0.000 HD
ENDBRANCH  15  16
BRANCH  15  18
ATOM     18  O   UNL     1       0.374   3.612  20.405  0.00  0.00    +0.000 OA
ATOM     19  H   UNL     1       0.223   4.570  20.494  0.00  0.00    +0.000 HD
ENDBRANCH  15  18
ENDBRANCH  13  15
ENDBRANCH   1  13
BRANCH   4  20
ATOM     20  O   UNL     1       5.514   5.183  16.540  0.00  0.00    +0.000 OA
BRANCH  20  21
ATOM     21  P   UNL     1       6.955   5.357  15.914  0.00  0.00    +0.000 P 
ATOM     22  O   UNL     1       7.712   6.601  16.237  0.00  0.00    +0.000 OA
BRANCH  21  23
ATOM     23  O   UNL     1       7.714   4.039  16.432  0.00  0.00    +0.000 OA
ATOM     24  H   UNL     1       7.212   3.224  16.257  0.00  0.00    +0.000 HD
ENDBRANCH  21  23
BRANCH  21  25
ATOM     25  O   UNL     1       6.896   5.046  14.354  0.00  0.00    +0.000 OA
ATOM     26  H   UNL     1       7.340   4.190  14.152  0.00  0.00    +0.000 HD
ENDBRANCH  21  25
ENDBRANCH  20  21
ENDBRANCH   4  20
BRANCH   5  27
ATOM     27  O   UNL     1       2.827   6.419  18.702  0.00  0.00    +0.000 OA
BRANCH  27  28
ATOM     28  P   UNL     1       2.136   7.876  18.072  0.00  0.00    +0.000 P 
ATOM     29  O   UNL     1       1.878   8.436  19.472  0.00  0.00    +0.000 OA
BRANCH  28  30
ATOM     30  O   UNL     1       3.625   8.456  17.731  0.00  0.00    +0.000 OA
ATOM     31  H   UNL     1       3.523   9.075  16.986  0.00  0.00    +0.000 HD
ENDBRANCH  28  30
BRANCH  28  32
ATOM     32  O   UNL     1       1.446   9.332  17.443  0.00  0.00    +0.000 OA
ATOM     33  H   UNL     1       0.487   9.143  17.497  0.00  0.00    +0.000 HD
ENDBRANCH  28  32
ENDBRANCH  27  28
ENDBRANCH   5  27
TORSDOF 15
ENDMDL
MODEL 7
REMARK VINA RESULT:      -6.1      0.795      1.420
REMARK  Name = 
REMARK  15 active torsions:
REMARK  status: ('A' for Active; 'I' for Inactive)
REMARK    1  A    between atoms: P_2  and  O_3
REMARK    2  A    between atoms: P_2  and  O_4
REMARK    3  A    between atoms: P_2  and  O_5
REMARK    4  A    between atoms: O_5  and  C_6
REMARK    5  A    between atoms: C_7  and  O_8
REMARK    6  A    between atoms: C_9  and  O_10
REMARK    7  A    between atoms: C_11  and  O_12
REMARK    8  A    between atoms: O_12  and  P_13
REMARK    9  A    between atoms: P_13  and  O_15
REMARK   10  A    between atoms: P_13  and  O_16
REMARK   11  A    between atoms: C_17  and  O_18
REMARK   12  A    between atoms: O_18  and  P_19
REMARK   13  A    between atoms: P_19  and  O_21
REMARK   14  A    between atoms: P_19  and  O_22
REMARK   15  A    between atoms: C_23  and  O_24
REMARK                            x       y       z     vdW  Elec       q    Type
REMARK                         _______ _______ _______ _____ _____    ______ ____
ROOT
ATOM      1  C   UNL     1       3.103   3.156  19.158  0.00  0.00    +0.000 C 
ATOM      2  C   UNL     1       4.601   2.875  18.956  0.00  0.00    +0.000 C 
ATOM      3  C   UNL     1       5.385   4.145  18.599  0.00  0.00    +0.000 C 
ATOM      4  C   UNL     1       4.773   4.972  17.447  0.00  0.00    +0.000 C 
ATOM      5  C   UNL     1       3.257   5.204  17.725  0.00  0.00    +0.000 C 
ATOM      6  C   UNL     1       2.544   3.843  17.919  0.00  0.00    +0.000 C 
ENDROOT
BRANCH   2   7
ATOM      7  O   UNL     1       5.186   2.285  20.124  0.00  0.00    +0.000 OA
ATOM      8  H   UNL     1       5.818   1.602  19.815  0.00  0.00    +0.000 HD
ENDBRANCH   2   7
BRANCH   3   9
ATOM      9  O   UNL     1       6.765   3.825  18.393  0.00  0.00    +0.000 OA
ATOM     10  H   UNL     1       7.261   4.640  18.178  0.00  0.00    +0.000 HD
ENDBRANCH   3   9
BRANCH   6  11
ATOM     11  O   UNL     1       1.128   4.024  18.055  0.00  0.00    +0.000 OA
ATOM     12  H   UNL     1       0.954   4.561  18.855  0.00  0.00    +0.000 HD
ENDBRANCH   6  11
BRANCH   1  13
ATOM     13  O   UNL     1       2.850   4.012  20.295  0.00  0.00    +0.000 OA
BRANCH  13  15
ATOM     14  O   UNL     1       0.929   2.370  22.382  0.00  0.00    +0.000 OA
ATOM     15  P   UNL     1       1.837   3.145  21.396  0.00  0.00    +0.000 P 
BRANCH  15  16
ATOM     16  O   UNL     1       3.192   2.401  21.948  0.00  0.00    +0.000 OA
ATOM     17  H   UNL     1       3.908   2.675  21.343  0.00  0.00    +0.000 HD
ENDBRANCH  15  16
BRANCH  15  18
ATOM     18  O   UNL     1       1.557   2.096  20.179  0.00  0.00    +0.000 OA
ATOM     19  H   UNL     1       2.090   1.296  20.343  0.00  0.00    +0.000 HD
ENDBRANCH  15  18
ENDBRANCH  13  15
ENDBRANCH   1  13
BRANCH   4  20
ATOM     20  O   UNL     1       4.852   4.465  16.113  0.00  0.00    +0.000 OA
BRANCH  20  21
ATOM     21  P   UNL     1       5.901   4.785  14.975  0.00  0.00    +0.000 P 
ATOM     22  O   UNL     1       5.805   4.020  13.698  0.00  0.00    +0.000 OA
BRANCH  21  23
ATOM     23  O   UNL     1       5.689   6.362  14.748  0.00  0.00    +0.000 OA
ATOM     24  H   UNL     1       6.483   6.882  14.964  0.00  0.00    +0.000 HD
ENDBRANCH  21  23
BRANCH  21  25
ATOM     25  O   UNL     1       7.368   4.791  15.593  0.00  0.00    +0.000 OA
ATOM     26  H   UNL     1       8.026   4.471  14.934  0.00  0.00    +0.000 HD
ENDBRANCH  21  25
ENDBRANCH  20  21
ENDBRANCH   4  20
BRANCH   5  27
ATOM     27  O   UNL     1       3.054   6.036  18.892  0.00  0.00    +0.000 OA
BRANCH  27  28
ATOM     28  P   UNL     1       2.521   7.616  18.430  0.00  0.00    +0.000 P 
ATOM     29  O   UNL     1       3.703   7.808  17.477  0.00  0.00    +0.000 OA
BRANCH  28  30
ATOM     30  O   UNL     1       1.385   6.967  17.453  0.00  0.00    +0.000 OA
ATOM     31  H   UNL     1       0.535   7.031  17.924  0.00  0.00    +0.000 HD
ENDBRANCH  28  30
BRANCH  28  32
ATOM     32  O   UNL     1       1.988   9.196  17.968  0.00  0.00    +0.000 OA
ATOM     33  H   UNL     1       1.381   8.997  17.225  0.00  0.00    +0.000 HD
ENDBRANCH  28  32
ENDBRANCH  27  28
ENDBRANCH   5  27
TORSDOF 15
ENDMDL
MODEL 8
REMARK VINA RESULT:      -6.0      2.021      4.300
REMARK  Name = 
REMARK  15 active torsions:
REMARK  status: ('A' for Active; 'I' for Inactive)
REMARK    1  A    between atoms: P_2  and  O_3
REMARK    2  A    between atoms: P_2  and  O_4
REMARK    3  A    between atoms: P_2  and  O_5
REMARK    4  A    between atoms: O_5  and  C_6
REMARK    5  A    between atoms: C_7  and  O_8
REMARK    6  A    between atoms: C_9  and  O_10
REMARK    7  A    between atoms: C_11  and  O_12
REMARK    8  A    between atoms: O_12  and  P_13
REMARK    9  A    between atoms: P_13  and  O_15
REMARK   10  A    between atoms: P_13  and  O_16
REMARK   11  A    between atoms: C_17  and  O_18
REMARK   12  A    between atoms: O_18  and  P_19
REMARK   13  A    between atoms: P_19  and  O_21
REMARK   14  A    between atoms: P_19  and  O_22
REMARK   15  A    between atoms: C_23  and  O_24
REMARK                            x       y       z     vdW  Elec       q    Type
REMARK                         _______ _______ _______ _____ _____    ______ ____
ROOT
ATOM      1  C   UNL     1       3.850   4.845  19.347  0.00  0.00    +0.000 C 
ATOM      2  C   UNL     1       3.309   6.283  19.277  0.00  0.00    +0.000 C 
ATOM      3  C   UNL     1       3.479   6.898  17.881  0.00  0.00    +0.000 C 
ATOM      4  C   UNL     1       4.901   6.766  17.292  0.00  0.00    +0.000 C 
ATOM      5  C   UNL     1       5.375   5.286  17.410  0.00  0.00    +0.000 C 
ATOM      6  C   UNL     1       5.301   4.826  18.887  0.00  0.00    +0.000 C 
ENDROOT
BRANCH   2   7
ATOM      7  O   UNL     1       1.924   6.341  19.640  0.00  0.00    +0.000 OA
ATOM      8  H   UNL     1       1.566   5.432  19.556  0.00  0.00    +0.000 HD
ENDBRANCH   2   7
BRANCH   3   9
ATOM      9  O   UNL     1       2.989   8.243  17.876  0.00  0.00    +0.000 OA
ATOM     10  H   UNL     1       3.729   8.861  18.045  0.00  0.00    +0.000 HD
ENDBRANCH   3   9
BRANCH   6  11
ATOM     11  O   UNL     1       5.846   3.508  19.038  0.00  0.00    +0.000 OA
ATOM     12  H   UNL     1       5.112   2.861  19.037  0.00  0.00    +0.000 HD
ENDBRANCH   6  11
BRANCH   1  13
ATOM     13  O   UNL     1       3.103   3.934  18.509  0.00  0.00    +0.000 OA
BRANCH  13  15
ATOM     14  O   UNL     1       1.230   2.080  20.458  0.00  0.00    +0.000 OA
ATOM     15  P   UNL     1       2.116   2.956  19.537  0.00  0.00    +0.000 P 
BRANCH  15  16
ATOM     16  O   UNL     1       3.501   2.373  20.195  0.00  0.00    +0.000 OA
ATOM     17  H   UNL     1       3.221   1.768  20.910  0.00  0.00    +0.000 HD
ENDBRANCH  15  16
BRANCH  15  18
ATOM     18  O   UNL     1       2.052   1.882  18.311  0.00  0.00    +0.000 OA
ATOM     19  H   UNL     1       2.937   1.487  18.211  0.00  0.00    +0.000 HD
ENDBRANCH  15  18
ENDBRANCH  13  15
ENDBRANCH   1  13
BRANCH   4  20
ATOM     20  O   UNL     1       5.956   7.558  17.845  0.00  0.00    +0.000 OA
BRANCH  20  21
ATOM     21  P   UNL     1       7.516   7.456  17.618  0.00  0.00    +0.000 P 
ATOM     22  O   UNL     1       8.000   6.829  16.354  0.00  0.00    +0.000 OA
BRANCH  21  23
ATOM     23  O   UNL     1       7.981   8.989  17.745  0.00  0.00    +0.000 OA
ATOM     24  H   UNL     1       8.735   9.104  18.349  0.00  0.00    +0.000 HD
ENDBRANCH  21  23
BRANCH  21  25
ATOM     25  O   UNL     1       8.203   6.851  18.921  0.00  0.00    +0.000 OA
ATOM     26  H   UNL     1       8.617   5.980  18.725  0.00  0.00    +0.000 HD
ENDBRANCH  21  25
ENDBRANCH  20  21
ENDBRANCH   4  20
BRANCH   5  27
ATOM     27  O   UNL     1       4.576   4.407  16.581  0.00  0.00    +0.000 OA
BRANCH  27  28
ATOM     28  P   UNL     1       5.486   3.865  15.213  0.00  0.00    +0.000 P 
ATOM     29  O   UNL     1       5.465   5.252  14.567  0.00  0.00    +0.000 OA
BRANCH  28  30
ATOM     30  O   UNL     1       6.864   3.908  16.089  0.00  0.00    +0.000 OA
ATOM     31  H   UNL     1       7.325   3.064  15.933  0.00  0.00    +0.000 HD
ENDBRANCH  28  30
BRANCH  28  32
ATOM     32  O   UNL     1       6.396   3.323  13.845  0.00  0.00    +0.000 OA
ATOM     33  H   UNL     1       7.022   4.064  13.711  0.00  0.00    +0.000 HD
ENDBRANCH  28  32
ENDBRANCH  27  28
ENDBRANCH   5  27
TORSDOF 15
ENDMDL
MODEL 9
REMARK VINA RESULT:      -5.9      1.974      4.168
REMARK  Name = 
REMARK  15 active torsions:
REMARK  status: ('A' for Active; 'I' for Inactive)
REMARK    1  A    between atoms: P_2  and  O_3
REMARK    2  A    between atoms: P_2  and  O_4
REMARK    3  A    between atoms: P_2  and  O_5
REMARK    4  A    between atoms: O_5  and  C_6
REMARK    5  A    between atoms: C_7  and  O_8
REMARK    6  A    between atoms: C_9  and  O_10
REMARK    7  A    between atoms: C_11  and  O_12
REMARK    8  A    between atoms: O_12  and  P_13
REMARK    9  A    between atoms: P_13  and  O_15
REMARK   10  A    between atoms: P_13  and  O_16
REMARK   11  A    between atoms: C_17  and  O_18
REMARK   12  A    between atoms: O_18  and  P_19
REMARK   13  A    between atoms: P_19  and  O_21
REMARK   14  A    between atoms: P_19  and  O_22
REMARK   15  A    between atoms: C_23  and  O_24
REMARK                            x       y       z     vdW  Elec       q    Type
REMARK                         _______ _______ _______ _____ _____    ______ ____
ROOT
ATOM      1  C   UNL     1       3.726   4.779  19.214  0.00  0.00    +0.000 C 
ATOM      2  C   UNL     1       3.202   6.223  19.170  0.00  0.00    +0.000 C 
ATOM      3  C   UNL     1       3.428   6.880  17.802  0.00  0.00    +0.000 C 
ATOM      4  C   UNL     1       4.869   6.752  17.260  0.00  0.00    +0.000 C 
ATOM      5  C   UNL     1       5.324   5.264  17.348  0.00  0.00    +0.000 C 
ATOM      6  C   UNL     1       5.193   4.758  18.806  0.00  0.00    +0.000 C 
ENDROOT
BRANCH   2   7
ATOM      7  O   UNL     1       1.805   6.284  19.485  0.00  0.00    +0.000 OA
ATOM      8  H   UNL     1       1.716   6.836  20.291  0.00  0.00    +0.000 HD
ENDBRANCH   2   7
BRANCH   3   9
ATOM      9  O   UNL     1       2.951   8.229  17.823  0.00  0.00    +0.000 OA
ATOM     10  H   UNL     1       2.219   8.308  18.467  0.00  0.00    +0.000 HD
ENDBRANCH   3   9
BRANCH   6  11
ATOM     11  O   UNL     1       5.720   3.431  18.934  0.00  0.00    +0.000 OA
ATOM     12  H   UNL     1       5.647   3.151  19.869  0.00  0.00    +0.000 HD
ENDBRANCH   6  11
BRANCH   1  13
ATOM     13  O   UNL     1       3.002   3.902  18.321  0.00  0.00    +0.000 OA
BRANCH  13  15
ATOM     14  O   UNL     1       1.298   1.786  20.154  0.00  0.00    +0.000 OA
ATOM     15  P   UNL     1       2.103   2.785  19.288  0.00  0.00    +0.000 P 
BRANCH  15  16
ATOM     16  O   UNL     1       2.788   1.581  18.408  0.00  0.00    +0.000 OA
ATOM     17  H   UNL     1       2.712   1.858  17.475  0.00  0.00    +0.000 HD
ENDBRANCH  15  16
BRANCH  15  18
ATOM     18  O   UNL     1       0.855   3.041  18.270  0.00  0.00    +0.000 OA
ATOM     19  H   UNL     1       0.766   2.257  17.699  0.00  0.00    +0.000 HD
ENDBRANCH  15  18
ENDBRANCH  13  15
ENDBRANCH   1  13
BRANCH   4  20
ATOM     20  O   UNL     1       5.910   7.515  17.876  0.00  0.00    +0.000 OA
BRANCH  20  21
ATOM     21  P   UNL     1       7.478   7.361  17.753  0.00  0.00    +0.000 P 
ATOM     22  O   UNL     1       8.191   6.596  18.816  0.00  0.00    +0.000 OA
BRANCH  21  23
ATOM     23  O   UNL     1       7.642   6.677  16.308  0.00  0.00    +0.000 OA
ATOM     24  H   UNL     1       7.274   5.777  16.275  0.00  0.00    +0.000 HD
ENDBRANCH  21  23
BRANCH  21  25
ATOM     25  O   UNL     1       8.129   8.783  17.460  0.00  0.00    +0.000 OA
ATOM     26  H   UNL     1       7.653   9.242  16.730  0.00  0.00    +0.000 HD
ENDBRANCH  21  25
ENDBRANCH  20  21
ENDBRANCH   4  20
BRANCH   5  27
ATOM     27  O   UNL     1       4.548   4.420  16.464  0.00  0.00    +0.000 OA
BRANCH  27  28
ATOM     28  P   UNL     1       5.513   3.883  15.131  0.00  0.00    +0.000 P 
ATOM     29  O   UNL     1       5.614   5.294  14.550  0.00  0.00    +0.000 OA
BRANCH  28  30
ATOM     30  O   UNL     1       6.831   3.804  16.093  0.00  0.00    +0.000 OA
ATOM     31  H   UNL     1       7.537   4.305  15.647  0.00  0.00    +0.000 HD
ENDBRANCH  28  30
BRANCH  28  32
ATOM     32  O   UNL     1       6.477   3.345  13.799  0.00  0.00    +0.000 OA
ATOM     33  H   UNL     1       6.566   4.164  13.269  0.00  0.00    +0.000 HD
ENDBRANCH  28  32
ENDBRANCH  27  28
ENDBRANCH   5  27
TORSDOF 15
ENDMDL
