MODEL 1
REMARK VINA RESULT:      -8.6      0.000      0.000
REMARK  Name = 
REMARK  8 active torsions:
REMARK  status: ('A' for Active; 'I' for Inactive)
REMARK    1  A    between atoms: C_2  and  C_3
REMARK    2  A    between atoms: C_2  and  C_25
REMARK    3  A    between atoms: C_3  and  C_4
REMARK    4  A    between atoms: C_4  and  C_5
REMARK    5  A    between atoms: C_5  and  S_6
REMARK    6  A    between atoms: S_6  and  C_7
REMARK    7  A    between atoms: C_10  and  C_11
REMARK    8  A    between atoms: C_17  and  C_18
REMARK                            x       y       z     vdW  Elec       q    Type
REMARK                         _______ _______ _______ _____ _____    ______ ____
ROOT
ATOM      1  C   UNL     1       5.035   6.318  17.452  0.00  0.00    +0.000 A 
ATOM      2  N   UNL     1       4.679   7.592  17.197  0.00  0.00    +0.000 NA
ATOM      3  N   UNL     1       3.561   8.108  17.768  0.00  0.00    +0.000 NA
ATOM      4  C   UNL     1       2.810   7.336  18.583  0.00  0.00    +0.000 A 
ATOM      5  C   UNL     1       3.152   5.980  18.732  0.00  0.00    +0.000 A 
ATOM      6  N   UNL     1       4.297   5.466  18.184  0.00  0.00    +0.000 NA
ENDROOT
BRANCH   4   7
ATOM      7  C   UNL     1       1.744   8.082  19.293  0.00  0.00    +0.000 A 
ATOM      8  C   UNL     1       1.455   7.813  20.645  0.00  0.00    +0.000 A 
ATOM      9  C   UNL     1       0.460   8.516  21.330  0.00  0.00    +0.000 A 
ATOM     10  C   UNL     1      -0.257   9.520  20.685  0.00  0.00    +0.000 A 
ATOM     11  C   UNL     1      -0.010   9.790  19.345  0.00  0.00    +0.000 A 
ATOM     12  C   UNL     1       0.951   9.051  18.652  0.00  0.00    +0.000 A 
ENDBRANCH   4   7
BRANCH   5  13
ATOM     13  C   UNL     1       2.359   5.010  19.532  0.00  0.00    +0.000 A 
ATOM     14  C   UNL     1       2.625   4.773  20.897  0.00  0.00    +0.000 A 
ATOM     15  C   UNL     1       2.067   3.682  21.571  0.00  0.00    +0.000 A 
ATOM     16  C   UNL     1       1.158   2.857  20.921  0.00  0.00    +0.000 A 
ATOM     17  C   UNL     1       0.782   3.144  19.611  0.00  0.00    +0.000 A 
ATOM     18  C   UNL     1       1.376   4.209  18.924  0.00  0.00    +0.000 A 
ENDBRANCH   5  13
BRANCH   1  19
ATOM     19  S   UNL     1       6.625   5.855  16.819  0.00  0.00    +0.000 S 
BRANCH  19  20
ATOM     20  C   UNL     1       7.768   6.654  17.984  0.00  0.00    +0.000 C 
BRANCH  20  21
ATOM     21  C   UNL     1       7.847   8.136  17.611  0.00  0.00    +0.000 C 
BRANCH  21  22
ATOM     22  C   UNL     1       8.659   8.948  18.623  0.00  0.00    +0.000 C 
BRANCH  22  24
ATOM     23  O   UNL     1       8.036  10.944  17.412  0.00  0.00    +0.000 OA
ATOM     24  C   UNL     1       8.837  10.387  18.158  0.00  0.00    +0.000 C 
BRANCH  24  25
ATOM     25  C   UNL     1      10.051  11.137  18.593  0.00  0.00    +0.000 A 
ATOM     26  C   UNL     1      10.393  11.282  19.941  0.00  0.00    +0.000 A 
ATOM     27  C   UNL     1      11.528  12.014  20.297  0.00  0.00    +0.000 A 
ATOM     28  C   UNL     1      12.332  12.593  19.309  0.00  0.00    +0.000 A 
ATOM     29  C   UNL     1      11.991  12.447  17.965  0.00  0.00    +0.000 A 
ATOM     30  C   UNL     1      10.853  11.729  17.610  0.00  0.00    +0.000 A 
ENDBRANCH  24  25
ENDBRANCH  22  24
ENDBRANCH  21  22
ENDBRANCH  20  21
ENDBRANCH  19  20
ENDBRANCH   1  19
TORSDOF 8
ENDMDL
MODEL 2
REMARK VINA RESULT:      -8.5      1.299      3.880
REMARK  Name = 
REMARK  8 active torsions:
REMARK  status: ('A' for Active; 'I' for Inactive)
REMARK    1  A    between atoms: C_2  and  C_3
REMARK    2  A    between atoms: C_2  and  C_25
REMARK    3  A    between atoms: C_3  and  C_4
REMARK    4  A    between atoms: C_4  and  C_5
REMARK    5  A    between atoms: C_5  and  S_6
REMARK    6  A    between atoms: S_6  and  C_7
REMARK    7  A    between atoms: C_10  and  C_11
REMARK    8  A    between atoms: C_17  and  C_18
REMARK                            x       y       z     vdW  Elec       q    Type
REMARK                         _______ _______ _______ _____ _____    ______ ____
ROOT
ATOM      1  C   UNL     1       6.219   5.850  18.278  0.00  0.00    +0.000 A 
ATOM      2  N   UNL     1       6.197   4.558  18.661  0.00  0.00    +0.000 NA
ATOM      3  N   UNL     1       5.035   4.000  19.085  0.00  0.00    +0.000 NA
ATOM      4  C   UNL     1       3.910   4.747  19.126  0.00  0.00    +0.000 A 
ATOM      5  C   UNL     1       4.000   6.118  18.827  0.00  0.00    +0.000 A 
ATOM      6  N   UNL     1       5.163   6.676  18.367  0.00  0.00    +0.000 NA
ENDROOT
BRANCH   4   7
ATOM      7  C   UNL     1       2.686   3.963  19.409  0.00  0.00    +0.000 A 
ATOM      8  C   UNL     1       1.963   3.354  18.364  0.00  0.00    +0.000 A 
ATOM      9  C   UNL     1       0.812   2.602  18.617  0.00  0.00    +0.000 A 
ATOM     10  C   UNL     1       0.366   2.424  19.924  0.00  0.00    +0.000 A 
ATOM     11  C   UNL     1       1.045   3.033  20.972  0.00  0.00    +0.000 A 
ATOM     12  C   UNL     1       2.166   3.824  20.709  0.00  0.00    +0.000 A 
ENDBRANCH   4   7
BRANCH   5  13
ATOM     13  C   UNL     1       2.854   7.061  18.916  0.00  0.00    +0.000 A 
ATOM     14  C   UNL     1       2.467   7.871  17.828  0.00  0.00    +0.000 A 
ATOM     15  C   UNL     1       1.576   8.937  17.992  0.00  0.00    +0.000 A 
ATOM     16  C   UNL     1       0.981   9.159  19.228  0.00  0.00    +0.000 A 
ATOM     17  C   UNL     1       1.251   8.296  20.287  0.00  0.00    +0.000 A 
ATOM     18  C   UNL     1       2.177   7.259  20.133  0.00  0.00    +0.000 A 
ENDBRANCH   5  13
BRANCH   1  19
ATOM     19  S   UNL     1       7.745   6.375  17.544  0.00  0.00    +0.000 S 
BRANCH  19  20
ATOM     20  C   UNL     1       7.550   8.181  17.466  0.00  0.00    +0.000 C 
BRANCH  20  21
ATOM     21  C   UNL     1       8.569   8.797  18.428  0.00  0.00    +0.000 C 
BRANCH  21  22
ATOM     22  C   UNL     1       8.932  10.235  18.048  0.00  0.00    +0.000 C 
BRANCH  22  24
ATOM     23  O   UNL     1       9.524  10.605  20.361  0.00  0.00    +0.000 OA
ATOM     24  C   UNL     1       9.657  10.939  19.186  0.00  0.00    +0.000 C 
BRANCH  24  25
ATOM     25  C   UNL     1      10.533  12.104  18.869  0.00  0.00    +0.000 A 
ATOM     26  C   UNL     1      11.491  12.580  19.767  0.00  0.00    +0.000 A 
ATOM     27  C   UNL     1      12.271  13.690  19.431  0.00  0.00    +0.000 A 
ATOM     28  C   UNL     1      12.105  14.319  18.193  0.00  0.00    +0.000 A 
ATOM     29  C   UNL     1      11.150  13.843  17.296  0.00  0.00    +0.000 A 
ATOM     30  C   UNL     1      10.363  12.745  17.636  0.00  0.00    +0.000 A 
ENDBRANCH  24  25
ENDBRANCH  22  24
ENDBRANCH  21  22
ENDBRANCH  20  21
ENDBRANCH  19  20
ENDBRANCH   1  19
TORSDOF 8
ENDMDL
MODEL 3
REMARK VINA RESULT:      -8.4      1.847      4.056
REMARK  Name = 
REMARK  8 active torsions:
REMARK  status: ('A' for Active; 'I' for Inactive)
REMARK    1  A    between atoms: C_2  and  C_3
REMARK    2  A    between atoms: C_2  and  C_25
REMARK    3  A    between atoms: C_3  and  C_4
REMARK    4  A    between atoms: C_4  and  C_5
REMARK    5  A    between atoms: C_5  and  S_6
REMARK    6  A    between atoms: S_6  and  C_7
REMARK    7  A    between atoms: C_10  and  C_11
REMARK    8  A    between atoms: C_17  and  C_18
REMARK                            x       y       z     vdW  Elec       q    Type
REMARK                         _______ _______ _______ _____ _____    ______ ____
ROOT
ATOM      1  C   UNL     1       5.964   6.300  17.829  0.00  0.00    +0.000 A 
ATOM      2  N   UNL     1       6.022   5.001  18.183  0.00  0.00    +0.000 NA
ATOM      3  N   UNL     1       4.922   4.392  18.696  0.00  0.00    +0.000 NA
ATOM      4  C   UNL     1       3.780   5.097  18.855  0.00  0.00    +0.000 A 
ATOM      5  C   UNL     1       3.796   6.476  18.581  0.00  0.00    +0.000 A 
ATOM      6  N   UNL     1       4.893   7.085  18.032  0.00  0.00    +0.000 NA
ENDROOT
BRANCH   4   7
ATOM      7  C   UNL     1       2.614   4.263  19.228  0.00  0.00    +0.000 A 
ATOM      8  C   UNL     1       2.287   4.047  20.581  0.00  0.00    +0.000 A 
ATOM      9  C   UNL     1       1.184   3.271  20.948  0.00  0.00    +0.000 A 
ATOM     10  C   UNL     1       0.368   2.708  19.970  0.00  0.00    +0.000 A 
ATOM     11  C   UNL     1       0.681   2.884  18.629  0.00  0.00    +0.000 A 
ATOM     12  C   UNL     1       1.812   3.619  18.268  0.00  0.00    +0.000 A 
ENDBRANCH   4   7
BRANCH   5  13
ATOM     13  C   UNL     1       2.631   7.375  18.795  0.00  0.00    +0.000 A 
ATOM     14  C   UNL     1       2.111   8.182  17.762  0.00  0.00    +0.000 A 
ATOM     15  C   UNL     1       1.203   9.212  18.027  0.00  0.00    +0.000 A 
ATOM     16  C   UNL     1       0.723   9.397  19.318  0.00  0.00    +0.000 A 
ATOM     17  C   UNL     1       1.125   8.533  20.333  0.00  0.00    +0.000 A 
ATOM     18  C   UNL     1       2.069   7.533  20.074  0.00  0.00    +0.000 A 
ENDBRANCH   5  13
BRANCH   1  19
ATOM     19  S   UNL     1       7.398   6.895  16.974  0.00  0.00    +0.000 S 
BRANCH  19  20
ATOM     20  C   UNL     1       8.310   7.768  18.282  0.00  0.00    +0.000 C 
BRANCH  20  21
ATOM     21  C   UNL     1       8.286   9.261  17.944  0.00  0.00    +0.000 C 
BRANCH  21  22
ATOM     22  C   UNL     1       9.165  10.085  18.888  0.00  0.00    +0.000 C 
BRANCH  22  24
ATOM     23  O   UNL     1      10.682  11.420  17.564  0.00  0.00    +0.000 OA
ATOM     24  C   UNL     1       9.643  11.365  18.218  0.00  0.00    +0.000 C 
BRANCH  24  25
ATOM     25  C   UNL     1       8.843  12.611  18.394  0.00  0.00    +0.000 A 
ATOM     26  C   UNL     1       8.990  13.438  19.511  0.00  0.00    +0.000 A 
ATOM     27  C   UNL     1       8.199  14.583  19.640  0.00  0.00    +0.000 A 
ATOM     28  C   UNL     1       7.269  14.912  18.649  0.00  0.00    +0.000 A 
ATOM     29  C   UNL     1       7.123  14.088  17.534  0.00  0.00    +0.000 A 
ATOM     30  C   UNL     1       7.901  12.940  17.412  0.00  0.00    +0.000 A 
ENDBRANCH  24  25
ENDBRANCH  22  24
ENDBRANCH  21  22
ENDBRANCH  20  21
ENDBRANCH  19  20
ENDBRANCH   1  19
TORSDOF 8
ENDMDL
MODEL 4
REMARK VINA RESULT:      -8.3      1.896      4.179
REMARK  Name = 
REMARK  8 active torsions:
REMARK  status: ('A' for Active; 'I' for Inactive)
REMARK    1  A    between atoms: C_2  and  C_3
REMARK    2  A    between atoms: C_2  and  C_25
REMARK    3  A    between atoms: C_3  and  C_4
REMARK    4  A    between atoms: C_4  and  C_5
REMARK    5  A    between atoms: C_5  and  S_6
REMARK    6  A    between atoms: S_6  and  C_7
REMARK    7  A    between atoms: C_10  and  C_11
REMARK    8  A    between atoms: C_17  and  C_18
REMARK                            x       y       z     vdW  Elec       q    Type
REMARK                         _______ _______ _______ _____ _____    ______ ____
ROOT
ATOM      1  C   UNL     1       6.000   6.372  17.887  0.00  0.00    +0.000 A 
ATOM      2  N   UNL     1       6.057   5.080  18.266  0.00  0.00    +0.000 NA
ATOM      3  N   UNL     1       4.950   4.476  18.769  0.00  0.00    +0.000 NA
ATOM      4  C   UNL     1       3.803   5.178  18.893  0.00  0.00    +0.000 A 
ATOM      5  C   UNL     1       3.818   6.551  18.595  0.00  0.00    +0.000 A 
ATOM      6  N   UNL     1       4.922   7.156  18.056  0.00  0.00    +0.000 NA
ENDROOT
BRANCH   4   7
ATOM      7  C   UNL     1       2.634   4.345  19.260  0.00  0.00    +0.000 A 
ATOM      8  C   UNL     1       1.833   3.750  18.265  0.00  0.00    +0.000 A 
ATOM      9  C   UNL     1       0.734   2.952  18.596  0.00  0.00    +0.000 A 
ATOM     10  C   UNL     1       0.419   2.715  19.931  0.00  0.00    +0.000 A 
ATOM     11  C   UNL     1       1.176   3.309  20.933  0.00  0.00    +0.000 A 
ATOM     12  C   UNL     1       2.244   4.144  20.597  0.00  0.00    +0.000 A 
ENDBRANCH   4   7
BRANCH   5  13
ATOM     13  C   UNL     1       2.645   7.448  18.770  0.00  0.00    +0.000 A 
ATOM     14  C   UNL     1       2.147   8.242  17.716  0.00  0.00    +0.000 A 
ATOM     15  C   UNL     1       1.229   9.272  17.947  0.00  0.00    +0.000 A 
ATOM     16  C   UNL     1       0.717   9.470  19.223  0.00  0.00    +0.000 A 
ATOM     17  C   UNL     1       1.097   8.618  20.258  0.00  0.00    +0.000 A 
ATOM     18  C   UNL     1       2.051   7.619  20.033  0.00  0.00    +0.000 A 
ENDBRANCH   5  13
BRANCH   1  19
ATOM     19  S   UNL     1       7.448   6.959  17.048  0.00  0.00    +0.000 S 
BRANCH  19  20
ATOM     20  C   UNL     1       8.291   7.926  18.335  0.00  0.00    +0.000 C 
BRANCH  20  21
ATOM     21  C   UNL     1       8.298   9.389  17.883  0.00  0.00    +0.000 C 
BRANCH  21  22
ATOM     22  C   UNL     1       9.090  10.288  18.836  0.00  0.00    +0.000 C 
BRANCH  22  24
ATOM     23  O   UNL     1      10.745  11.431  17.497  0.00  0.00    +0.000 OA
ATOM     24  C   UNL     1       9.677  11.486  18.102  0.00  0.00    +0.000 C 
BRANCH  24  25
ATOM     25  C   UNL     1       8.950  12.787  18.153  0.00  0.00    +0.000 A 
ATOM     26  C   UNL     1       7.722  12.978  17.512  0.00  0.00    +0.000 A 
ATOM     27  C   UNL     1       7.092  14.223  17.571  0.00  0.00    +0.000 A 
ATOM     28  C   UNL     1       7.679  15.278  18.278  0.00  0.00    +0.000 A 
ATOM     29  C   UNL     1       8.903  15.087  18.917  0.00  0.00    +0.000 A 
ATOM     30  C   UNL     1       9.538  13.850  18.849  0.00  0.00    +0.000 A 
ENDBRANCH  24  25
ENDBRANCH  22  24
ENDBRANCH  21  22
ENDBRANCH  20  21
ENDBRANCH  19  20
ENDBRANCH   1  19
TORSDOF 8
ENDMDL
MODEL 5
REMARK VINA RESULT:      -8.3      0.955      1.650
REMARK  Name = 
REMARK  8 active torsions:
REMARK  status: ('A' for Active; 'I' for Inactive)
REMARK    1  A    between atoms: C_2  and  C_3
REMARK    2  A    between atoms: C_2  and  C_25
REMARK    3  A    between atoms: C_3  and  C_4
REMARK    4  A    between atoms: C_4  and  C_5
REMARK    5  A    between atoms: C_5  and  S_6
REMARK    6  A    between atoms: S_6  and  C_7
REMARK    7  A    between atoms: C_10  and  C_11
REMARK    8  A    between atoms: C_17  and  C_18
REMARK                            x       y       z     vdW  Elec       q    Type
REMARK                         _______ _______ _______ _____ _____    ______ ____
ROOT
ATOM      1  C   UNL     1       4.965   5.621  17.072  0.00  0.00    +0.000 A 
ATOM      2  N   UNL     1       4.721   6.908  16.756  0.00  0.00    +0.000 NA
ATOM      3  N   UNL     1       3.722   7.578  17.384  0.00  0.00    +0.000 NA
ATOM      4  C   UNL     1       2.975   6.947  18.315  0.00  0.00    +0.000 A 
ATOM      5  C   UNL     1       3.187   5.574  18.532  0.00  0.00    +0.000 A 
ATOM      6  N   UNL     1       4.215   4.904  17.926  0.00  0.00    +0.000 NA
ENDROOT
BRANCH   4   7
ATOM      7  C   UNL     1       2.064   7.849  19.058  0.00  0.00    +0.000 A 
ATOM      8  C   UNL     1       1.433   8.929  18.409  0.00  0.00    +0.000 A 
ATOM      9  C   UNL     1       0.563   9.782  19.094  0.00  0.00    +0.000 A 
ATOM     10  C   UNL     1       0.288   9.565  20.442  0.00  0.00    +0.000 A 
ATOM     11  C   UNL     1       0.915   8.524  21.113  0.00  0.00    +0.000 A 
ATOM     12  C   UNL     1       1.821   7.704  20.436  0.00  0.00    +0.000 A 
ENDBRANCH   4   7
BRANCH   5  13
ATOM     13  C   UNL     1       2.376   4.750  19.468  0.00  0.00    +0.000 A 
ATOM     14  C   UNL     1       2.722   4.604  20.827  0.00  0.00    +0.000 A 
ATOM     15  C   UNL     1       2.126   3.628  21.632  0.00  0.00    +0.000 A 
ATOM     16  C   UNL     1       1.104   2.838  21.121  0.00  0.00    +0.000 A 
ATOM     17  C   UNL     1       0.657   3.048  19.818  0.00  0.00    +0.000 A 
ATOM     18  C   UNL     1       1.286   3.993  19.001  0.00  0.00    +0.000 A 
ENDBRANCH   5  13
BRANCH   1  19
ATOM     19  S   UNL     1       6.432   4.946  16.339  0.00  0.00    +0.000 S 
BRANCH  19  20
ATOM     20  C   UNL     1       7.686   6.205  16.721  0.00  0.00    +0.000 C 
BRANCH  20  21
ATOM     21  C   UNL     1       7.497   6.615  18.183  0.00  0.00    +0.000 C 
BRANCH  21  22
ATOM     22  C   UNL     1       8.507   7.679  18.623  0.00  0.00    +0.000 C 
BRANCH  22  24
ATOM     23  O   UNL     1       7.293   9.201  17.191  0.00  0.00    +0.000 OA
ATOM     24  C   UNL     1       8.140   9.048  18.068  0.00  0.00    +0.000 C 
BRANCH  24  25
ATOM     25  C   UNL     1       8.864  10.248  18.579  0.00  0.00    +0.000 A 
ATOM     26  C   UNL     1       9.052  11.392  17.798  0.00  0.00    +0.000 A 
ATOM     27  C   UNL     1       9.757  12.481  18.316  0.00  0.00    +0.000 A 
ATOM     28  C   UNL     1      10.266  12.436  19.618  0.00  0.00    +0.000 A 
ATOM     29  C   UNL     1      10.078  11.296  20.397  0.00  0.00    +0.000 A 
ATOM     30  C   UNL     1       9.387  10.205  19.877  0.00  0.00    +0.000 A 
ENDBRANCH  24  25
ENDBRANCH  22  24
ENDBRANCH  21  22
ENDBRANCH  20  21
ENDBRANCH  19  20
ENDBRANCH   1  19
TORSDOF 8
ENDMDL
MODEL 6
REMARK VINA RESULT:      -8.2      3.313      7.883
REMARK  Name = 
REMARK  8 active torsions:
REMARK  status: ('A' for Active; 'I' for Inactive)
REMARK    1  A    between atoms: C_2  and  C_3
REMARK    2  A    between atoms: C_2  and  C_25
REMARK    3  A    between atoms: C_3  and  C_4
REMARK    4  A    between atoms: C_4  and  C_5
REMARK    5  A    between atoms: C_5  and  S_6
REMARK    6  A    between atoms: S_6  and  C_7
REMARK    7  A    between atoms: C_10  and  C_11
REMARK    8  A    between atoms: C_17  and  C_18
REMARK                            x       y       z     vdW  Elec       q    Type
REMARK                         _______ _______ _______ _____ _____    ______ ____
ROOT
ATOM      1  C   UNL     1       3.982   2.900  18.418  0.00  0.00    +0.000 A 
ATOM      2  N   UNL     1       4.480   3.526  19.502  0.00  0.00    +0.000 NA
ATOM      3  N   UNL     1       5.391   4.521  19.346  0.00  0.00    +0.000 NA
ATOM      4  C   UNL     1       5.795   4.871  18.106  0.00  0.00    +0.000 A 
ATOM      5  C   UNL     1       5.337   4.117  17.011  0.00  0.00    +0.000 A 
ATOM      6  N   UNL     1       4.394   3.135  17.160  0.00  0.00    +0.000 NA
ENDROOT
BRANCH   4   7
ATOM      7  C   UNL     1       6.626   6.096  18.075  0.00  0.00    +0.000 A 
ATOM      8  C   UNL     1       6.263   7.192  17.268  0.00  0.00    +0.000 A 
ATOM      9  C   UNL     1       7.032   8.360  17.238  0.00  0.00    +0.000 A 
ATOM     10  C   UNL     1       8.173   8.466  18.027  0.00  0.00    +0.000 A 
ATOM     11  C   UNL     1       8.569   7.392  18.814  0.00  0.00    +0.000 A 
ATOM     12  C   UNL     1       7.825   6.210  18.804  0.00  0.00    +0.000 A 
ENDBRANCH   4   7
BRANCH   5  13
ATOM     13  C   UNL     1       5.773   4.348  15.608  0.00  0.00    +0.000 A 
ATOM     14  C   UNL     1       4.951   4.026  14.508  0.00  0.00    +0.000 A 
ATOM     15  C   UNL     1       5.456   3.990  13.204  0.00  0.00    +0.000 A 
ATOM     16  C   UNL     1       6.771   4.367  12.960  0.00  0.00    +0.000 A 
ATOM     17  C   UNL     1       7.568   4.810  14.014  0.00  0.00    +0.000 A 
ATOM     18  C   UNL     1       7.073   4.800  15.323  0.00  0.00    +0.000 A 
ENDBRANCH   5  13
BRANCH   1  19
ATOM     19  S   UNL     1       2.647   1.783  18.759  0.00  0.00    +0.000 S 
BRANCH  19  20
ATOM     20  C   UNL     1       2.399   1.992  20.547  0.00  0.00    +0.000 C 
BRANCH  20  21
ATOM     21  C   UNL     1       1.093   2.765  20.745  0.00  0.00    +0.000 C 
BRANCH  21  22
ATOM     22  C   UNL     1       1.015   4.010  19.858  0.00  0.00    +0.000 C 
BRANCH  22  24
ATOM     23  O   UNL     1       2.328   5.103  21.567  0.00  0.00    +0.000 OA
ATOM     24  C   UNL     1       1.819   5.159  20.449  0.00  0.00    +0.000 C 
BRANCH  24  25
ATOM     25  C   UNL     1       1.962   6.417  19.660  0.00  0.00    +0.000 A 
ATOM     26  C   UNL     1       2.508   6.429  18.373  0.00  0.00    +0.000 A 
ATOM     27  C   UNL     1       2.641   7.638  17.685  0.00  0.00    +0.000 A 
ATOM     28  C   UNL     1       2.220   8.835  18.274  0.00  0.00    +0.000 A 
ATOM     29  C   UNL     1       1.676   8.822  19.557  0.00  0.00    +0.000 A 
ATOM     30  C   UNL     1       1.554   7.620  20.249  0.00  0.00    +0.000 A 
ENDBRANCH  24  25
ENDBRANCH  22  24
ENDBRANCH  21  22
ENDBRANCH  20  21
ENDBRANCH  19  20
ENDBRANCH   1  19
TORSDOF 8
ENDMDL
MODEL 7
REMARK VINA RESULT:      -8.2      0.539      1.030
REMARK  Name = 
REMARK  8 active torsions:
REMARK  status: ('A' for Active; 'I' for Inactive)
REMARK    1  A    between atoms: C_2  and  C_3
REMARK    2  A    between atoms: C_2  and  C_25
REMARK    3  A    between atoms: C_3  and  C_4
REMARK    4  A    between atoms: C_4  and  C_5
REMARK    5  A    between atoms: C_5  and  S_6
REMARK    6  A    between atoms: S_6  and  C_7
REMARK    7  A    between atoms: C_10  and  C_11
REMARK    8  A    between atoms: C_17  and  C_18
REMARK                            x       y       z     vdW  Elec       q    Type
REMARK                         _______ _______ _______ _____ _____    ______ ____
ROOT
ATOM      1  C   UNL     1       5.045   6.237  17.545  0.00  0.00    +0.000 A 
ATOM      2  N   UNL     1       4.695   7.511  17.283  0.00  0.00    +0.000 NA
ATOM      3  N   UNL     1       3.584   8.037  17.859  0.00  0.00    +0.000 NA
ATOM      4  C   UNL     1       2.834   7.276  18.685  0.00  0.00    +0.000 A 
ATOM      5  C   UNL     1       3.169   5.919  18.841  0.00  0.00    +0.000 A 
ATOM      6  N   UNL     1       4.307   5.394  18.289  0.00  0.00    +0.000 NA
ENDROOT
BRANCH   4   7
ATOM      7  C   UNL     1       1.778   8.033  19.396  0.00  0.00    +0.000 A 
ATOM      8  C   UNL     1       1.056   9.050  18.741  0.00  0.00    +0.000 A 
ATOM      9  C   UNL     1       0.049   9.766  19.396  0.00  0.00    +0.000 A 
ATOM     10  C   UNL     1      -0.273   9.469  20.718  0.00  0.00    +0.000 A 
ATOM     11  C   UNL     1       0.439   8.488  21.396  0.00  0.00    +0.000 A 
ATOM     12  C   UNL     1       1.476   7.810  20.753  0.00  0.00    +0.000 A 
ENDBRANCH   4   7
BRANCH   5  13
ATOM     13  C   UNL     1       2.376   4.959  19.654  0.00  0.00    +0.000 A 
ATOM     14  C   UNL     1       2.676   4.701  21.007  0.00  0.00    +0.000 A 
ATOM     15  C   UNL     1       2.111   3.616  21.686  0.00  0.00    +0.000 A 
ATOM     16  C   UNL     1       1.163   2.821  21.054  0.00  0.00    +0.000 A 
ATOM     17  C   UNL     1       0.756   3.132  19.759  0.00  0.00    +0.000 A 
ATOM     18  C   UNL     1       1.356   4.189  19.067  0.00  0.00    +0.000 A 
ENDBRANCH   5  13
BRANCH   1  19
ATOM     19  S   UNL     1       6.627   5.759  16.904  0.00  0.00    +0.000 S 
BRANCH  19  20
ATOM     20  C   UNL     1       7.783   6.617  18.014  0.00  0.00    +0.000 C 
BRANCH  20  21
ATOM     21  C   UNL     1       7.891   8.067  17.536  0.00  0.00    +0.000 C 
BRANCH  21  22
ATOM     22  C   UNL     1       8.597   8.964  18.557  0.00  0.00    +0.000 C 
BRANCH  22  24
ATOM     23  O   UNL     1       7.812  10.841  17.253  0.00  0.00    +0.000 OA
ATOM     24  C   UNL     1       8.582  10.420  18.113  0.00  0.00    +0.000 C 
BRANCH  24  25
ATOM     25  C   UNL     1       9.566  11.365  18.717  0.00  0.00    +0.000 A 
ATOM     26  C   UNL     1      10.339  11.023  19.830  0.00  0.00    +0.000 A 
ATOM     27  C   UNL     1      11.230  11.953  20.371  0.00  0.00    +0.000 A 
ATOM     28  C   UNL     1      11.360  13.222  19.797  0.00  0.00    +0.000 A 
ATOM     29  C   UNL     1      10.589  13.562  18.687  0.00  0.00    +0.000 A 
ATOM     30  C   UNL     1       9.692  12.641  18.154  0.00  0.00    +0.000 A 
ENDBRANCH  24  25
ENDBRANCH  22  24
ENDBRANCH  21  22
ENDBRANCH  20  21
ENDBRANCH  19  20
ENDBRANCH   1  19
TORSDOF 8
ENDMDL
MODEL 8
REMARK VINA RESULT:      -8.1      4.440      6.418
REMARK  Name = 
REMARK  8 active torsions:
REMARK  status: ('A' for Active; 'I' for Inactive)
REMARK    1  A    between atoms: C_2  and  C_3
REMARK    2  A    between atoms: C_2  and  C_25
REMARK    3  A    between atoms: C_3  and  C_4
REMARK    4  A    between atoms: C_4  and  C_5
REMARK    5  A    between atoms: C_5  and  S_6
REMARK    6  A    between atoms: S_6  and  C_7
REMARK    7  A    between atoms: C_10  and  C_11
REMARK    8  A    between atoms: C_17  and  C_18
REMARK                            x       y       z     vdW  Elec       q    Type
REMARK                         _______ _______ _______ _____ _____    ______ ____
ROOT
ATOM      1  C   UNL     1       5.583   5.515  17.574  0.00  0.00    +0.000 A 
ATOM      2  N   UNL     1       5.410   6.781  17.145  0.00  0.00    +0.000 NA
ATOM      3  N   UNL     1       4.305   7.475  17.520  0.00  0.00    +0.000 NA
ATOM      4  C   UNL     1       3.384   6.887  18.316  0.00  0.00    +0.000 A 
ATOM      5  C   UNL     1       3.547   5.531  18.646  0.00  0.00    +0.000 A 
ATOM      6  N   UNL     1       4.675   4.838  18.298  0.00  0.00    +0.000 NA
ENDROOT
BRANCH   4   7
ATOM      7  C   UNL     1       2.344   7.820  18.809  0.00  0.00    +0.000 A 
ATOM      8  C   UNL     1       1.947   7.806  20.160  0.00  0.00    +0.000 A 
ATOM      9  C   UNL     1       0.975   8.687  20.643  0.00  0.00    +0.000 A 
ATOM     10  C   UNL     1       0.389   9.617  19.788  0.00  0.00    +0.000 A 
ATOM     11  C   UNL     1       0.743   9.637  18.445  0.00  0.00    +0.000 A 
ATOM     12  C   UNL     1       1.679   8.722  17.958  0.00  0.00    +0.000 A 
ENDBRANCH   4   7
BRANCH   5  13
ATOM     13  C   UNL     1       2.563   4.750  19.443  0.00  0.00    +0.000 A 
ATOM     14  C   UNL     1       2.713   4.555  20.832  0.00  0.00    +0.000 A 
ATOM     15  C   UNL     1       1.948   3.610  21.523  0.00  0.00    +0.000 A 
ATOM     16  C   UNL     1       0.951   2.906  20.860  0.00  0.00    +0.000 A 
ATOM     17  C   UNL     1       0.698   3.171  19.516  0.00  0.00    +0.000 A 
ATOM     18  C   UNL     1       1.496   4.083  18.816  0.00  0.00    +0.000 A 
ENDBRANCH   5  13
BRANCH   1  19
ATOM     19  S   UNL     1       7.166   4.816  17.190  0.00  0.00    +0.000 S 
BRANCH  19  20
ATOM     20  C   UNL     1       6.766   3.608  15.893  0.00  0.00    +0.000 C 
BRANCH  20  21
ATOM     21  C   UNL     1       5.719   4.245  14.976  0.00  0.00    +0.000 C 
BRANCH  21  22
ATOM     22  C   UNL     1       6.289   5.413  14.166  0.00  0.00    +0.000 C 
BRANCH  22  24
ATOM     23  O   UNL     1       8.104   5.506  12.573  0.00  0.00    +0.000 OA
ATOM     24  C   UNL     1       7.107   4.915  12.983  0.00  0.00    +0.000 C 
BRANCH  24  25
ATOM     25  C   UNL     1       6.659   3.686  12.266  0.00  0.00    +0.000 A 
ATOM     26  C   UNL     1       7.562   2.723  11.808  0.00  0.00    +0.000 A 
ATOM     27  C   UNL     1       7.094   1.599  11.122  0.00  0.00    +0.000 A 
ATOM     28  C   UNL     1       5.723   1.428  10.903  0.00  0.00    +0.000 A 
ATOM     29  C   UNL     1       4.823   2.389  11.361  0.00  0.00    +0.000 A 
ATOM     30  C   UNL     1       5.290   3.515  12.033  0.00  0.00    +0.000 A 
ENDBRANCH  24  25
ENDBRANCH  22  24
ENDBRANCH  21  22
ENDBRANCH  20  21
ENDBRANCH  19  20
ENDBRANCH   1  19
TORSDOF 8
ENDMDL
MODEL 9
REMARK VINA RESULT:      -8.1      1.124      3.761
REMARK  Name = 
REMARK  8 active torsions:
REMARK  status: ('A' for Active; 'I' for Inactive)
REMARK    1  A    between atoms: C_2  and  C_3
REMARK    2  A    between atoms: C_2  and  C_25
REMARK    3  A    between atoms: C_3  and  C_4
REMARK    4  A    between atoms: C_4  and  C_5
REMARK    5  A    between atoms: C_5  and  S_6
REMARK    6  A    between atoms: S_6  and  C_7
REMARK    7  A    between atoms: C_10  and  C_11
REMARK    8  A    between atoms: C_17  and  C_18
REMARK                            x       y       z     vdW  Elec       q    Type
REMARK                         _______ _______ _______ _____ _____    ______ ____
ROOT
ATOM      1  C   UNL     1       5.814   6.257  17.650  0.00  0.00    +0.000 A 
ATOM      2  N   UNL     1       5.879   4.958  18.003  0.00  0.00    +0.000 NA
ATOM      3  N   UNL     1       4.801   4.358  18.570  0.00  0.00    +0.000 NA
ATOM      4  C   UNL     1       3.674   5.071  18.782  0.00  0.00    +0.000 A 
ATOM      5  C   UNL     1       3.686   6.449  18.506  0.00  0.00    +0.000 A 
ATOM      6  N   UNL     1       4.758   7.050  17.903  0.00  0.00    +0.000 NA
ENDROOT
BRANCH   4   7
ATOM      7  C   UNL     1       2.522   4.245  19.213  0.00  0.00    +0.000 A 
ATOM      8  C   UNL     1       2.275   4.010  20.580  0.00  0.00    +0.000 A 
ATOM      9  C   UNL     1       1.186   3.243  21.002  0.00  0.00    +0.000 A 
ATOM     10  C   UNL     1       0.305   2.706  20.067  0.00  0.00    +0.000 A 
ATOM     11  C   UNL     1       0.536   2.901  18.712  0.00  0.00    +0.000 A 
ATOM     12  C   UNL     1       1.653   3.628  18.294  0.00  0.00    +0.000 A 
ENDBRANCH   4   7
BRANCH   5  13
ATOM     13  C   UNL     1       2.538   7.356  18.774  0.00  0.00    +0.000 A 
ATOM     14  C   UNL     1       1.990   8.183  17.772  0.00  0.00    +0.000 A 
ATOM     15  C   UNL     1       1.102   9.218  18.084  0.00  0.00    +0.000 A 
ATOM     16  C   UNL     1       0.671   9.390  19.394  0.00  0.00    +0.000 A 
ATOM     17  C   UNL     1       1.101   8.507  20.382  0.00  0.00    +0.000 A 
ATOM     18  C   UNL     1       2.024   7.501  20.075  0.00  0.00    +0.000 A 
ENDBRANCH   5  13
BRANCH   1  19
ATOM     19  S   UNL     1       7.208   6.842  16.725  0.00  0.00    +0.000 S 
BRANCH  19  20
ATOM     20  C   UNL     1       8.236   7.625  18.003  0.00  0.00    +0.000 C 
BRANCH  20  21
ATOM     21  C   UNL     1       7.837   9.101  18.075  0.00  0.00    +0.000 C 
BRANCH  21  22
ATOM     22  C   UNL     1       9.001  10.035  17.731  0.00  0.00    +0.000 C 
BRANCH  22  24
ATOM     23  O   UNL     1       9.187  10.424  20.109  0.00  0.00    +0.000 OA
ATOM     24  C   UNL     1       9.515  10.753  18.971  0.00  0.00    +0.000 C 
BRANCH  24  25
ATOM     25  C   UNL     1      10.421  11.925  18.799  0.00  0.00    +0.000 A 
ATOM     26  C   UNL     1      10.281  12.824  17.738  0.00  0.00    +0.000 A 
ATOM     27  C   UNL     1      11.170  13.893  17.608  0.00  0.00    +0.000 A 
ATOM     28  C   UNL     1      12.194  14.076  18.544  0.00  0.00    +0.000 A 
ATOM     29  C   UNL     1      12.333  13.180  19.603  0.00  0.00    +0.000 A 
ATOM     30  C   UNL     1      11.456  12.106  19.725  0.00  0.00    +0.000 A 
ENDBRANCH  24  25
ENDBRANCH  22  24
ENDBRANCH  21  22
ENDBRANCH  20  21
ENDBRANCH  19  20
ENDBRANCH   1  19
TORSDOF 8
ENDMDL
