MODEL 1
REMARK VINA RESULT:      -7.6      0.000      0.000
REMARK  Name = 
REMARK  8 active torsions:
REMARK  status: ('A' for Active; 'I' for Inactive)
REMARK    1  A    between atoms: C_1  and  C_2
REMARK    2  A    between atoms: C_2  and  C_3
REMARK    3  A    between atoms: N_7  and  C_8
REMARK    4  A    between atoms: C_8  and  C_9
REMARK    5  A    between atoms: C_12  and  C_13
REMARK    6  A    between atoms: C_13  and  C_14
REMARK    7  A    between atoms: C_13  and  C_15
REMARK    8  A    between atoms: C_13  and  C_16
REMARK                            x       y       z     vdW  Elec       q    Type
REMARK                         _______ _______ _______ _____ _____    ______ ____
ROOT
ATOM      1  C   UNL     1       3.685   5.846  17.644  0.00  0.00    +0.000 C 
ENDROOT
BRANCH   1   6
ATOM      2  C   UNL     1       2.345   2.408  18.369  0.00  0.00    +0.000 C 
ATOM      3  N   UNL     1       3.733   2.400  18.747  0.00  0.00    +0.000 N 
ATOM      4  C   UNL     1       4.247   3.679  18.784  0.00  0.00    +0.000 C 
ATOM      5  O   UNL     1       5.252   3.952  19.398  0.00  0.00    +0.000 OA
ATOM      6  N   UNL     1       3.404   4.496  18.086  0.00  0.00    +0.000 N 
ATOM      7  C   UNL     1       2.228   3.843  17.856  0.00  0.00    +0.000 C 
ATOM      8  O   UNL     1       1.227   4.327  17.319  0.00  0.00    +0.000 OA
ATOM      9  H   UNL     1       4.150   1.688  19.329  0.00  0.00    +0.000 HD
BRANCH   2  11
ATOM     10  C   UNL     1       1.243   3.133  20.590  0.00  0.00    +0.000 C 
ATOM     11  C   UNL     1       1.481   2.025  19.570  0.00  0.00    +0.000 C 
ENDBRANCH   2  11
ENDBRANCH   1   6
BRANCH   1  12
ATOM     12  C   UNL     1       2.958   6.933  18.393  0.00  0.00    +0.000 A 
ATOM     13  C   UNL     1       2.593   8.119  17.742  0.00  0.00    +0.000 A 
ATOM     14  C   UNL     1       1.791   9.068  18.392  0.00  0.00    +0.000 A 
ATOM     15  C   UNL     1       1.310   8.860  19.697  0.00  0.00    +0.000 A 
ATOM     16  C   UNL     1       1.723   7.689  20.356  0.00  0.00    +0.000 A 
ATOM     17  C   UNL     1       2.547   6.754  19.717  0.00  0.00    +0.000 A 
BRANCH  15  18
ATOM     18  C   UNL     1       0.321   9.849  20.339  0.00  0.00    +0.000 C 
ATOM     19  C   UNL     1      -0.799  10.197  19.334  0.00  0.00    +0.000 C 
ATOM     20  C   UNL     1      -0.313   9.226  21.607  0.00  0.00    +0.000 C 
ATOM     21  C   UNL     1       0.991  11.170  20.770  0.00  0.00    +0.000 C 
ENDBRANCH  15  18
ENDBRANCH   1  12
TORSDOF 4
ENDMDL
MODEL 2
REMARK VINA RESULT:      -7.5      0.268      1.047
REMARK  Name = 
REMARK  8 active torsions:
REMARK  status: ('A' for Active; 'I' for Inactive)
REMARK    1  A    between atoms: C_1  and  C_2
REMARK    2  A    between atoms: C_2  and  C_3
REMARK    3  A    between atoms: N_7  and  C_8
REMARK    4  A    between atoms: C_8  and  C_9
REMARK    5  A    between atoms: C_12  and  C_13
REMARK    6  A    between atoms: C_13  and  C_14
REMARK    7  A    between atoms: C_13  and  C_15
REMARK    8  A    between atoms: C_13  and  C_16
REMARK                            x       y       z     vdW  Elec       q    Type
REMARK                         _______ _______ _______ _____ _____    ______ ____
ROOT
ATOM      1  C   UNL     1       3.759   5.837  17.604  0.00  0.00    +0.000 C 
ENDROOT
BRANCH   1   6
ATOM      2  C   UNL     1       2.283   2.459  18.350  0.00  0.00    +0.000 C 
ATOM      3  N   UNL     1       3.655   2.417  18.782  0.00  0.00    +0.000 N 
ATOM      4  C   UNL     1       4.207   3.680  18.811  0.00  0.00    +0.000 C 
ATOM      5  O   UNL     1       5.197   3.936  19.458  0.00  0.00    +0.000 OA
ATOM      6  N   UNL     1       3.418   4.507  18.064  0.00  0.00    +0.000 N 
ATOM      7  C   UNL     1       2.232   3.885  17.803  0.00  0.00    +0.000 C 
ATOM      8  O   UNL     1       1.267   4.388  17.217  0.00  0.00    +0.000 OA
ATOM      9  H   UNL     1       4.027   1.706  19.395  0.00  0.00    +0.000 HD
BRANCH   2  11
ATOM     10  C   UNL     1       0.981   3.310  20.414  0.00  0.00    +0.000 C 
ATOM     11  C   UNL     1       1.363   2.131  19.526  0.00  0.00    +0.000 C 
ENDBRANCH   2  11
ENDBRANCH   1   6
BRANCH   1  12
ATOM     12  C   UNL     1       3.009   6.961  18.274  0.00  0.00    +0.000 A 
ATOM     13  C   UNL     1       2.688   8.122  17.559  0.00  0.00    +0.000 A 
ATOM     14  C   UNL     1       1.867   9.104  18.132  0.00  0.00    +0.000 A 
ATOM     15  C   UNL     1       1.324   8.954  19.421  0.00  0.00    +0.000 A 
ATOM     16  C   UNL     1       1.694   7.808  20.145  0.00  0.00    +0.000 A 
ATOM     17  C   UNL     1       2.536   6.840  19.583  0.00  0.00    +0.000 A 
BRANCH  15  18
ATOM     18  C   UNL     1       0.317   9.978  19.975  0.00  0.00    +0.000 C 
ATOM     19  C   UNL     1      -0.161   9.536  21.376  0.00  0.00    +0.000 C 
ATOM     20  C   UNL     1       0.977  11.375  20.082  0.00  0.00    +0.000 C 
ATOM     21  C   UNL     1      -0.931  10.133  19.082  0.00  0.00    +0.000 C 
ENDBRANCH  15  18
ENDBRANCH   1  12
TORSDOF 4
ENDMDL
MODEL 3
REMARK VINA RESULT:      -7.4      2.446      3.909
REMARK  Name = 
REMARK  8 active torsions:
REMARK  status: ('A' for Active; 'I' for Inactive)
REMARK    1  A    between atoms: C_1  and  C_2
REMARK    2  A    between atoms: C_2  and  C_3
REMARK    3  A    between atoms: N_7  and  C_8
REMARK    4  A    between atoms: C_8  and  C_9
REMARK    5  A    between atoms: C_12  and  C_13
REMARK    6  A    between atoms: C_13  and  C_14
REMARK    7  A    between atoms: C_13  and  C_15
REMARK    8  A    between atoms: C_13  and  C_16
REMARK                            x       y       z     vdW  Elec       q    Type
REMARK                         _______ _______ _______ _____ _____    ______ ____
ROOT
ATOM      1  C   UNL     1       3.522   5.788  17.729  0.00  0.00    +0.000 C 
ENDROOT
BRANCH   1   6
ATOM      2  C   UNL     1       7.279   5.889  17.848  0.00  0.00    +0.000 C 
ATOM      3  N   UNL     1       6.901   6.136  16.483  0.00  0.00    +0.000 N 
ATOM      4  C   UNL     1       5.551   6.395  16.378  0.00  0.00    +0.000 C 
ATOM      5  O   UNL     1       5.076   6.964  15.422  0.00  0.00    +0.000 OA
ATOM      6  N   UNL     1       4.944   5.960  17.522  0.00  0.00    +0.000 N 
ATOM      7  C   UNL     1       5.894   5.701  18.467  0.00  0.00    +0.000 C 
ATOM      8  O   UNL     1       5.676   5.366  19.636  0.00  0.00    +0.000 OA
ATOM      9  H   UNL     1       7.528   6.517  15.789  0.00  0.00    +0.000 HD
BRANCH   2  11
ATOM     10  C   UNL     1       7.885   8.396  17.683  0.00  0.00    +0.000 C 
ATOM     11  C   UNL     1       8.121   7.054  18.368  0.00  0.00    +0.000 C 
ENDBRANCH   2  11
ENDBRANCH   1   6
BRANCH   1  12
ATOM     12  C   UNL     1       2.828   6.938  18.415  0.00  0.00    +0.000 A 
ATOM     13  C   UNL     1       2.515   8.102  17.702  0.00  0.00    +0.000 A 
ATOM     14  C   UNL     1       1.742   9.111  18.295  0.00  0.00    +0.000 A 
ATOM     15  C   UNL     1       1.241   8.987  19.603  0.00  0.00    +0.000 A 
ATOM     16  C   UNL     1       1.604   7.836  20.323  0.00  0.00    +0.000 A 
ATOM     17  C   UNL     1       2.399   6.841  19.741  0.00  0.00    +0.000 A 
BRANCH  15  18
ATOM     18  C   UNL     1       0.283  10.042  20.183  0.00  0.00    +0.000 C 
ATOM     19  C   UNL     1      -0.863  10.315  19.186  0.00  0.00    +0.000 C 
ATOM     20  C   UNL     1      -0.317   9.544  21.521  0.00  0.00    +0.000 C 
ATOM     21  C   UNL     1       0.981  11.388  20.473  0.00  0.00    +0.000 C 
ENDBRANCH  15  18
ENDBRANCH   1  12
TORSDOF 4
ENDMDL
MODEL 4
REMARK VINA RESULT:      -7.4      2.640      4.242
REMARK  Name = 
REMARK  8 active torsions:
REMARK  status: ('A' for Active; 'I' for Inactive)
REMARK    1  A    between atoms: C_1  and  C_2
REMARK    2  A    between atoms: C_2  and  C_3
REMARK    3  A    between atoms: N_7  and  C_8
REMARK    4  A    between atoms: C_8  and  C_9
REMARK    5  A    between atoms: C_12  and  C_13
REMARK    6  A    between atoms: C_13  and  C_14
REMARK    7  A    between atoms: C_13  and  C_15
REMARK    8  A    between atoms: C_13  and  C_16
REMARK                            x       y       z     vdW  Elec       q    Type
REMARK                         _______ _______ _______ _____ _____    ______ ____
ROOT
ATOM      1  C   UNL     1       3.892   5.207  17.670  0.00  0.00    +0.000 C 
ENDROOT
BRANCH   1   6
ATOM      2  C   UNL     1       7.560   5.990  17.949  0.00  0.00    +0.000 C 
ATOM      3  N   UNL     1       7.181   6.258  16.587  0.00  0.00    +0.000 N 
ATOM      4  C   UNL     1       5.809   6.272  16.445  0.00  0.00    +0.000 C 
ATOM      5  O   UNL     1       5.263   6.809  15.509  0.00  0.00    +0.000 OA
ATOM      6  N   UNL     1       5.262   5.652  17.533  0.00  0.00    +0.000 N 
ATOM      7  C   UNL     1       6.217   5.506  18.497  0.00  0.00    +0.000 C 
ATOM      8  O   UNL     1       6.033   5.056  19.632  0.00  0.00    +0.000 OA
ATOM      9  H   UNL     1       7.744   6.797  15.945  0.00  0.00    +0.000 HD
BRANCH   2  11
ATOM     10  C   UNL     1       8.012   8.526  17.754  0.00  0.00    +0.000 C 
ATOM     11  C   UNL     1       8.155   7.250  18.576  0.00  0.00    +0.000 C 
ENDBRANCH   2  11
ENDBRANCH   1   6
BRANCH   1  12
ATOM     12  C   UNL     1       2.998   6.117  18.475  0.00  0.00    +0.000 A 
ATOM     13  C   UNL     1       2.563   5.734  19.751  0.00  0.00    +0.000 A 
ATOM     14  C   UNL     1       1.855   6.635  20.559  0.00  0.00    +0.000 A 
ATOM     15  C   UNL     1       1.575   7.947  20.136  0.00  0.00    +0.000 A 
ATOM     16  C   UNL     1       1.974   8.301  18.835  0.00  0.00    +0.000 A 
ATOM     17  C   UNL     1       2.657   7.392  18.017  0.00  0.00    +0.000 A 
BRANCH  15  18
ATOM     18  C   UNL     1       0.919   8.960  21.090  0.00  0.00    +0.000 C 
ATOM     19  C   UNL     1       0.742  10.316  20.373  0.00  0.00    +0.000 C 
ATOM     20  C   UNL     1      -0.468   8.444  21.548  0.00  0.00    +0.000 C 
ATOM     21  C   UNL     1       1.753   9.209  22.364  0.00  0.00    +0.000 C 
ENDBRANCH  15  18
ENDBRANCH   1  12
TORSDOF 4
ENDMDL
MODEL 5
REMARK VINA RESULT:      -7.4      2.451      4.034
REMARK  Name = 
REMARK  8 active torsions:
REMARK  status: ('A' for Active; 'I' for Inactive)
REMARK    1  A    between atoms: C_1  and  C_2
REMARK    2  A    between atoms: C_2  and  C_3
REMARK    3  A    between atoms: N_7  and  C_8
REMARK    4  A    between atoms: C_8  and  C_9
REMARK    5  A    between atoms: C_12  and  C_13
REMARK    6  A    between atoms: C_13  and  C_14
REMARK    7  A    between atoms: C_13  and  C_15
REMARK    8  A    between atoms: C_13  and  C_16
REMARK                            x       y       z     vdW  Elec       q    Type
REMARK                         _______ _______ _______ _____ _____    ______ ____
ROOT
ATOM      1  C   UNL     1       3.474   5.841  17.723  0.00  0.00    +0.000 C 
ENDROOT
BRANCH   1   6
ATOM      2  C   UNL     1       7.232   5.865  17.850  0.00  0.00    +0.000 C 
ATOM      3  N   UNL     1       6.862   6.102  16.481  0.00  0.00    +0.000 N 
ATOM      4  C   UNL     1       5.518   6.388  16.370  0.00  0.00    +0.000 C 
ATOM      5  O   UNL     1       5.057   6.954  15.405  0.00  0.00    +0.000 OA
ATOM      6  N   UNL     1       4.900   5.980  17.517  0.00  0.00    +0.000 N 
ATOM      7  C   UNL     1       5.842   5.714  18.468  0.00  0.00    +0.000 C 
ATOM      8  O   UNL     1       5.615   5.399  19.640  0.00  0.00    +0.000 OA
ATOM      9  H   UNL     1       7.498   6.461  15.784  0.00  0.00    +0.000 HD
BRANCH   2  11
ATOM     10  C   UNL     1       7.870   8.363  17.675  0.00  0.00    +0.000 C 
ATOM     11  C   UNL     1       8.097   7.019  18.357  0.00  0.00    +0.000 C 
ENDBRANCH   2  11
ENDBRANCH   1   6
BRANCH   1  12
ATOM     12  C   UNL     1       2.796   7.029  18.359  0.00  0.00    +0.000 A 
ATOM     13  C   UNL     1       2.550   8.188  17.611  0.00  0.00    +0.000 A 
ATOM     14  C   UNL     1       1.793   9.235  18.155  0.00  0.00    +0.000 A 
ATOM     15  C   UNL     1       1.240   9.157  19.445  0.00  0.00    +0.000 A 
ATOM     16  C   UNL     1       1.537   8.010  20.202  0.00  0.00    +0.000 A 
ATOM     17  C   UNL     1       2.317   6.975  19.670  0.00  0.00    +0.000 A 
BRANCH  15  18
ATOM     18  C   UNL     1       0.301  10.257  19.969  0.00  0.00    +0.000 C 
ATOM     19  C   UNL     1      -0.097   9.955  21.430  0.00  0.00    +0.000 C 
ATOM     20  C   UNL     1       1.003  11.635  19.909  0.00  0.00    +0.000 C 
ATOM     21  C   UNL     1      -0.999  10.374  19.145  0.00  0.00    +0.000 C 
ENDBRANCH  15  18
ENDBRANCH   1  12
TORSDOF 4
ENDMDL
MODEL 6
REMARK VINA RESULT:      -7.3      0.407      1.540
REMARK  Name = 
REMARK  8 active torsions:
REMARK  status: ('A' for Active; 'I' for Inactive)
REMARK    1  A    between atoms: C_1  and  C_2
REMARK    2  A    between atoms: C_2  and  C_3
REMARK    3  A    between atoms: N_7  and  C_8
REMARK    4  A    between atoms: C_8  and  C_9
REMARK    5  A    between atoms: C_12  and  C_13
REMARK    6  A    between atoms: C_13  and  C_14
REMARK    7  A    between atoms: C_13  and  C_15
REMARK    8  A    between atoms: C_13  and  C_16
REMARK                            x       y       z     vdW  Elec       q    Type
REMARK                         _______ _______ _______ _____ _____    ______ ____
ROOT
ATOM      1  C   UNL     1       3.795   5.953  17.681  0.00  0.00    +0.000 C 
ENDROOT
BRANCH   1   6
ATOM      2  C   UNL     1       2.585   2.438  18.248  0.00  0.00    +0.000 C 
ATOM      3  N   UNL     1       3.971   2.466  18.630  0.00  0.00    +0.000 N 
ATOM      4  C   UNL     1       4.436   3.760  18.725  0.00  0.00    +0.000 C 
ATOM      5  O   UNL     1       5.430   4.044  19.354  0.00  0.00    +0.000 OA
ATOM      6  N   UNL     1       3.564   4.576  18.062  0.00  0.00    +0.000 N 
ATOM      7  C   UNL     1       2.414   3.889  17.799  0.00  0.00    +0.000 C 
ATOM      8  O   UNL     1       1.396   4.359  17.282  0.00  0.00    +0.000 OA
ATOM      9  H   UNL     1       4.415   1.745  19.181  0.00  0.00    +0.000 HD
BRANCH   2  11
ATOM     10  C   UNL     1       1.145   3.076  20.296  0.00  0.00    +0.000 C 
ATOM     11  C   UNL     1       1.735   1.970  19.429  0.00  0.00    +0.000 C 
ENDBRANCH   2  11
ENDBRANCH   1   6
BRANCH   1  12
ATOM     12  C   UNL     1       2.843   6.955  18.285  0.00  0.00    +0.000 A 
ATOM     13  C   UNL     1       2.466   6.852  19.630  0.00  0.00    +0.000 A 
ATOM     14  C   UNL     1       1.700   7.861  20.231  0.00  0.00    +0.000 A 
ATOM     15  C   UNL     1       1.304   9.010  19.524  0.00  0.00    +0.000 A 
ATOM     16  C   UNL     1       1.647   9.077  18.163  0.00  0.00    +0.000 A 
ATOM     17  C   UNL     1       2.389   8.056  17.555  0.00  0.00    +0.000 A 
BRANCH  15  18
ATOM     18  C   UNL     1       0.582  10.166  20.240  0.00  0.00    +0.000 C 
ATOM     19  C   UNL     1       0.549   9.901  21.761  0.00  0.00    +0.000 C 
ATOM     20  C   UNL     1       1.317  11.503  19.975  0.00  0.00    +0.000 C 
ATOM     21  C   UNL     1      -0.874  10.347  19.764  0.00  0.00    +0.000 C 
ENDBRANCH  15  18
ENDBRANCH   1  12
TORSDOF 4
ENDMDL
MODEL 7
REMARK VINA RESULT:      -7.3      3.576      5.685
REMARK  Name = 
REMARK  8 active torsions:
REMARK  status: ('A' for Active; 'I' for Inactive)
REMARK    1  A    between atoms: C_1  and  C_2
REMARK    2  A    between atoms: C_2  and  C_3
REMARK    3  A    between atoms: N_7  and  C_8
REMARK    4  A    between atoms: C_8  and  C_9
REMARK    5  A    between atoms: C_12  and  C_13
REMARK    6  A    between atoms: C_13  and  C_14
REMARK    7  A    between atoms: C_13  and  C_15
REMARK    8  A    between atoms: C_13  and  C_16
REMARK                            x       y       z     vdW  Elec       q    Type
REMARK                         _______ _______ _______ _____ _____    ______ ____
ROOT
ATOM      1  C   UNL     1       6.117   6.267  17.867  0.00  0.00    +0.000 C 
ENDROOT
BRANCH   1   6
ATOM      2  C   UNL     1       6.684   5.135  14.326  0.00  0.00    +0.000 C 
ATOM      3  N   UNL     1       7.790   4.641  15.101  0.00  0.00    +0.000 N 
ATOM      4  C   UNL     1       7.544   4.759  16.453  0.00  0.00    +0.000 C 
ATOM      5  O   UNL     1       8.145   4.109  17.276  0.00  0.00    +0.000 OA
ATOM      6  N   UNL     1       6.520   5.646  16.623  0.00  0.00    +0.000 N 
ATOM      7  C   UNL     1       5.914   5.874  15.421  0.00  0.00    +0.000 C 
ATOM      8  O   UNL     1       4.907   6.565  15.240  0.00  0.00    +0.000 OA
ATOM      9  H   UNL     1       8.421   3.921  14.780  0.00  0.00    +0.000 HD
BRANCH   2  11
ATOM     10  C   UNL     1       6.515   3.579  12.270  0.00  0.00    +0.000 C 
ATOM     11  C   UNL     1       5.973   3.969  13.641  0.00  0.00    +0.000 C 
ENDBRANCH   2  11
ENDBRANCH   1   6
BRANCH   1  12
ATOM     12  C   UNL     1       5.056   5.526  18.641  0.00  0.00    +0.000 A 
ATOM     13  C   UNL     1       3.790   6.096  18.829  0.00  0.00    +0.000 A 
ATOM     14  C   UNL     1       2.758   5.353  19.419  0.00  0.00    +0.000 A 
ATOM     15  C   UNL     1       2.943   4.018  19.821  0.00  0.00    +0.000 A 
ATOM     16  C   UNL     1       4.232   3.476  19.672  0.00  0.00    +0.000 A 
ATOM     17  C   UNL     1       5.270   4.227  19.108  0.00  0.00    +0.000 A 
BRANCH  15  18
ATOM     18  C   UNL     1       1.762   3.179  20.340  0.00  0.00    +0.000 C 
ATOM     19  C   UNL     1       0.471   4.027  20.324  0.00  0.00    +0.000 C 
ATOM     20  C   UNL     1       1.559   1.930  19.448  0.00  0.00    +0.000 C 
ATOM     21  C   UNL     1       1.974   2.677  21.783  0.00  0.00    +0.000 C 
ENDBRANCH  15  18
ENDBRANCH   1  12
TORSDOF 4
ENDMDL
MODEL 8
REMARK VINA RESULT:      -7.3      0.936      1.331
REMARK  Name = 
REMARK  8 active torsions:
REMARK  status: ('A' for Active; 'I' for Inactive)
REMARK    1  A    between atoms: C_1  and  C_2
REMARK    2  A    between atoms: C_2  and  C_3
REMARK    3  A    between atoms: N_7  and  C_8
REMARK    4  A    between atoms: C_8  and  C_9
REMARK    5  A    between atoms: C_12  and  C_13
REMARK    6  A    between atoms: C_13  and  C_14
REMARK    7  A    between atoms: C_13  and  C_15
REMARK    8  A    between atoms: C_13  and  C_16
REMARK                            x       y       z     vdW  Elec       q    Type
REMARK                         _______ _______ _______ _____ _____    ______ ____
ROOT
ATOM      1  C   UNL     1       3.688   5.838  17.650  0.00  0.00    +0.000 C 
ENDROOT
BRANCH   1   6
ATOM      2  C   UNL     1       3.494   2.580  19.518  0.00  0.00    +0.000 C 
ATOM      3  N   UNL     1       4.870   2.997  19.554  0.00  0.00    +0.000 N 
ATOM      4  C   UNL     1       5.005   4.306  19.143  0.00  0.00    +0.000 C 
ATOM      5  O   UNL     1       5.978   4.970  19.416  0.00  0.00    +0.000 OA
ATOM      6  N   UNL     1       3.869   4.662  18.474  0.00  0.00    +0.000 N 
ATOM      7  C   UNL     1       2.901   3.725  18.698  0.00  0.00    +0.000 C 
ATOM      8  O   UNL     1       1.733   3.787  18.302  0.00  0.00    +0.000 OA
ATOM      9  H   UNL     1       5.556   2.609  20.185  0.00  0.00    +0.000 HD
BRANCH   2  11
ATOM     10  C   UNL     1       2.207   3.589  21.519  0.00  0.00    +0.000 C 
ATOM     11  C   UNL     1       2.973   2.403  20.944  0.00  0.00    +0.000 C 
ENDBRANCH   2  11
ENDBRANCH   1   6
BRANCH   1  12
ATOM     12  C   UNL     1       2.965   6.983  18.312  0.00  0.00    +0.000 A 
ATOM     13  C   UNL     1       2.610   8.119  17.572  0.00  0.00    +0.000 A 
ATOM     14  C   UNL     1       1.811   9.118  18.145  0.00  0.00    +0.000 A 
ATOM     15  C   UNL     1       1.325   9.013  19.461  0.00  0.00    +0.000 A 
ATOM     16  C   UNL     1       1.730   7.893  20.207  0.00  0.00    +0.000 A 
ATOM     17  C   UNL     1       2.550   6.908  19.644  0.00  0.00    +0.000 A 
BRANCH  15  18
ATOM     18  C   UNL     1       0.341  10.054  20.023  0.00  0.00    +0.000 C 
ATOM     19  C   UNL     1       1.067  11.400  20.237  0.00  0.00    +0.000 C 
ATOM     20  C   UNL     1      -0.837  10.264  19.039  0.00  0.00    +0.000 C 
ATOM     21  C   UNL     1      -0.269   9.630  21.375  0.00  0.00    +0.000 C 
ENDBRANCH  15  18
ENDBRANCH   1  12
TORSDOF 4
ENDMDL
MODEL 9
REMARK VINA RESULT:      -7.3      3.557      5.708
REMARK  Name = 
REMARK  8 active torsions:
REMARK  status: ('A' for Active; 'I' for Inactive)
REMARK    1  A    between atoms: C_1  and  C_2
REMARK    2  A    between atoms: C_2  and  C_3
REMARK    3  A    between atoms: N_7  and  C_8
REMARK    4  A    between atoms: C_8  and  C_9
REMARK    5  A    between atoms: C_12  and  C_13
REMARK    6  A    between atoms: C_13  and  C_14
REMARK    7  A    between atoms: C_13  and  C_15
REMARK    8  A    between atoms: C_13  and  C_16
REMARK                            x       y       z     vdW  Elec       q    Type
REMARK                         _______ _______ _______ _____ _____    ______ ____
ROOT
ATOM      1  C   UNL     1       6.086   6.364  17.703  0.00  0.00    +0.000 C 
ENDROOT
BRANCH   1   6
ATOM      2  C   UNL     1       6.731   5.057  14.236  0.00  0.00    +0.000 C 
ATOM      3  N   UNL     1       7.813   4.592  15.062  0.00  0.00    +0.000 N 
ATOM      4  C   UNL     1       7.535   4.778  16.400  0.00  0.00    +0.000 C 
ATOM      5  O   UNL     1       8.110   4.165  17.269  0.00  0.00    +0.000 OA
ATOM      6  N   UNL     1       6.514   5.680  16.501  0.00  0.00    +0.000 N 
ATOM      7  C   UNL     1       5.941   5.853  15.274  0.00  0.00    +0.000 C 
ATOM      8  O   UNL     1       4.944   6.541  15.034  0.00  0.00    +0.000 OA
ATOM      9  H   UNL     1       8.446   3.853  14.792  0.00  0.00    +0.000 HD
BRANCH   2  11
ATOM     10  C   UNL     1       6.450   3.541  12.162  0.00  0.00    +0.000 C 
ATOM     11  C   UNL     1       6.028   3.863  13.591  0.00  0.00    +0.000 C 
ENDBRANCH   2  11
ENDBRANCH   1   6
BRANCH   1  12
ATOM     12  C   UNL     1       5.038   5.643  18.513  0.00  0.00    +0.000 A 
ATOM     13  C   UNL     1       3.734   6.150  18.593  0.00  0.00    +0.000 A 
ATOM     14  C   UNL     1       2.723   5.410  19.223  0.00  0.00    +0.000 A 
ATOM     15  C   UNL     1       2.969   4.139  19.772  0.00  0.00    +0.000 A 
ATOM     16  C   UNL     1       4.292   3.665  19.728  0.00  0.00    +0.000 A 
ATOM     17  C   UNL     1       5.308   4.417  19.124  0.00  0.00    +0.000 A 
BRANCH  15  18
ATOM     18  C   UNL     1       1.818   3.287  20.335  0.00  0.00    +0.000 C 
ATOM     19  C   UNL     1       2.200   2.746  21.730  0.00  0.00    +0.000 C 
ATOM     20  C   UNL     1       0.530   4.139  20.457  0.00  0.00    +0.000 C 
ATOM     21  C   UNL     1       1.477   2.076  19.441  0.00  0.00    +0.000 C 
ENDBRANCH  15  18
ENDBRANCH   1  12
TORSDOF 4
ENDMDL
