MODEL 1
REMARK VINA RESULT:      -8.4      0.000      0.000
REMARK  Name = 
REMARK  2 active torsions:
REMARK  status: ('A' for Active; 'I' for Inactive)
REMARK    1  A    between atoms: C_2  and  C_3
REMARK    2  A    between atoms: N_6  and  C_7
REMARK                            x       y       z     vdW  Elec       q    Type
REMARK                         _______ _______ _______ _____ _____    ______ ____
ROOT
ATOM      1  O   UNL     1       1.683   5.036  19.914  0.00  0.00    +0.000 OA
ATOM      2  C   UNL     1       2.482   5.730  19.283  0.00  0.00    +0.000 C 
ATOM      3  N   UNL     1       3.656   5.191  18.728  0.00  0.00    +0.000 N 
ATOM      4  C   UNL     1       3.832   3.747  18.689  0.00  0.00    +0.000 C 
ATOM      5  C   UNL     1       4.288   3.304  17.293  0.00  0.00    +0.000 C 
ATOM      6  C   UNL     1       5.348   4.212  16.706  0.00  0.00    +0.000 A 
ATOM      7  N   UNL     1       6.008   3.724  15.603  0.00  0.00    +0.000 NA
ATOM      8  C   UNL     1       6.891   4.497  15.062  0.00  0.00    +0.000 A 
ATOM      9  N   UNL     1       7.210   5.735  15.529  0.00  0.00    +0.000 N 
ATOM     10  C   UNL     1       6.622   6.260  16.642  0.00  0.00    +0.000 A 
ATOM     11  O   UNL     1       6.940   7.356  17.091  0.00  0.00    +0.000 OA
ATOM     12  C   UNL     1       5.589   5.411  17.270  0.00  0.00    +0.000 A 
ATOM     13  C   UNL     1       4.872   5.966  18.452  0.00  0.00    +0.000 C 
ATOM     14  H   UNL     1       7.921   6.296  15.083  0.00  0.00    +0.000 HD
ENDROOT
BRANCH   2  15
ATOM     15  C   UNL     1       2.234   7.169  19.085  0.00  0.00    +0.000 A 
ATOM     16  C   UNL     1       2.359   7.929  17.896  0.00  0.00    +0.000 A 
ATOM     17  C   UNL     1       1.852   9.174  18.206  0.00  0.00    +0.000 A 
ATOM     18  N   UNL     1       1.474   9.111  19.518  0.00  0.00    +0.000 N 
ATOM     19  N   UNL     1       1.862   7.966  20.098  0.00  0.00    +0.000 NA
BRANCH  18  20
ATOM     20  C   UNL     1       0.542   9.955  20.266  0.00  0.00    +0.000 C 
ATOM     21  C   UNL     1       1.103  11.364  20.548  0.00  0.00    +0.000 C 
ATOM     22  C   UNL     1       1.138  12.230  19.293  0.00  0.00    +0.000 C 
ATOM     23  C   UNL     1      -0.214  12.293  18.588  0.00  0.00    +0.000 C 
ATOM     24  C   UNL     1      -0.861  10.924  18.386  0.00  0.00    +0.000 C 
ATOM     25  C   UNL     1      -0.860  10.084  19.659  0.00  0.00    +0.000 C 
ENDBRANCH  18  20
ENDBRANCH   2  15
TORSDOF 2
ENDMDL
MODEL 2
REMARK VINA RESULT:      -8.0      0.542      1.044
REMARK  Name = 
REMARK  2 active torsions:
REMARK  status: ('A' for Active; 'I' for Inactive)
REMARK    1  A    between atoms: C_2  and  C_3
REMARK    2  A    between atoms: N_6  and  C_7
REMARK                            x       y       z     vdW  Elec       q    Type
REMARK                         _______ _______ _______ _____ _____    ______ ____
ROOT
ATOM      1  O   UNL     1       1.663   5.377  20.046  0.00  0.00    +0.000 OA
ATOM      2  C   UNL     1       2.456   5.999  19.338  0.00  0.00    +0.000 C 
ATOM      3  N   UNL     1       3.621   5.402  18.826  0.00  0.00    +0.000 N 
ATOM      4  C   UNL     1       3.792   3.960  18.933  0.00  0.00    +0.000 C 
ATOM      5  C   UNL     1       4.228   3.374  17.584  0.00  0.00    +0.000 C 
ATOM      6  C   UNL     1       5.283   4.212  16.893  0.00  0.00    +0.000 A 
ATOM      7  N   UNL     1       5.927   3.611  15.838  0.00  0.00    +0.000 NA
ATOM      8  C   UNL     1       6.805   4.320  15.209  0.00  0.00    +0.000 A 
ATOM      9  N   UNL     1       7.134   5.598  15.543  0.00  0.00    +0.000 N 
ATOM     10  C   UNL     1       6.563   6.238  16.603  0.00  0.00    +0.000 A 
ATOM     11  O   UNL     1       6.890   7.372  16.934  0.00  0.00    +0.000 OA
ATOM     12  C   UNL     1       5.535   5.462  17.328  0.00  0.00    +0.000 A 
ATOM     13  C   UNL     1       4.836   6.138  18.457  0.00  0.00    +0.000 C 
ATOM     14  H   UNL     1       7.841   6.107  15.033  0.00  0.00    +0.000 HD
ENDROOT
BRANCH   2  15
ATOM     15  C   UNL     1       2.210   7.411  18.997  0.00  0.00    +0.000 A 
ATOM     16  C   UNL     1       2.720   8.156  17.904  0.00  0.00    +0.000 A 
ATOM     17  C   UNL     1       2.057   9.365  17.948  0.00  0.00    +0.000 A 
ATOM     18  N   UNL     1       1.225   9.299  19.030  0.00  0.00    +0.000 N 
ATOM     19  N   UNL     1       1.440   8.199  19.764  0.00  0.00    +0.000 NA
BRANCH  18  20
ATOM     20  C   UNL     1       0.031  10.086  19.342  0.00  0.00    +0.000 C 
ATOM     21  C   UNL     1      -0.155  10.318  20.855  0.00  0.00    +0.000 C 
ATOM     22  C   UNL     1       0.852  11.321  21.411  0.00  0.00    +0.000 C 
ATOM     23  C   UNL     1       0.857  12.635  20.635  0.00  0.00    +0.000 C 
ATOM     24  C   UNL     1       0.928  12.450  19.121  0.00  0.00    +0.000 C 
ATOM     25  C   UNL     1      -0.082  11.428  18.610  0.00  0.00    +0.000 C 
ENDBRANCH  18  20
ENDBRANCH   2  15
TORSDOF 2
ENDMDL
MODEL 3
REMARK VINA RESULT:      -7.7      3.259      7.916
REMARK  Name = 
REMARK  2 active torsions:
REMARK  status: ('A' for Active; 'I' for Inactive)
REMARK    1  A    between atoms: C_2  and  C_3
REMARK    2  A    between atoms: N_6  and  C_7
REMARK                            x       y       z     vdW  Elec       q    Type
REMARK                         _______ _______ _______ _____ _____    ______ ____
ROOT
ATOM      1  O   UNL     1       1.653   8.719  22.652  0.00  0.00    +0.000 OA
ATOM      2  C   UNL     1       1.278   8.865  21.488  0.00  0.00    +0.000 C 
ATOM      3  N   UNL     1       0.449   9.933  21.104  0.00  0.00    +0.000 N 
ATOM      4  C   UNL     1       0.209  11.024  22.037  0.00  0.00    +0.000 C 
ATOM      5  C   UNL     1       0.406  12.375  21.339  0.00  0.00    +0.000 C 
ATOM      6  C   UNL     1      -0.206  12.416  19.954  0.00  0.00    +0.000 A 
ATOM      7  N   UNL     1      -0.326  13.663  19.390  0.00  0.00    +0.000 NA
ATOM      8  C   UNL     1      -0.811  13.719  18.194  0.00  0.00    +0.000 A 
ATOM      9  N   UNL     1      -1.219  12.631  17.484  0.00  0.00    +0.000 N 
ATOM     10  C   UNL     1      -1.165  11.371  18.001  0.00  0.00    +0.000 A 
ATOM     11  O   UNL     1      -1.574  10.394  17.382  0.00  0.00    +0.000 OA
ATOM     12  C   UNL     1      -0.591  11.270  19.359  0.00  0.00    +0.000 A 
ATOM     13  C   UNL     1      -0.452   9.907  19.945  0.00  0.00    +0.000 C 
ATOM     14  H   UNL     1      -1.609  12.726  16.558  0.00  0.00    +0.000 HD
ENDROOT
BRANCH   2  15
ATOM     15  C   UNL     1       1.690   7.913  20.441  0.00  0.00    +0.000 A 
ATOM     16  C   UNL     1       2.129   8.189  19.122  0.00  0.00    +0.000 A 
ATOM     17  C   UNL     1       2.548   6.975  18.619  0.00  0.00    +0.000 A 
ATOM     18  N   UNL     1       2.336   6.061  19.612  0.00  0.00    +0.000 N 
ATOM     19  N   UNL     1       1.659   6.587  20.643  0.00  0.00    +0.000 NA
BRANCH  18  20
ATOM     20  C   UNL     1       2.928   4.737  19.808  0.00  0.00    +0.000 C 
ATOM     21  C   UNL     1       2.135   3.867  20.804  0.00  0.00    +0.000 C 
ATOM     22  C   UNL     1       0.818   3.373  20.214  0.00  0.00    +0.000 C 
ATOM     23  C   UNL     1       1.008   2.665  18.874  0.00  0.00    +0.000 C 
ATOM     24  C   UNL     1       1.882   3.442  17.892  0.00  0.00    +0.000 C 
ATOM     25  C   UNL     1       3.179   3.933  18.528  0.00  0.00    +0.000 C 
ENDBRANCH  18  20
ENDBRANCH   2  15
TORSDOF 2
ENDMDL
MODEL 4
REMARK VINA RESULT:      -7.6      2.609      8.080
REMARK  Name = 
REMARK  2 active torsions:
REMARK  status: ('A' for Active; 'I' for Inactive)
REMARK    1  A    between atoms: C_2  and  C_3
REMARK    2  A    between atoms: N_6  and  C_7
REMARK                            x       y       z     vdW  Elec       q    Type
REMARK                         _______ _______ _______ _____ _____    ______ ____
ROOT
ATOM      1  O   UNL     1       2.499   8.254  17.600  0.00  0.00    +0.000 OA
ATOM      2  C   UNL     1       2.116   8.193  18.769  0.00  0.00    +0.000 C 
ATOM      3  N   UNL     1       1.545   9.299  19.422  0.00  0.00    +0.000 N 
ATOM      4  C   UNL     1       1.181  10.478  18.649  0.00  0.00    +0.000 C 
ATOM      5  C   UNL     1      -0.239  10.933  19.009  0.00  0.00    +0.000 C 
ATOM      6  C   UNL     1      -0.509  10.892  20.498  0.00  0.00    +0.000 A 
ATOM      7  N   UNL     1      -1.639  11.552  20.919  0.00  0.00    +0.000 NA
ATOM      8  C   UNL     1      -1.909  11.499  22.181  0.00  0.00    +0.000 A 
ATOM      9  N   UNL     1      -1.139  10.855  23.101  0.00  0.00    +0.000 N 
ATOM     10  C   UNL     1       0.015  10.217  22.756  0.00  0.00    +0.000 A 
ATOM     11  O   UNL     1       0.734   9.675  23.588  0.00  0.00    +0.000 OA
ATOM     12  C   UNL     1       0.340  10.237  21.314  0.00  0.00    +0.000 A 
ATOM     13  C   UNL     1       1.558   9.500  20.877  0.00  0.00    +0.000 C 
ATOM     14  H   UNL     1      -1.382  10.857  24.080  0.00  0.00    +0.000 HD
ENDROOT
BRANCH   2  15
ATOM     15  C   UNL     1       2.244   6.942  19.537  0.00  0.00    +0.000 A 
ATOM     16  C   UNL     1       1.309   6.354  20.426  0.00  0.00    +0.000 A 
ATOM     17  C   UNL     1       1.839   5.120  20.744  0.00  0.00    +0.000 A 
ATOM     18  N   UNL     1       3.025   5.034  20.071  0.00  0.00    +0.000 N 
ATOM     19  N   UNL     1       3.356   6.193  19.485  0.00  0.00    +0.000 NA
BRANCH  18  20
ATOM     20  C   UNL     1       3.813   3.855  19.709  0.00  0.00    +0.000 C 
ATOM     21  C   UNL     1       3.121   2.531  20.094  0.00  0.00    +0.000 C 
ATOM     22  C   UNL     1       1.934   2.219  19.188  0.00  0.00    +0.000 C 
ATOM     23  C   UNL     1       2.304   2.253  17.707  0.00  0.00    +0.000 C 
ATOM     24  C   UNL     1       3.090   3.498  17.303  0.00  0.00    +0.000 C 
ATOM     25  C   UNL     1       4.256   3.784  18.244  0.00  0.00    +0.000 C 
ENDBRANCH  18  20
ENDBRANCH   2  15
TORSDOF 2
ENDMDL
MODEL 5
REMARK VINA RESULT:      -7.6      2.962      8.253
REMARK  Name = 
REMARK  2 active torsions:
REMARK  status: ('A' for Active; 'I' for Inactive)
REMARK    1  A    between atoms: C_2  and  C_3
REMARK    2  A    between atoms: N_6  and  C_7
REMARK                            x       y       z     vdW  Elec       q    Type
REMARK                         _______ _______ _______ _____ _____    ______ ____
ROOT
ATOM      1  O   UNL     1       2.130   9.191  17.594  0.00  0.00    +0.000 OA
ATOM      2  C   UNL     1       1.714   9.093  18.749  0.00  0.00    +0.000 C 
ATOM      3  N   UNL     1       1.053  10.154  19.392  0.00  0.00    +0.000 N 
ATOM      4  C   UNL     1       0.639  11.315  18.616  0.00  0.00    +0.000 C 
ATOM      5  C   UNL     1      -0.818  11.674  18.933  0.00  0.00    +0.000 C 
ATOM      6  C   UNL     1      -1.134  11.601  20.412  0.00  0.00    +0.000 A 
ATOM      7  N   UNL     1      -2.317  12.183  20.801  0.00  0.00    +0.000 NA
ATOM      8  C   UNL     1      -2.624  12.100  22.053  0.00  0.00    +0.000 A 
ATOM      9  N   UNL     1      -1.845  11.497  22.992  0.00  0.00    +0.000 N 
ATOM     10  C   UNL     1      -0.641  10.938  22.680  0.00  0.00    +0.000 A 
ATOM     11  O   UNL     1       0.084  10.434  23.531  0.00  0.00    +0.000 OA
ATOM     12  C   UNL     1      -0.272  10.993  21.251  0.00  0.00    +0.000 A 
ATOM     13  C   UNL     1       1.005  10.340  20.847  0.00  0.00    +0.000 C 
ATOM     14  H   UNL     1      -2.119  11.473  23.963  0.00  0.00    +0.000 HD
ENDROOT
BRANCH   2  15
ATOM     15  C   UNL     1       1.897   7.845  19.510  0.00  0.00    +0.000 A 
ATOM     16  C   UNL     1       1.152   7.372  20.619  0.00  0.00    +0.000 A 
ATOM     17  C   UNL     1       1.615   6.092  20.847  0.00  0.00    +0.000 A 
ATOM     18  N   UNL     1       2.587   5.871  19.913  0.00  0.00    +0.000 N 
ATOM     19  N   UNL     1       2.882   6.981  19.221  0.00  0.00    +0.000 NA
BRANCH  18  20
ATOM     20  C   UNL     1       3.140   4.610  19.417  0.00  0.00    +0.000 C 
ATOM     21  C   UNL     1       2.755   3.401  20.294  0.00  0.00    +0.000 C 
ATOM     22  C   UNL     1       1.288   3.014  20.126  0.00  0.00    +0.000 C 
ATOM     23  C   UNL     1       0.905   2.796  18.665  0.00  0.00    +0.000 C 
ATOM     24  C   UNL     1       1.366   3.920  17.739  0.00  0.00    +0.000 C 
ATOM     25  C   UNL     1       2.832   4.287  17.951  0.00  0.00    +0.000 C 
ENDBRANCH  18  20
ENDBRANCH   2  15
TORSDOF 2
ENDMDL
MODEL 6
REMARK VINA RESULT:      -7.5      2.834      8.310
REMARK  Name = 
REMARK  2 active torsions:
REMARK  status: ('A' for Active; 'I' for Inactive)
REMARK    1  A    between atoms: C_2  and  C_3
REMARK    2  A    between atoms: N_6  and  C_7
REMARK                            x       y       z     vdW  Elec       q    Type
REMARK                         _______ _______ _______ _____ _____    ______ ____
ROOT
ATOM      1  O   UNL     1       2.193   9.282  17.460  0.00  0.00    +0.000 OA
ATOM      2  C   UNL     1       1.786   9.072  18.604  0.00  0.00    +0.000 C 
ATOM      3  N   UNL     1       1.193  10.085  19.378  0.00  0.00    +0.000 N 
ATOM      4  C   UNL     1       0.836  11.349  18.750  0.00  0.00    +0.000 C 
ATOM      5  C   UNL     1      -0.594  11.748  19.134  0.00  0.00    +0.000 C 
ATOM      6  C   UNL     1      -0.895  11.520  20.600  0.00  0.00    +0.000 A 
ATOM      7  N   UNL     1      -2.039  12.115  21.076  0.00  0.00    +0.000 NA
ATOM      8  C   UNL     1      -2.335  11.903  22.315  0.00  0.00    +0.000 A 
ATOM      9  N   UNL     1      -1.579  11.153  23.163  0.00  0.00    +0.000 N 
ATOM     10  C   UNL     1      -0.413  10.569  22.766  0.00  0.00    +0.000 A 
ATOM     11  O   UNL     1       0.292   9.931  23.539  0.00  0.00    +0.000 OA
ATOM     12  C   UNL     1      -0.059  10.772  21.346  0.00  0.00    +0.000 A 
ATOM     13  C   UNL     1       1.174  10.101  20.846  0.00  0.00    +0.000 C 
ATOM     14  H   UNL     1      -1.843  11.031  24.130  0.00  0.00    +0.000 HD
ENDROOT
BRANCH   2  15
ATOM     15  C   UNL     1       1.907   7.735  19.211  0.00  0.00    +0.000 A 
ATOM     16  C   UNL     1       1.715   7.361  20.564  0.00  0.00    +0.000 A 
ATOM     17  C   UNL     1       1.782   5.983  20.572  0.00  0.00    +0.000 A 
ATOM     18  N   UNL     1       2.016   5.609  19.279  0.00  0.00    +0.000 N 
ATOM     19  N   UNL     1       2.267   6.663  18.489  0.00  0.00    +0.000 NA
BRANCH  18  20
ATOM     20  C   UNL     1       1.796   4.320  18.623  0.00  0.00    +0.000 C 
ATOM     21  C   UNL     1       2.935   3.937  17.656  0.00  0.00    +0.000 C 
ATOM     22  C   UNL     1       4.205   3.530  18.397  0.00  0.00    +0.000 C 
ATOM     23  C   UNL     1       3.952   2.436  19.432  0.00  0.00    +0.000 C 
ATOM     24  C   UNL     1       2.759   2.721  20.342  0.00  0.00    +0.000 C 
ATOM     25  C   UNL     1       1.517   3.143  19.563  0.00  0.00    +0.000 C 
ENDBRANCH  18  20
ENDBRANCH   2  15
TORSDOF 2
ENDMDL
MODEL 7
REMARK VINA RESULT:      -7.5      0.879      1.861
REMARK  Name = 
REMARK  2 active torsions:
REMARK  status: ('A' for Active; 'I' for Inactive)
REMARK    1  A    between atoms: C_2  and  C_3
REMARK    2  A    between atoms: N_6  and  C_7
REMARK                            x       y       z     vdW  Elec       q    Type
REMARK                         _______ _______ _______ _____ _____    ______ ____
ROOT
ATOM      1  O   UNL     1       1.702   5.210  19.840  0.00  0.00    +0.000 OA
ATOM      2  C   UNL     1       2.516   5.865  19.188  0.00  0.00    +0.000 C 
ATOM      3  N   UNL     1       3.678   5.283  18.651  0.00  0.00    +0.000 N 
ATOM      4  C   UNL     1       3.822   3.835  18.659  0.00  0.00    +0.000 C 
ATOM      5  C   UNL     1       4.268   3.337  17.279  0.00  0.00    +0.000 C 
ATOM      6  C   UNL     1       5.348   4.201  16.663  0.00  0.00    +0.000 A 
ATOM      7  N   UNL     1       5.997   3.664  15.577  0.00  0.00    +0.000 NA
ATOM      8  C   UNL     1       6.896   4.399  15.012  0.00  0.00    +0.000 A 
ATOM      9  N   UNL     1       7.243   5.644  15.439  0.00  0.00    +0.000 N 
ATOM     10  C   UNL     1       6.667   6.218  16.533  0.00  0.00    +0.000 A 
ATOM     11  O   UNL     1       7.009   7.321  16.947  0.00  0.00    +0.000 OA
ATOM     12  C   UNL     1       5.616   5.413  17.188  0.00  0.00    +0.000 A 
ATOM     13  C   UNL     1       4.911   6.021  18.351  0.00  0.00    +0.000 C 
ATOM     14  H   UNL     1       7.966   6.174  14.975  0.00  0.00    +0.000 HD
ENDROOT
BRANCH   2  15
ATOM     15  C   UNL     1       2.300   7.302  18.943  0.00  0.00    +0.000 A 
ATOM     16  C   UNL     1       2.571   8.046  17.768  0.00  0.00    +0.000 A 
ATOM     17  C   UNL     1       2.035   9.296  17.999  0.00  0.00    +0.000 A 
ATOM     18  N   UNL     1       1.501   9.251  19.256  0.00  0.00    +0.000 N 
ATOM     19  N   UNL     1       1.812   8.114  19.893  0.00  0.00    +0.000 NA
BRANCH  18  20
ATOM     20  C   UNL     1       0.489  10.108  19.875  0.00  0.00    +0.000 C 
ATOM     21  C   UNL     1      -0.774   9.333  20.300  0.00  0.00    +0.000 C 
ATOM     22  C   UNL     1      -0.527   8.459  21.526  0.00  0.00    +0.000 C 
ATOM     23  C   UNL     1       0.072   9.243  22.691  0.00  0.00    +0.000 C 
ATOM     24  C   UNL     1       1.261  10.115  22.292  0.00  0.00    +0.000 C 
ATOM     25  C   UNL     1       0.978  10.958  21.053  0.00  0.00    +0.000 C 
ENDBRANCH  18  20
ENDBRANCH   2  15
TORSDOF 2
ENDMDL
MODEL 8
REMARK VINA RESULT:      -7.3      5.932      9.048
REMARK  Name = 
REMARK  2 active torsions:
REMARK  status: ('A' for Active; 'I' for Inactive)
REMARK    1  A    between atoms: C_2  and  C_3
REMARK    2  A    between atoms: N_6  and  C_7
REMARK                            x       y       z     vdW  Elec       q    Type
REMARK                         _______ _______ _______ _____ _____    ______ ____
ROOT
ATOM      1  O   UNL     1      -3.846  12.867  23.867  0.00  0.00    +0.000 OA
ATOM      2  C   UNL     1      -3.687  12.776  22.649  0.00  0.00    +0.000 C 
ATOM      3  N   UNL     1      -2.444  12.435  22.087  0.00  0.00    +0.000 N 
ATOM      4  C   UNL     1      -1.376  11.952  22.950  0.00  0.00    +0.000 C 
ATOM      5  C   UNL     1      -0.745  10.685  22.358  0.00  0.00    +0.000 C 
ATOM      6  C   UNL     1      -0.525  10.782  20.864  0.00  0.00    +0.000 A 
ATOM      7  N   UNL     1       0.291   9.821  20.316  0.00  0.00    +0.000 NA
ATOM      8  C   UNL     1       0.464   9.862  19.037  0.00  0.00    +0.000 A 
ATOM      9  N   UNL     1      -0.091  10.799  18.221  0.00  0.00    +0.000 N 
ATOM     10  C   UNL     1      -0.876  11.803  18.705  0.00  0.00    +0.000 A 
ATOM     11  O   UNL     1      -1.341  12.675  17.979  0.00  0.00    +0.000 OA
ATOM     12  C   UNL     1      -1.115  11.770  20.163  0.00  0.00    +0.000 A 
ATOM     13  C   UNL     1      -2.017  12.809  20.733  0.00  0.00    +0.000 C 
ATOM     14  H   UNL     1       0.088  10.801  17.228  0.00  0.00    +0.000 HD
ENDROOT
BRANCH   2  15
ATOM     15  C   UNL     1      -4.806  13.025  21.724  0.00  0.00    +0.000 A 
ATOM     16  C   UNL     1      -5.270  14.263  21.215  0.00  0.00    +0.000 A 
ATOM     17  C   UNL     1      -6.220  13.933  20.271  0.00  0.00    +0.000 A 
ATOM     18  N   UNL     1      -6.292  12.569  20.267  0.00  0.00    +0.000 N 
ATOM     19  N   UNL     1      -5.573  12.026  21.260  0.00  0.00    +0.000 NA
BRANCH  18  20
ATOM     20  C   UNL     1      -6.806  11.660  19.242  0.00  0.00    +0.000 C 
ATOM     21  C   UNL     1      -7.258  12.394  17.963  0.00  0.00    +0.000 C 
ATOM     22  C   UNL     1      -6.076  12.909  17.148  0.00  0.00    +0.000 C 
ATOM     23  C   UNL     1      -5.057  11.814  16.840  0.00  0.00    +0.000 C 
ATOM     24  C   UNL     1      -4.663  10.987  18.061  0.00  0.00    +0.000 C 
ATOM     25  C   UNL     1      -5.873  10.507  18.857  0.00  0.00    +0.000 C 
ENDBRANCH  18  20
ENDBRANCH   2  15
TORSDOF 2
ENDMDL
MODEL 9
REMARK VINA RESULT:      -7.3      2.148      3.840
REMARK  Name = 
REMARK  2 active torsions:
REMARK  status: ('A' for Active; 'I' for Inactive)
REMARK    1  A    between atoms: C_2  and  C_3
REMARK    2  A    between atoms: N_6  and  C_7
REMARK                            x       y       z     vdW  Elec       q    Type
REMARK                         _______ _______ _______ _____ _____    ______ ____
ROOT
ATOM      1  O   UNL     1       3.308   8.171  16.994  0.00  0.00    +0.000 OA
ATOM      2  C   UNL     1       2.835   7.563  17.955  0.00  0.00    +0.000 C 
ATOM      3  N   UNL     1       3.027   6.181  18.126  0.00  0.00    +0.000 N 
ATOM      4  C   UNL     1       3.992   5.483  17.288  0.00  0.00    +0.000 C 
ATOM      5  C   UNL     1       4.899   4.595  18.148  0.00  0.00    +0.000 C 
ATOM      6  C   UNL     1       4.140   3.839  19.218  0.00  0.00    +0.000 A 
ATOM      7  N   UNL     1       4.826   2.817  19.829  0.00  0.00    +0.000 NA
ATOM      8  C   UNL     1       4.210   2.182  20.770  0.00  0.00    +0.000 A 
ATOM      9  N   UNL     1       2.937   2.453  21.168  0.00  0.00    +0.000 N 
ATOM     10  C   UNL     1       2.188   3.426  20.576  0.00  0.00    +0.000 A 
ATOM     11  O   UNL     1       1.026   3.642  20.901  0.00  0.00    +0.000 OA
ATOM     12  C   UNL     1       2.872   4.188  19.511  0.00  0.00    +0.000 A 
ATOM     13  C   UNL     1       2.118   5.305  18.875  0.00  0.00    +0.000 C 
ATOM     14  H   UNL     1       2.491   1.917  21.897  0.00  0.00    +0.000 HD
ENDROOT
BRANCH   2  15
ATOM     15  C   UNL     1       2.040   8.270  18.974  0.00  0.00    +0.000 A 
ATOM     16  C   UNL     1       1.735   7.860  20.296  0.00  0.00    +0.000 A 
ATOM     17  C   UNL     1       1.114   8.945  20.878  0.00  0.00    +0.000 A 
ATOM     18  N   UNL     1       1.063   9.913  19.914  0.00  0.00    +0.000 N 
ATOM     19  N   UNL     1       1.458   9.452  18.719  0.00  0.00    +0.000 NA
BRANCH  18  20
ATOM     20  C   UNL     1       0.888  11.359  20.048  0.00  0.00    +0.000 C 
ATOM     21  C   UNL     1       0.158  11.989  18.844  0.00  0.00    +0.000 C 
ATOM     22  C   UNL     1      -1.328  11.645  18.830  0.00  0.00    +0.000 C 
ATOM     23  C   UNL     1      -2.019  11.983  20.149  0.00  0.00    +0.000 C 
ATOM     24  C   UNL     1      -1.270  11.474  21.378  0.00  0.00    +0.000 C 
ATOM     25  C   UNL     1       0.214  11.823  21.344  0.00  0.00    +0.000 C 
ENDBRANCH  18  20
ENDBRANCH   2  15
TORSDOF 2
ENDMDL
