MODEL 1
REMARK VINA RESULT:      -7.8      0.000      0.000
REMARK  Name = 
REMARK  6 active torsions:
REMARK  status: ('A' for Active; 'I' for Inactive)
REMARK    1  A    between atoms: C_1  and  N_2
REMARK    2  A    between atoms: N_2  and  C_3
REMARK    3  A    between atoms: N_2  and  C_4
REMARK    4  A    between atoms: C_4  and  C_5
REMARK    5  A    between atoms: C_8  and  N_9
REMARK    6  A    between atoms: C_14  and  C_15
REMARK                            x       y       z     vdW  Elec       q    Type
REMARK                         _______ _______ _______ _____ _____    ______ ____
ROOT
ATOM      1  N   UNL     1       0.387  10.211  20.195  0.00  0.00    +0.000 N 
ATOM      2  C   UNL     1       0.559  11.568  20.157  0.00  0.00    +0.000 C 
ATOM      3  O   UNL     1       1.556  12.114  19.702  0.00  0.00    +0.000 OA
ATOM      4  N   UNL     1      -0.574  12.292  20.572  0.00  0.00    +0.000 N 
ATOM      5  C   UNL     1      -1.807  11.620  21.062  0.00  0.00    +0.000 C 
ATOM      6  C   UNL     1      -3.134  12.316  20.707  0.00  0.00    +0.000 C 
ATOM      7  C   UNL     1      -3.006  13.781  21.080  0.00  0.00    +0.000 C 
ATOM      8  C   UNL     1      -1.812  14.389  20.901  0.00  0.00    +0.000 C 
ATOM      9  C   UNL     1      -1.587  15.841  21.089  0.00  0.00    +0.000 A 
ATOM     10  C   UNL     1      -1.437  16.662  22.203  0.00  0.00    +0.000 A 
ATOM     11  C   UNL     1      -1.032  18.014  22.040  0.00  0.00    +0.000 A 
ATOM     12  C   UNL     1      -0.885  18.631  20.772  0.00  0.00    +0.000 A 
ATOM     13  C   UNL     1      -0.935  17.758  19.693  0.00  0.00    +0.000 A 
ATOM     14  N   UNL     1      -0.706  17.843  18.334  0.00  0.00    +0.000 N 
ATOM     15  C   UNL     1      -0.198  16.623  17.900  0.00  0.00    +0.000 A 
ATOM     16  C   UNL     1      -0.251  15.802  18.996  0.00  0.00    +0.000 A 
ATOM     17  C   UNL     1      -1.137  16.414  19.901  0.00  0.00    +0.000 A 
ATOM     18  C   UNL     1       0.378  14.537  19.494  0.00  0.00    +0.000 C 
ATOM     19  C   UNL     1      -0.784  13.632  19.996  0.00  0.00    +0.000 C 
ATOM     20  H   UNL     1      -0.347   9.844  20.765  0.00  0.00    +0.000 HD
ATOM     21  H   UNL     1      -0.700  18.692  17.787  0.00  0.00    +0.000 HD
ENDROOT
BRANCH   6  22
ATOM     22  C   UNL     1      -3.464  11.976  19.207  0.00  0.00    +0.000 C 
ATOM     23  O   UNL     1      -2.585  11.625  18.409  0.00  0.00    +0.000 OA
ATOM     24  N   UNL     1      -4.775  12.028  18.821  0.00  0.00    +0.000 N 
ATOM     25  C   UNL     1      -5.173  11.737  17.455  0.00  0.00    +0.000 C 
ATOM     26  C   UNL     1      -6.532  12.391  17.362  0.00  0.00    +0.000 C 
ATOM     27  C   UNL     1      -7.120  12.196  18.751  0.00  0.00    +0.000 C 
ATOM     28  C   UNL     1      -5.915  12.139  19.682  0.00  0.00    +0.000 C 
ENDBRANCH   6  22
BRANCH   1  32
ATOM     29  C   UNL     1       2.808   7.306  18.419  0.00  0.00    +0.000 A 
ATOM     30  C   UNL     1       2.309   8.349  17.623  0.00  0.00    +0.000 A 
ATOM     31  C   UNL     1       1.436   9.295  18.157  0.00  0.00    +0.000 A 
ATOM     32  C   UNL     1       1.096   9.220  19.502  0.00  0.00    +0.000 A 
ATOM     33  C   UNL     1       1.503   8.118  20.267  0.00  0.00    +0.000 A 
ATOM     34  C   UNL     1       2.341   7.153  19.727  0.00  0.00    +0.000 A 
BRANCH  29  35
ATOM     35  C   UNL     1       3.942   6.444  17.919  0.00  0.00    +0.000 C 
BRANCH  35  37
ATOM     36  C   UNL     1       3.712   4.028  18.215  0.00  0.00    +0.000 C 
ATOM     37  N   UNL     1       4.180   5.286  18.803  0.00  0.00    +0.000 NA
ATOM     38  C   UNL     1       5.599   5.186  19.131  0.00  0.00    +0.000 C 
ENDBRANCH  35  37
ENDBRANCH  29  35
ENDBRANCH   1  32
TORSDOF 4
ENDMDL
MODEL 2
REMARK VINA RESULT:      -7.6      2.252      2.873
REMARK  Name = 
REMARK  6 active torsions:
REMARK  status: ('A' for Active; 'I' for Inactive)
REMARK    1  A    between atoms: C_1  and  N_2
REMARK    2  A    between atoms: N_2  and  C_3
REMARK    3  A    between atoms: N_2  and  C_4
REMARK    4  A    between atoms: C_4  and  C_5
REMARK    5  A    between atoms: C_8  and  N_9
REMARK    6  A    between atoms: C_14  and  C_15
REMARK                            x       y       z     vdW  Elec       q    Type
REMARK                         _______ _______ _______ _____ _____    ______ ____
ROOT
ATOM      1  N   UNL     1      -0.260  10.562  21.631  0.00  0.00    +0.000 N 
ATOM      2  C   UNL     1       0.006  11.842  22.035  0.00  0.00    +0.000 C 
ATOM      3  O   UNL     1       0.994  12.474  21.685  0.00  0.00    +0.000 OA
ATOM      4  N   UNL     1      -1.029  12.420  22.794  0.00  0.00    +0.000 N 
ATOM      5  C   UNL     1      -2.258  11.666  23.161  0.00  0.00    +0.000 C 
ATOM      6  C   UNL     1      -3.558  12.491  23.212  0.00  0.00    +0.000 C 
ATOM      7  C   UNL     1      -3.290  13.732  24.041  0.00  0.00    +0.000 C 
ATOM      8  C   UNL     1      -2.076  14.319  23.948  0.00  0.00    +0.000 C 
ATOM      9  C   UNL     1      -1.731  15.608  24.591  0.00  0.00    +0.000 A 
ATOM     10  C   UNL     1      -1.421  15.990  25.894  0.00  0.00    +0.000 A 
ATOM     11  C   UNL     1      -0.936  17.299  26.154  0.00  0.00    +0.000 A 
ATOM     12  C   UNL     1      -0.860  18.309  25.162  0.00  0.00    +0.000 A 
ATOM     13  C   UNL     1      -1.071  17.863  23.864  0.00  0.00    +0.000 A 
ATOM     14  N   UNL     1      -0.961  18.403  22.597  0.00  0.00    +0.000 N 
ATOM     15  C   UNL     1      -0.585  17.389  21.723  0.00  0.00    +0.000 A 
ATOM     16  C   UNL     1      -0.597  16.243  22.475  0.00  0.00    +0.000 A 
ATOM     17  C   UNL     1      -1.351  16.539  23.625  0.00  0.00    +0.000 A 
ATOM     18  C   UNL     1      -0.019  14.862  22.442  0.00  0.00    +0.000 C 
ATOM     19  C   UNL     1      -1.193  13.883  22.733  0.00  0.00    +0.000 C 
ATOM     20  H   UNL     1      -0.963  10.049  22.120  0.00  0.00    +0.000 HD
ATOM     21  H   UNL     1      -0.944  19.388  22.374  0.00  0.00    +0.000 HD
ENDROOT
BRANCH   6  22
ATOM     22  C   UNL     1      -4.046  12.700  21.731  0.00  0.00    +0.000 C 
ATOM     23  O   UNL     1      -3.281  12.571  20.767  0.00  0.00    +0.000 OA
ATOM     24  N   UNL     1      -5.372  12.980  21.536  0.00  0.00    +0.000 N 
ATOM     25  C   UNL     1      -5.912  13.195  20.206  0.00  0.00    +0.000 C 
ATOM     26  C   UNL     1      -7.193  13.945  20.489  0.00  0.00    +0.000 C 
ATOM     27  C   UNL     1      -7.681  13.341  21.796  0.00  0.00    +0.000 C 
ATOM     28  C   UNL     1      -6.417  12.882  22.512  0.00  0.00    +0.000 C 
ENDBRANCH   6  22
BRANCH   1  32
ATOM     29  C   UNL     1       1.813   8.483  18.658  0.00  0.00    +0.000 A 
ATOM     30  C   UNL     1       0.955   9.528  18.279  0.00  0.00    +0.000 A 
ATOM     31  C   UNL     1       0.187  10.197  19.231  0.00  0.00    +0.000 A 
ATOM     32  C   UNL     1       0.309   9.845  20.570  0.00  0.00    +0.000 A 
ATOM     33  C   UNL     1       1.078   8.730  20.933  0.00  0.00    +0.000 A 
ATOM     34  C   UNL     1       1.814   8.038  19.983  0.00  0.00    +0.000 A 
BRANCH  29  35
ATOM     35  C   UNL     1       2.826   7.939  17.680  0.00  0.00    +0.000 C 
BRANCH  35  37
ATOM     36  C   UNL     1       2.587   5.516  17.902  0.00  0.00    +0.000 C 
ATOM     37  N   UNL     1       3.433   6.684  18.163  0.00  0.00    +0.000 NA
ATOM     38  C   UNL     1       4.747   6.493  17.555  0.00  0.00    +0.000 C 
ENDBRANCH  35  37
ENDBRANCH  29  35
ENDBRANCH   1  32
TORSDOF 4
ENDMDL
MODEL 3
REMARK VINA RESULT:      -7.5      2.906      5.716
REMARK  Name = 
REMARK  6 active torsions:
REMARK  status: ('A' for Active; 'I' for Inactive)
REMARK    1  A    between atoms: C_1  and  N_2
REMARK    2  A    between atoms: N_2  and  C_3
REMARK    3  A    between atoms: N_2  and  C_4
REMARK    4  A    between atoms: C_4  and  C_5
REMARK    5  A    between atoms: C_8  and  N_9
REMARK    6  A    between atoms: C_14  and  C_15
REMARK                            x       y       z     vdW  Elec       q    Type
REMARK                         _______ _______ _______ _____ _____    ______ ____
ROOT
ATOM      1  N   UNL     1       1.782  10.862  18.329  0.00  0.00    +0.000 N 
ATOM      2  C   UNL     1       0.771  11.750  18.576  0.00  0.00    +0.000 C 
ATOM      3  O   UNL     1      -0.376  11.418  18.845  0.00  0.00    +0.000 OA
ATOM      4  N   UNL     1       1.196  13.091  18.619  0.00  0.00    +0.000 N 
ATOM      5  C   UNL     1       2.607  13.483  18.355  0.00  0.00    +0.000 C 
ATOM      6  C   UNL     1       3.133  14.677  19.173  0.00  0.00    +0.000 C 
ATOM      7  C   UNL     1       2.120  15.800  19.063  0.00  0.00    +0.000 C 
ATOM      8  C   UNL     1       0.807  15.482  19.031  0.00  0.00    +0.000 C 
ATOM      9  C   UNL     1      -0.287  16.480  19.067  0.00  0.00    +0.000 A 
ATOM     10  C   UNL     1      -0.838  17.348  18.128  0.00  0.00    +0.000 A 
ATOM     11  C   UNL     1      -2.033  18.055  18.429  0.00  0.00    +0.000 A 
ATOM     12  C   UNL     1      -2.649  18.026  19.705  0.00  0.00    +0.000 A 
ATOM     13  C   UNL     1      -2.137  17.071  20.575  0.00  0.00    +0.000 A 
ATOM     14  N   UNL     1      -2.479  16.571  21.816  0.00  0.00    +0.000 N 
ATOM     15  C   UNL     1      -2.111  15.230  21.862  0.00  0.00    +0.000 A 
ATOM     16  C   UNL     1      -1.449  14.999  20.685  0.00  0.00    +0.000 A 
ATOM     17  C   UNL     1      -1.097  16.264  20.179  0.00  0.00    +0.000 A 
ATOM     18  C   UNL     1      -1.066  13.845  19.809  0.00  0.00    +0.000 C 
ATOM     19  C   UNL     1       0.442  14.026  19.471  0.00  0.00    +0.000 C 
ATOM     20  H   UNL     1       2.623  11.207  17.915  0.00  0.00    +0.000 HD
ATOM     21  H   UNL     1      -3.078  17.024  22.491  0.00  0.00    +0.000 HD
ENDROOT
BRANCH   6  22
ATOM     22  C   UNL     1       3.478  14.151  20.615  0.00  0.00    +0.000 C 
ATOM     23  O   UNL     1       2.740  13.358  21.214  0.00  0.00    +0.000 OA
ATOM     24  N   UNL     1       4.660  14.558  21.171  0.00  0.00    +0.000 N 
ATOM     25  C   UNL     1       5.059  14.130  22.499  0.00  0.00    +0.000 C 
ATOM     26  C   UNL     1       6.086  15.169  22.885  0.00  0.00    +0.000 C 
ATOM     27  C   UNL     1       6.782  15.491  21.572  0.00  0.00    +0.000 C 
ATOM     28  C   UNL     1       5.732  15.233  20.499  0.00  0.00    +0.000 C 
ENDBRANCH   6  22
BRANCH   1  32
ATOM     29  C   UNL     1       2.173   6.868  19.494  0.00  0.00    +0.000 A 
ATOM     30  C   UNL     1       2.438   7.212  18.159  0.00  0.00    +0.000 A 
ATOM     31  C   UNL     1       2.245   8.517  17.710  0.00  0.00    +0.000 A 
ATOM     32  C   UNL     1       1.827   9.490  18.611  0.00  0.00    +0.000 A 
ATOM     33  C   UNL     1       1.455   9.124  19.913  0.00  0.00    +0.000 A 
ATOM     34  C   UNL     1       1.610   7.818  20.352  0.00  0.00    +0.000 A 
BRANCH  29  35
ATOM     35  C   UNL     1       2.623   5.535  20.039  0.00  0.00    +0.000 C 
BRANCH  35  37
ATOM     36  C   UNL     1       1.407   3.790  18.833  0.00  0.00    +0.000 C 
ATOM     37  N   UNL     1       1.517   4.558  20.077  0.00  0.00    +0.000 NA
ATOM     38  C   UNL     1       1.684   3.651  21.209  0.00  0.00    +0.000 C 
ENDBRANCH  35  37
ENDBRANCH  29  35
ENDBRANCH   1  32
TORSDOF 4
ENDMDL
MODEL 4
REMARK VINA RESULT:      -7.5      8.393     10.039
REMARK  Name = 
REMARK  6 active torsions:
REMARK  status: ('A' for Active; 'I' for Inactive)
REMARK    1  A    between atoms: C_1  and  N_2
REMARK    2  A    between atoms: N_2  and  C_3
REMARK    3  A    between atoms: N_2  and  C_4
REMARK    4  A    between atoms: C_4  and  C_5
REMARK    5  A    between atoms: C_8  and  N_9
REMARK    6  A    between atoms: C_14  and  C_15
REMARK                            x       y       z     vdW  Elec       q    Type
REMARK                         _______ _______ _______ _____ _____    ______ ____
ROOT
ATOM      1  N   UNL     1       9.031   9.639  18.691  0.00  0.00    +0.000 N 
ATOM      2  C   UNL     1       8.820  10.924  18.272  0.00  0.00    +0.000 C 
ATOM      3  O   UNL     1       8.095  11.222  17.332  0.00  0.00    +0.000 OA
ATOM      4  N   UNL     1       9.414  11.893  19.101  0.00  0.00    +0.000 N 
ATOM      5  C   UNL     1      10.241  11.525  20.282  0.00  0.00    +0.000 C 
ATOM      6  C   UNL     1      10.138  12.472  21.492  0.00  0.00    +0.000 C 
ATOM      7  C   UNL     1      10.324  13.891  20.991  0.00  0.00    +0.000 C 
ATOM      8  C   UNL     1       9.814  14.219  19.783  0.00  0.00    +0.000 C 
ATOM      9  C   UNL     1       9.801  15.597  19.238  0.00  0.00    +0.000 A 
ATOM     10  C   UNL     1      10.764  16.419  18.659  0.00  0.00    +0.000 A 
ATOM     11  C   UNL     1      10.379  17.643  18.050  0.00  0.00    +0.000 A 
ATOM     12  C   UNL     1       9.058  18.153  18.103  0.00  0.00    +0.000 A 
ATOM     13  C   UNL     1       8.111  17.261  18.589  0.00  0.00    +0.000 A 
ATOM     14  N   UNL     1       6.734  17.230  18.692  0.00  0.00    +0.000 N 
ATOM     15  C   UNL     1       6.316  15.910  18.557  0.00  0.00    +0.000 A 
ATOM     16  C   UNL     1       7.470  15.173  18.497  0.00  0.00    +0.000 A 
ATOM     17  C   UNL     1       8.491  16.003  18.993  0.00  0.00    +0.000 A 
ATOM     18  C   UNL     1       7.930  13.827  18.025  0.00  0.00    +0.000 C 
ATOM     19  C   UNL     1       8.774  13.218  19.181  0.00  0.00    +0.000 C 
ATOM     20  H   UNL     1       9.789   9.465  19.318  0.00  0.00    +0.000 HD
ATOM     21  H   UNL     1       6.120  18.032  18.655  0.00  0.00    +0.000 HD
ENDROOT
BRANCH   6  22
ATOM     22  C   UNL     1       8.797  12.138  22.243  0.00  0.00    +0.000 C 
ATOM     23  O   UNL     1       8.269  11.021  22.172  0.00  0.00    +0.000 OA
ATOM     24  N   UNL     1       8.252  13.117  23.030  0.00  0.00    +0.000 N 
ATOM     25  C   UNL     1       7.012  12.903  23.755  0.00  0.00    +0.000 C 
ATOM     26  C   UNL     1       6.546  14.313  24.032  0.00  0.00    +0.000 C 
ATOM     27  C   UNL     1       7.840  15.081  24.255  0.00  0.00    +0.000 C 
ATOM     28  C   UNL     1       8.883  14.341  23.429  0.00  0.00    +0.000 C 
ENDBRANCH   6  22
BRANCH   1  32
ATOM     29  C   UNL     1       7.203   6.000  17.757  0.00  0.00    +0.000 A 
ATOM     30  C   UNL     1       6.888   7.132  16.988  0.00  0.00    +0.000 A 
ATOM     31  C   UNL     1       7.415   8.380  17.314  0.00  0.00    +0.000 A 
ATOM     32  C   UNL     1       8.293   8.488  18.385  0.00  0.00    +0.000 A 
ATOM     33  C   UNL     1       8.519   7.382  19.219  0.00  0.00    +0.000 A 
ATOM     34  C   UNL     1       7.965   6.146  18.919  0.00  0.00    +0.000 A 
BRANCH  29  35
ATOM     35  C   UNL     1       6.847   4.620  17.259  0.00  0.00    +0.000 C 
BRANCH  35  37
ATOM     36  C   UNL     1       6.186   4.010  14.985  0.00  0.00    +0.000 C 
ATOM     37  N   UNL     1       5.786   4.665  16.235  0.00  0.00    +0.000 NA
ATOM     38  C   UNL     1       4.563   4.054  16.748  0.00  0.00    +0.000 C 
ENDBRANCH  35  37
ENDBRANCH  29  35
ENDBRANCH   1  32
TORSDOF 4
ENDMDL
MODEL 5
REMARK VINA RESULT:      -7.4      0.817      1.075
REMARK  Name = 
REMARK  6 active torsions:
REMARK  status: ('A' for Active; 'I' for Inactive)
REMARK    1  A    between atoms: C_1  and  N_2
REMARK    2  A    between atoms: N_2  and  C_3
REMARK    3  A    between atoms: N_2  and  C_4
REMARK    4  A    between atoms: C_4  and  C_5
REMARK    5  A    between atoms: C_8  and  N_9
REMARK    6  A    between atoms: C_14  and  C_15
REMARK                            x       y       z     vdW  Elec       q    Type
REMARK                         _______ _______ _______ _____ _____    ______ ____
ROOT
ATOM      1  N   UNL     1       0.659  10.175  20.066  0.00  0.00    +0.000 N 
ATOM      2  C   UNL     1       0.855  11.528  20.014  0.00  0.00    +0.000 C 
ATOM      3  O   UNL     1       1.853  12.053  19.538  0.00  0.00    +0.000 OA
ATOM      4  N   UNL     1      -0.257  12.275  20.444  0.00  0.00    +0.000 N 
ATOM      5  C   UNL     1      -1.493  11.629  20.962  0.00  0.00    +0.000 C 
ATOM      6  C   UNL     1      -2.814  12.346  20.626  0.00  0.00    +0.000 C 
ATOM      7  C   UNL     1      -2.652  13.811  20.985  0.00  0.00    +0.000 C 
ATOM      8  C   UNL     1      -1.451  14.396  20.781  0.00  0.00    +0.000 C 
ATOM      9  C   UNL     1      -1.197  15.845  20.954  0.00  0.00    +0.000 A 
ATOM     10  C   UNL     1      -1.013  16.671  22.060  0.00  0.00    +0.000 A 
ATOM     11  C   UNL     1      -0.587  18.014  21.880  0.00  0.00    +0.000 A 
ATOM     12  C   UNL     1      -0.452  18.619  20.605  0.00  0.00    +0.000 A 
ATOM     13  C   UNL     1      -0.536  17.740  19.534  0.00  0.00    +0.000 A 
ATOM     14  N   UNL     1      -0.330  17.812  18.169  0.00  0.00    +0.000 N 
ATOM     15  C   UNL     1       0.147  16.580  17.736  0.00  0.00    +0.000 A 
ATOM     16  C   UNL     1       0.100  15.767  18.838  0.00  0.00    +0.000 A 
ATOM     17  C   UNL     1      -0.759  16.402  19.755  0.00  0.00    +0.000 A 
ATOM     18  C   UNL     1       0.715  14.494  19.334  0.00  0.00    +0.000 C 
ATOM     19  C   UNL     1      -0.454  13.614  19.863  0.00  0.00    +0.000 C 
ATOM     20  H   UNL     1      -0.070   9.825  20.651  0.00  0.00    +0.000 HD
ATOM     21  H   UNL     1      -0.319  18.657  17.617  0.00  0.00    +0.000 HD
ENDROOT
BRANCH   6  22
ATOM     22  C   UNL     1      -3.177  12.001  19.135  0.00  0.00    +0.000 C 
ATOM     23  O   UNL     1      -2.314  11.656  18.317  0.00  0.00    +0.000 OA
ATOM     24  N   UNL     1      -4.497  12.044  18.779  0.00  0.00    +0.000 N 
ATOM     25  C   UNL     1      -4.926  11.748  17.424  0.00  0.00    +0.000 C 
ATOM     26  C   UNL     1      -6.291  12.393  17.362  0.00  0.00    +0.000 C 
ATOM     27  C   UNL     1      -6.844  12.195  18.766  0.00  0.00    +0.000 C 
ATOM     28  C   UNL     1      -5.617  12.148  19.667  0.00  0.00    +0.000 C 
ENDBRANCH   6  22
BRANCH   1  32
ATOM     29  C   UNL     1       2.977   7.185  18.290  0.00  0.00    +0.000 A 
ATOM     30  C   UNL     1       2.588   8.290  17.515  0.00  0.00    +0.000 A 
ATOM     31  C   UNL     1       1.751   9.270  18.045  0.00  0.00    +0.000 A 
ATOM     32  C   UNL     1       1.338   9.166  19.367  0.00  0.00    +0.000 A 
ATOM     33  C   UNL     1       1.633   8.010  20.104  0.00  0.00    +0.000 A 
ATOM     34  C   UNL     1       2.434   7.014  19.566  0.00  0.00    +0.000 A 
BRANCH  29  35
ATOM     35  C   UNL     1       4.077   6.270  17.810  0.00  0.00    +0.000 C 
BRANCH  35  37
ATOM     36  C   UNL     1       6.315   7.205  17.502  0.00  0.00    +0.000 C 
ATOM     37  N   UNL     1       5.004   6.962  16.894  0.00  0.00    +0.000 NA
ATOM     38  C   UNL     1       5.161   6.194  15.661  0.00  0.00    +0.000 C 
ENDBRANCH  35  37
ENDBRANCH  29  35
ENDBRANCH   1  32
TORSDOF 4
ENDMDL
MODEL 6
REMARK VINA RESULT:      -7.4      0.599      1.070
REMARK  Name = 
REMARK  6 active torsions:
REMARK  status: ('A' for Active; 'I' for Inactive)
REMARK    1  A    between atoms: C_1  and  N_2
REMARK    2  A    between atoms: N_2  and  C_3
REMARK    3  A    between atoms: N_2  and  C_4
REMARK    4  A    between atoms: C_4  and  C_5
REMARK    5  A    between atoms: C_8  and  N_9
REMARK    6  A    between atoms: C_14  and  C_15
REMARK                            x       y       z     vdW  Elec       q    Type
REMARK                         _______ _______ _______ _____ _____    ______ ____
ROOT
ATOM      1  N   UNL     1       0.382  10.206  20.648  0.00  0.00    +0.000 N 
ATOM      2  C   UNL     1       0.551  11.561  20.571  0.00  0.00    +0.000 C 
ATOM      3  O   UNL     1       1.582  12.097  20.186  0.00  0.00    +0.000 OA
ATOM      4  N   UNL     1      -0.618  12.292  20.854  0.00  0.00    +0.000 N 
ATOM      5  C   UNL     1      -1.887  11.630  21.259  0.00  0.00    +0.000 C 
ATOM      6  C   UNL     1      -3.180  12.301  20.759  0.00  0.00    +0.000 C 
ATOM      7  C   UNL     1      -3.093  13.780  21.082  0.00  0.00    +0.000 C 
ATOM      8  C   UNL     1      -1.890  14.390  20.987  0.00  0.00    +0.000 C 
ATOM      9  C   UNL     1      -1.690  15.850  21.136  0.00  0.00    +0.000 A 
ATOM     10  C   UNL     1      -1.645  16.715  22.226  0.00  0.00    +0.000 A 
ATOM     11  C   UNL     1      -1.233  18.063  22.046  0.00  0.00    +0.000 A 
ATOM     12  C   UNL     1      -0.975  18.631  20.773  0.00  0.00    +0.000 A 
ATOM     13  C   UNL     1      -0.924  17.716  19.730  0.00  0.00    +0.000 A 
ATOM     14  N   UNL     1      -0.574  17.749  18.394  0.00  0.00    +0.000 N 
ATOM     15  C   UNL     1      -0.024  16.517  18.057  0.00  0.00    +0.000 A 
ATOM     16  C   UNL     1      -0.171  15.739  19.175  0.00  0.00    +0.000 A 
ATOM     17  C   UNL     1      -1.138  16.380  19.972  0.00  0.00    +0.000 A 
ATOM     18  C   UNL     1       0.416  14.500  19.777  0.00  0.00    +0.000 C 
ATOM     19  C   UNL     1      -0.782  13.606  20.209  0.00  0.00    +0.000 C 
ATOM     20  H   UNL     1      -0.398   9.856  21.164  0.00  0.00    +0.000 HD
ATOM     21  H   UNL     1      -0.523  18.577  17.817  0.00  0.00    +0.000 HD
ENDROOT
BRANCH   6  22
ATOM     22  C   UNL     1      -3.372  11.899  19.250  0.00  0.00    +0.000 C 
ATOM     23  O   UNL     1      -2.431  11.485  18.560  0.00  0.00    +0.000 OA
ATOM     24  N   UNL     1      -4.637  11.970  18.732  0.00  0.00    +0.000 N 
ATOM     25  C   UNL     1      -4.908  11.626  17.348  0.00  0.00    +0.000 C 
ATOM     26  C   UNL     1      -6.229  12.314  17.091  0.00  0.00    +0.000 C 
ATOM     27  C   UNL     1      -6.957  12.202  18.423  0.00  0.00    +0.000 C 
ATOM     28  C   UNL     1      -5.852  12.155  19.470  0.00  0.00    +0.000 C 
ENDBRANCH   6  22
BRANCH   1  32
ATOM     29  C   UNL     1       2.371   7.144  18.616  0.00  0.00    +0.000 A 
ATOM     30  C   UNL     1       2.200   7.034  20.006  0.00  0.00    +0.000 A 
ATOM     31  C   UNL     1       1.612   8.067  20.733  0.00  0.00    +0.000 A 
ATOM     32  C   UNL     1       1.155   9.194  20.062  0.00  0.00    +0.000 A 
ATOM     33  C   UNL     1       1.426   9.353  18.695  0.00  0.00    +0.000 A 
ATOM     34  C   UNL     1       2.046   8.342  17.975  0.00  0.00    +0.000 A 
BRANCH  29  35
ATOM     35  C   UNL     1       2.764   5.936  17.801  0.00  0.00    +0.000 C 
BRANCH  35  37
ATOM     36  C   UNL     1       1.470   3.887  18.128  0.00  0.00    +0.000 C 
ATOM     37  N   UNL     1       2.618   4.685  18.570  0.00  0.00    +0.000 NA
ATOM     38  C   UNL     1       3.840   3.892  18.480  0.00  0.00    +0.000 C 
ENDBRANCH  35  37
ENDBRANCH  29  35
ENDBRANCH   1  32
TORSDOF 4
ENDMDL
MODEL 7
REMARK VINA RESULT:      -7.3      3.824     11.220
REMARK  Name = 
REMARK  6 active torsions:
REMARK  status: ('A' for Active; 'I' for Inactive)
REMARK    1  A    between atoms: C_1  and  N_2
REMARK    2  A    between atoms: N_2  and  C_3
REMARK    3  A    between atoms: N_2  and  C_4
REMARK    4  A    between atoms: C_4  and  C_5
REMARK    5  A    between atoms: C_8  and  N_9
REMARK    6  A    between atoms: C_14  and  C_15
REMARK                            x       y       z     vdW  Elec       q    Type
REMARK                         _______ _______ _______ _____ _____    ______ ____
ROOT
ATOM      1  N   UNL     1       1.053   7.958  18.981  0.00  0.00    +0.000 N 
ATOM      2  C   UNL     1       2.263   7.729  18.384  0.00  0.00    +0.000 C 
ATOM      3  O   UNL     1       3.202   8.512  18.429  0.00  0.00    +0.000 OA
ATOM      4  N   UNL     1       2.378   6.446  17.816  0.00  0.00    +0.000 N 
ATOM      5  C   UNL     1       1.253   5.474  17.822  0.00  0.00    +0.000 C 
ATOM      6  C   UNL     1       1.649   3.993  17.970  0.00  0.00    +0.000 C 
ATOM      7  C   UNL     1       2.748   3.702  16.966  0.00  0.00    +0.000 C 
ATOM      8  C   UNL     1       3.664   4.664  16.718  0.00  0.00    +0.000 C 
ATOM      9  C   UNL     1       4.864   4.464  15.871  0.00  0.00    +0.000 A 
ATOM     10  C   UNL     1       5.080   4.400  14.498  0.00  0.00    +0.000 A 
ATOM     11  C   UNL     1       6.406   4.392  13.987  0.00  0.00    +0.000 A 
ATOM     12  C   UNL     1       7.554   4.320  14.816  0.00  0.00    +0.000 A 
ATOM     13  C   UNL     1       7.304   4.497  16.170  0.00  0.00    +0.000 A 
ATOM     14  N   UNL     1       8.068   4.655  17.311  0.00  0.00    +0.000 N 
ATOM     15  C   UNL     1       7.375   5.481  18.188  0.00  0.00    +0.000 A 
ATOM     16  C   UNL     1       6.159   5.698  17.593  0.00  0.00    +0.000 A 
ATOM     17  C   UNL     1       6.019   4.697  16.615  0.00  0.00    +0.000 A 
ATOM     18  C   UNL     1       5.028   6.679  17.653  0.00  0.00    +0.000 C 
ATOM     19  C   UNL     1       3.720   5.842  17.745  0.00  0.00    +0.000 C 
ATOM     20  H   UNL     1       0.283   7.377  18.723  0.00  0.00    +0.000 HD
ATOM     21  H   UNL     1       9.040   4.400  17.411  0.00  0.00    +0.000 HD
ENDROOT
BRANCH   6  22
ATOM     22  C   UNL     1       1.968   3.736  19.489  0.00  0.00    +0.000 C 
ATOM     23  O   UNL     1       1.351   4.315  20.393  0.00  0.00    +0.000 OA
ATOM     24  N   UNL     1       2.924   2.803  19.785  0.00  0.00    +0.000 N 
ATOM     25  C   UNL     1       3.290   2.504  21.158  0.00  0.00    +0.000 C 
ATOM     26  C   UNL     1       4.650   1.862  21.004  0.00  0.00    +0.000 C 
ATOM     27  C   UNL     1       4.537   1.093  19.696  0.00  0.00    +0.000 C 
ATOM     28  C   UNL     1       3.512   1.865  18.875  0.00  0.00    +0.000 C 
ENDBRANCH   6  22
BRANCH   1  32
ATOM     29  C   UNL     1      -0.201  10.497  22.053  0.00  0.00    +0.000 A 
ATOM     30  C   UNL     1      -0.183  10.986  20.736  0.00  0.00    +0.000 A 
ATOM     31  C   UNL     1       0.301  10.198  19.693  0.00  0.00    +0.000 A 
ATOM     32  C   UNL     1       0.728   8.904  19.962  0.00  0.00    +0.000 A 
ATOM     33  C   UNL     1       0.815   8.457  21.289  0.00  0.00    +0.000 A 
ATOM     34  C   UNL     1       0.370   9.253  22.334  0.00  0.00    +0.000 A 
BRANCH  29  35
ATOM     35  C   UNL     1      -0.956  11.240  23.128  0.00  0.00    +0.000 C 
BRANCH  35  37
ATOM     36  C   UNL     1      -3.076  12.412  22.796  0.00  0.00    +0.000 C 
ATOM     37  N   UNL     1      -1.624  12.443  22.597  0.00  0.00    +0.000 NA
ATOM     38  C   UNL     1      -1.063  13.644  23.211  0.00  0.00    +0.000 C 
ENDBRANCH  35  37
ENDBRANCH  29  35
ENDBRANCH   1  32
TORSDOF 4
ENDMDL
MODEL 8
REMARK VINA RESULT:      -7.3      2.478      5.376
REMARK  Name = 
REMARK  6 active torsions:
REMARK  status: ('A' for Active; 'I' for Inactive)
REMARK    1  A    between atoms: C_1  and  N_2
REMARK    2  A    between atoms: N_2  and  C_3
REMARK    3  A    between atoms: N_2  and  C_4
REMARK    4  A    between atoms: C_4  and  C_5
REMARK    5  A    between atoms: C_8  and  N_9
REMARK    6  A    between atoms: C_14  and  C_15
REMARK                            x       y       z     vdW  Elec       q    Type
REMARK                         _______ _______ _______ _____ _____    ______ ____
ROOT
ATOM      1  N   UNL     1       0.535  11.064  19.010  0.00  0.00    +0.000 N 
ATOM      2  C   UNL     1      -0.589  11.412  19.707  0.00  0.00    +0.000 C 
ATOM      3  O   UNL     1      -1.317  10.605  20.270  0.00  0.00    +0.000 OA
ATOM      4  N   UNL     1      -0.769  12.802  19.829  0.00  0.00    +0.000 N 
ATOM      5  C   UNL     1       0.157  13.779  19.195  0.00  0.00    +0.000 C 
ATOM      6  C   UNL     1       0.399  15.080  19.984  0.00  0.00    +0.000 C 
ATOM      7  C   UNL     1      -0.952  15.639  20.386  0.00  0.00    +0.000 C 
ATOM      8  C   UNL     1      -1.933  14.773  20.724  0.00  0.00    +0.000 C 
ATOM      9  C   UNL     1      -3.248  15.184  21.268  0.00  0.00    +0.000 A 
ATOM     10  C   UNL     1      -4.403  15.722  20.708  0.00  0.00    +0.000 A 
ATOM     11  C   UNL     1      -5.588  15.826  21.485  0.00  0.00    +0.000 A 
ATOM     12  C   UNL     1      -5.635  15.522  22.869  0.00  0.00    +0.000 A 
ATOM     13  C   UNL     1      -4.502  14.889  23.363  0.00  0.00    +0.000 A 
ATOM     14  N   UNL     1      -4.138  14.284  24.550  0.00  0.00    +0.000 N 
ATOM     15  C   UNL     1      -3.262  13.245  24.259  0.00  0.00    +0.000 A 
ATOM     16  C   UNL     1      -3.033  13.335  22.910  0.00  0.00    +0.000 A 
ATOM     17  C   UNL     1      -3.440  14.627  22.530  0.00  0.00    +0.000 A 
ATOM     18  C   UNL     1      -2.550  12.473  21.784  0.00  0.00    +0.000 C 
ATOM     19  C   UNL     1      -1.482  13.304  21.017  0.00  0.00    +0.000 C 
ATOM     20  H   UNL     1       0.950  11.747  18.411  0.00  0.00    +0.000 HD
ATOM     21  H   UNL     1      -4.586  14.422  25.445  0.00  0.00    +0.000 HD
ENDROOT
BRANCH   6  22
ATOM     22  C   UNL     1       1.421  14.754  21.135  0.00  0.00    +0.000 C 
ATOM     23  O   UNL     1       1.048  14.343  22.241  0.00  0.00    +0.000 OA
ATOM     24  N   UNL     1       2.753  14.890  20.854  0.00  0.00    +0.000 N 
ATOM     25  C   UNL     1       3.769  14.620  21.856  0.00  0.00    +0.000 C 
ATOM     26  C   UNL     1       4.970  15.361  21.316  0.00  0.00    +0.000 C 
ATOM     27  C   UNL     1       4.835  15.211  19.808  0.00  0.00    +0.000 C 
ATOM     28  C   UNL     1       3.338  15.079  19.559  0.00  0.00    +0.000 C 
ENDBRANCH   6  22
BRANCH   1  32
ATOM     29  C   UNL     1       2.397   7.332  18.755  0.00  0.00    +0.000 A 
ATOM     30  C   UNL     1       1.864   7.738  19.988  0.00  0.00    +0.000 A 
ATOM     31  C   UNL     1       1.303   9.006  20.137  0.00  0.00    +0.000 A 
ATOM     32  C   UNL     1       1.239   9.852  19.036  0.00  0.00    +0.000 A 
ATOM     33  C   UNL     1       1.871   9.491  17.837  0.00  0.00    +0.000 A 
ATOM     34  C   UNL     1       2.464   8.245  17.698  0.00  0.00    +0.000 A 
BRANCH  29  35
ATOM     35  C   UNL     1       2.764   5.886  18.524  0.00  0.00    +0.000 C 
BRANCH  35  37
ATOM     36  C   UNL     1       3.034   4.042  20.107  0.00  0.00    +0.000 C 
ATOM     37  N   UNL     1       3.548   5.335  19.646  0.00  0.00    +0.000 NA
ATOM     38  C   UNL     1       4.952   5.204  19.263  0.00  0.00    +0.000 C 
ENDBRANCH  35  37
ENDBRANCH  29  35
ENDBRANCH   1  32
TORSDOF 4
ENDMDL
MODEL 9
REMARK VINA RESULT:      -7.2      2.610      5.226
REMARK  Name = 
REMARK  6 active torsions:
REMARK  status: ('A' for Active; 'I' for Inactive)
REMARK    1  A    between atoms: C_1  and  N_2
REMARK    2  A    between atoms: N_2  and  C_3
REMARK    3  A    between atoms: N_2  and  C_4
REMARK    4  A    between atoms: C_4  and  C_5
REMARK    5  A    between atoms: C_8  and  N_9
REMARK    6  A    between atoms: C_14  and  C_15
REMARK                            x       y       z     vdW  Elec       q    Type
REMARK                         _______ _______ _______ _____ _____    ______ ____
ROOT
ATOM      1  N   UNL     1       0.440  10.958  19.145  0.00  0.00    +0.000 N 
ATOM      2  C   UNL     1      -0.476  11.545  19.975  0.00  0.00    +0.000 C 
ATOM      3  O   UNL     1      -1.043  10.956  20.886  0.00  0.00    +0.000 OA
ATOM      4  N   UNL     1      -0.616  12.930  19.769  0.00  0.00    +0.000 N 
ATOM      5  C   UNL     1       0.126  13.651  18.701  0.00  0.00    +0.000 C 
ATOM      6  C   UNL     1       0.560  15.089  19.043  0.00  0.00    +0.000 C 
ATOM      7  C   UNL     1      -0.648  15.821  19.596  0.00  0.00    +0.000 C 
ATOM      8  C   UNL     1      -1.517  15.135  20.371  0.00  0.00    +0.000 C 
ATOM      9  C   UNL     1      -2.655  15.758  21.087  0.00  0.00    +0.000 A 
ATOM     10  C   UNL     1      -3.912  16.213  20.698  0.00  0.00    +0.000 A 
ATOM     11  C   UNL     1      -4.866  16.589  21.681  0.00  0.00    +0.000 A 
ATOM     12  C   UNL     1      -4.570  16.647  23.066  0.00  0.00    +0.000 A 
ATOM     13  C   UNL     1      -3.352  16.084  23.423  0.00  0.00    +0.000 A 
ATOM     14  N   UNL     1      -2.707  15.774  24.604  0.00  0.00    +0.000 N 
ATOM     15  C   UNL     1      -1.932  14.639  24.393  0.00  0.00    +0.000 A 
ATOM     16  C   UNL     1      -2.044  14.371  23.054  0.00  0.00    +0.000 A 
ATOM     17  C   UNL     1      -2.530  15.550  22.459  0.00  0.00    +0.000 A 
ATOM     18  C   UNL     1      -1.858  13.223  22.110  0.00  0.00    +0.000 C 
ATOM     19  C   UNL     1      -1.011  13.760  20.920  0.00  0.00    +0.000 C 
ATOM     20  H   UNL     1       0.695  11.438  18.308  0.00  0.00    +0.000 HD
ATOM     21  H   UNL     1      -2.918  16.163  25.512  0.00  0.00    +0.000 HD
ENDROOT
BRANCH   6  22
ATOM     22  C   UNL     1       1.834  14.996  19.960  0.00  0.00    +0.000 C 
ATOM     23  O   UNL     1       1.746  14.859  21.187  0.00  0.00    +0.000 OA
ATOM     24  N   UNL     1       3.057  15.018  19.347  0.00  0.00    +0.000 N 
ATOM     25  C   UNL     1       4.289  14.945  20.113  0.00  0.00    +0.000 C 
ATOM     26  C   UNL     1       5.310  15.502  19.149  0.00  0.00    +0.000 C 
ATOM     27  C   UNL     1       4.821  15.020  17.791  0.00  0.00    +0.000 C 
ATOM     28  C   UNL     1       3.311  14.889  17.943  0.00  0.00    +0.000 C 
ENDBRANCH   6  22
BRANCH   1  32
ATOM     29  C   UNL     1       2.246   7.194  19.340  0.00  0.00    +0.000 A 
ATOM     30  C   UNL     1       1.715   7.752  20.515  0.00  0.00    +0.000 A 
ATOM     31  C   UNL     1       1.174   9.036  20.510  0.00  0.00    +0.000 A 
ATOM     32  C   UNL     1       1.125   9.747  19.318  0.00  0.00    +0.000 A 
ATOM     33  C   UNL     1       1.755   9.238  18.172  0.00  0.00    +0.000 A 
ATOM     34  C   UNL     1       2.329   7.975  18.184  0.00  0.00    +0.000 A 
BRANCH  29  35
ATOM     35  C   UNL     1       2.590   5.726  19.284  0.00  0.00    +0.000 C 
BRANCH  35  37
ATOM     36  C   UNL     1       3.873   4.674  17.488  0.00  0.00    +0.000 C 
ATOM     37  N   UNL     1       2.574   5.213  17.901  0.00  0.00    +0.000 NA
ATOM     38  C   UNL     1       1.542   4.190  17.755  0.00  0.00    +0.000 C 
ENDBRANCH  35  37
ENDBRANCH  29  35
ENDBRANCH   1  32
TORSDOF 4
ENDMDL
