MODEL 1
REMARK VINA RESULT:      -8.2      0.000      0.000
REMARK  Name = 
REMARK  11 active torsions:
REMARK  status: ('A' for Active; 'I' for Inactive)
REMARK    1  A    between atoms: C_1  and  C_2
REMARK    2  A    between atoms: C_2  and  C_3
REMARK    3  A    between atoms: C_5  and  O_6
REMARK    4  A    between atoms: C_7  and  C_8
REMARK    5  A    between atoms: C_8  and  N_10
REMARK    6  A    between atoms: N_10  and  C_11
REMARK    7  A    between atoms: N_18  and  C_19
REMARK    8  A    between atoms: C_21  and  C_22
REMARK    9  A    between atoms: C_21  and  C_23
REMARK   10  A    between atoms: C_25  and  C_26
REMARK   11  A    between atoms: C_25  and  C_27
REMARK                            x       y       z     vdW  Elec       q    Type
REMARK                         _______ _______ _______ _____ _____    ______ ____
ROOT
ATOM      1  C   UNL     1       0.472   2.874  19.384  0.00  0.00    +0.000 C 
ATOM      2  C   UNL     1       1.728   3.441  20.085  0.00  0.00    +0.000 C 
ATOM      3  C   UNL     1       1.542   3.238  21.606  0.00  0.00    +0.000 C 
ATOM      4  C   UNL     1       2.957   2.662  19.619  0.00  0.00    +0.000 C 
ATOM      5  C   UNL     1       4.179   3.435  19.220  0.00  0.00    +0.000 C 
ATOM      6  C   UNL     1       4.305   4.782  19.126  0.00  0.00    +0.000 C 
ATOM      7  C   UNL     1       3.089   5.640  19.456  0.00  0.00    +0.000 C 
ATOM      8  N   UNL     1       3.118   6.939  19.416  0.00  0.00    +0.000 NA
ATOM      9  C   UNL     1       1.771   4.930  19.758  0.00  0.00    +0.000 C 
ENDROOT
BRANCH   8  10
ATOM     10  C   UNL     1       1.877   7.756  19.624  0.00  0.00    +0.000 C 
ATOM     11  C   UNL     1       2.005   9.081  18.854  0.00  0.00    +0.000 C 
ATOM     12  C   UNL     1       0.869  10.098  19.156  0.00  0.00    +0.000 C 
ATOM     13  C   UNL     1       1.328  11.498  18.698  0.00  0.00    +0.000 C 
ATOM     14  C   UNL     1      -0.415   9.781  18.365  0.00  0.00    +0.000 C 
ATOM     15  N   UNL     1       0.601  10.237  20.592  0.00  0.00    +0.000 NA
ATOM     16  C   UNL     1       0.517   9.031  21.413  0.00  0.00    +0.000 C 
ATOM     17  C   UNL     1       0.662   9.508  22.876  0.00  0.00    +0.000 C 
ATOM     18  C   UNL     1      -0.863   8.355  21.311  0.00  0.00    +0.000 C 
ATOM     19  C   UNL     1       1.679   8.052  21.116  0.00  0.00    +0.000 C 
ATOM     20  H   UNL     1      -0.196  10.852  20.756  0.00  0.00    +0.000 HD
ENDBRANCH   8  10
BRANCH   5  21
ATOM     21  O   UNL     1       5.247   2.588  18.947  0.00  0.00    +0.000 OA
ATOM     22  H   UNL     1       6.070   2.943  19.329  0.00  0.00    +0.000 HD
ENDBRANCH   5  21
BRANCH   6  23
ATOM     23  C   UNL     1       5.600   5.381  18.559  0.00  0.00    +0.000 C 
ATOM     24  S   UNL     1       7.066   5.502  19.432  0.00  0.00    +0.000 S 
BRANCH  23  25
ATOM     25  N   UNL     1       5.467   5.892  17.269  0.00  0.00    +0.000 N 
ATOM     26  H   UNL     1       4.968   6.773  17.161  0.00  0.00    +0.000 HD
BRANCH  25  27
ATOM     27  C   UNL     1       5.819   5.259  16.048  0.00  0.00    +0.000 A 
ATOM     28  C   UNL     1       4.885   4.484  15.326  0.00  0.00    +0.000 A 
ATOM     29  C   UNL     1       5.223   3.914  14.099  0.00  0.00    +0.000 A 
ATOM     30  C   UNL     1       6.486   4.115  13.570  0.00  0.00    +0.000 A 
ATOM     31  C   UNL     1       7.418   4.891  14.259  0.00  0.00    +0.000 A 
ATOM     32  C   UNL     1       7.073   5.469  15.493  0.00  0.00    +0.000 A 
ENDBRANCH  25  27
ENDBRANCH  23  25
ENDBRANCH   6  23
TORSDOF 5
ENDMDL
MODEL 2
REMARK VINA RESULT:      -8.0      1.196      1.332
REMARK  Name = 
REMARK  11 active torsions:
REMARK  status: ('A' for Active; 'I' for Inactive)
REMARK    1  A    between atoms: C_1  and  C_2
REMARK    2  A    between atoms: C_2  and  C_3
REMARK    3  A    between atoms: C_5  and  O_6
REMARK    4  A    between atoms: C_7  and  C_8
REMARK    5  A    between atoms: C_8  and  N_10
REMARK    6  A    between atoms: N_10  and  C_11
REMARK    7  A    between atoms: N_18  and  C_19
REMARK    8  A    between atoms: C_21  and  C_22
REMARK    9  A    between atoms: C_21  and  C_23
REMARK   10  A    between atoms: C_25  and  C_26
REMARK   11  A    between atoms: C_25  and  C_27
REMARK                            x       y       z     vdW  Elec       q    Type
REMARK                         _______ _______ _______ _____ _____    ______ ____
ROOT
ATOM      1  C   UNL     1       0.680   2.995  18.451  0.00  0.00    +0.000 C 
ATOM      2  C   UNL     1       2.044   3.561  18.908  0.00  0.00    +0.000 C 
ATOM      3  C   UNL     1       2.206   3.227  20.409  0.00  0.00    +0.000 C 
ATOM      4  C   UNL     1       3.160   2.879  18.118  0.00  0.00    +0.000 C 
ATOM      5  C   UNL     1       4.243   3.735  17.532  0.00  0.00    +0.000 C 
ATOM      6  C   UNL     1       4.309   5.090  17.533  0.00  0.00    +0.000 C 
ATOM      7  C   UNL     1       3.174   5.862  18.195  0.00  0.00    +0.000 C 
ATOM      8  N   UNL     1       3.159   7.160  18.265  0.00  0.00    +0.000 NA
ATOM      9  C   UNL     1       1.975   5.072  18.713  0.00  0.00    +0.000 C 
ENDROOT
BRANCH   8  10
ATOM     10  C   UNL     1       1.973   7.900  18.809  0.00  0.00    +0.000 C 
ATOM     11  C   UNL     1       1.947   9.322  18.222  0.00  0.00    +0.000 C 
ATOM     12  C   UNL     1       0.881  10.250  18.867  0.00  0.00    +0.000 C 
ATOM     13  C   UNL     1       1.237  11.714  18.533  0.00  0.00    +0.000 C 
ATOM     14  C   UNL     1      -0.527  10.003  18.291  0.00  0.00    +0.000 C 
ATOM     15  N   UNL     1       0.885  10.184  20.334  0.00  0.00    +0.000 NA
ATOM     16  C   UNL     1       0.964   8.876  20.980  0.00  0.00    +0.000 C 
ATOM     17  C   UNL     1       1.377   9.153  22.443  0.00  0.00    +0.000 C 
ATOM     18  C   UNL     1      -0.407   8.176  21.040  0.00  0.00    +0.000 C 
ATOM     19  C   UNL     1       2.056   7.985  20.340  0.00  0.00    +0.000 C 
ATOM     20  H   UNL     1       0.128  10.744  20.726  0.00  0.00    +0.000 HD
ENDBRANCH   8  10
BRANCH   5  21
ATOM     21  O   UNL     1       5.246   2.962  16.959  0.00  0.00    +0.000 OA
ATOM     22  H   UNL     1       5.325   2.109  17.422  0.00  0.00    +0.000 HD
ENDBRANCH   5  21
BRANCH   6  23
ATOM     23  C   UNL     1       5.430   5.790  16.752  0.00  0.00    +0.000 C 
ATOM     24  S   UNL     1       6.812   6.493  17.476  0.00  0.00    +0.000 S 
BRANCH  23  25
ATOM     25  N   UNL     1       5.197   5.871  15.381  0.00  0.00    +0.000 N 
ATOM     26  H   UNL     1       4.433   6.468  15.067  0.00  0.00    +0.000 HD
BRANCH  25  27
ATOM     27  C   UNL     1       5.804   5.103  14.353  0.00  0.00    +0.000 A 
ATOM     28  C   UNL     1       5.097   4.082  13.682  0.00  0.00    +0.000 A 
ATOM     29  C   UNL     1       5.684   3.371  12.635  0.00  0.00    +0.000 A 
ATOM     30  C   UNL     1       6.974   3.673  12.236  0.00  0.00    +0.000 A 
ATOM     31  C   UNL     1       7.685   4.689  12.875  0.00  0.00    +0.000 A 
ATOM     32  C   UNL     1       7.089   5.408  13.925  0.00  0.00    +0.000 A 
ENDBRANCH  25  27
ENDBRANCH  23  25
ENDBRANCH   6  23
TORSDOF 5
ENDMDL
MODEL 3
REMARK VINA RESULT:      -7.8      1.830      2.460
REMARK  Name = 
REMARK  11 active torsions:
REMARK  status: ('A' for Active; 'I' for Inactive)
REMARK    1  A    between atoms: C_1  and  C_2
REMARK    2  A    between atoms: C_2  and  C_3
REMARK    3  A    between atoms: C_5  and  O_6
REMARK    4  A    between atoms: C_7  and  C_8
REMARK    5  A    between atoms: C_8  and  N_10
REMARK    6  A    between atoms: N_10  and  C_11
REMARK    7  A    between atoms: N_18  and  C_19
REMARK    8  A    between atoms: C_21  and  C_22
REMARK    9  A    between atoms: C_21  and  C_23
REMARK   10  A    between atoms: C_25  and  C_26
REMARK   11  A    between atoms: C_25  and  C_27
REMARK                            x       y       z     vdW  Elec       q    Type
REMARK                         _______ _______ _______ _____ _____    ______ ____
ROOT
ATOM      1  C   UNL     1      -0.023   2.605  19.402  0.00  0.00    +0.000 C 
ATOM      2  C   UNL     1       1.408   3.025  19.806  0.00  0.00    +0.000 C 
ATOM      3  C   UNL     1       1.498   2.944  21.347  0.00  0.00    +0.000 C 
ATOM      4  C   UNL     1       2.411   2.049  19.191  0.00  0.00    +0.000 C 
ATOM      5  C   UNL     1       3.622   2.609  18.507  0.00  0.00    +0.000 C 
ATOM      6  C   UNL     1       3.902   3.916  18.274  0.00  0.00    +0.000 C 
ATOM      7  C   UNL     1       2.897   4.960  18.747  0.00  0.00    +0.000 C 
ATOM      8  N   UNL     1       3.087   6.236  18.588  0.00  0.00    +0.000 NA
ATOM      9  C   UNL     1       1.582   4.469  19.348  0.00  0.00    +0.000 C 
ENDROOT
BRANCH   8  10
ATOM     10  C   UNL     1       2.028   7.236  18.948  0.00  0.00    +0.000 C 
ATOM     11  C   UNL     1       2.264   8.534  18.158  0.00  0.00    +0.000 C 
ATOM     12  C   UNL     1       1.351   9.713  18.597  0.00  0.00    +0.000 C 
ATOM     13  C   UNL     1       1.963  11.029  18.072  0.00  0.00    +0.000 C 
ATOM     14  C   UNL     1      -0.059   9.613  17.983  0.00  0.00    +0.000 C 
ATOM     15  N   UNL     1       1.298   9.874  20.055  0.00  0.00    +0.000 NA
ATOM     16  C   UNL     1       1.131   8.687  20.890  0.00  0.00    +0.000 C 
ATOM     17  C   UNL     1       1.538   9.116  22.317  0.00  0.00    +0.000 C 
ATOM     18  C   UNL     1      -0.340   8.239  20.973  0.00  0.00    +0.000 C 
ATOM     19  C   UNL     1       2.075   7.541  20.452  0.00  0.00    +0.000 C 
ATOM     20  H   UNL     1       0.635  10.605  20.315  0.00  0.00    +0.000 HD
ENDBRANCH   8  10
BRANCH   5  21
ATOM     21  O   UNL     1       4.496   1.601  18.118  0.00  0.00    +0.000 OA
ATOM     22  H   UNL     1       5.251   1.975  17.629  0.00  0.00    +0.000 HD
ENDBRANCH   5  21
BRANCH   6  23
ATOM     23  C   UNL     1       5.129   4.284  17.427  0.00  0.00    +0.000 C 
ATOM     24  S   UNL     1       5.223   4.081  15.732  0.00  0.00    +0.000 S 
BRANCH  23  25
ATOM     25  N   UNL     1       6.211   4.746  18.175  0.00  0.00    +0.000 N 
ATOM     26  H   UNL     1       6.524   4.171  18.954  0.00  0.00    +0.000 HD
BRANCH  25  27
ATOM     27  C   UNL     1       6.853   6.008  18.077  0.00  0.00    +0.000 A 
ATOM     28  C   UNL     1       6.365   7.017  17.219  0.00  0.00    +0.000 A 
ATOM     29  C   UNL     1       6.970   8.274  17.173  0.00  0.00    +0.000 A 
ATOM     30  C   UNL     1       8.056   8.546  17.986  0.00  0.00    +0.000 A 
ATOM     31  C   UNL     1       8.543   7.569  18.853  0.00  0.00    +0.000 A 
ATOM     32  C   UNL     1       7.929   6.305  18.902  0.00  0.00    +0.000 A 
ENDBRANCH  25  27
ENDBRANCH  23  25
ENDBRANCH   6  23
TORSDOF 5
ENDMDL
MODEL 4
REMARK VINA RESULT:      -7.5      1.935      2.699
REMARK  Name = 
REMARK  11 active torsions:
REMARK  status: ('A' for Active; 'I' for Inactive)
REMARK    1  A    between atoms: C_1  and  C_2
REMARK    2  A    between atoms: C_2  and  C_3
REMARK    3  A    between atoms: C_5  and  O_6
REMARK    4  A    between atoms: C_7  and  C_8
REMARK    5  A    between atoms: C_8  and  N_10
REMARK    6  A    between atoms: N_10  and  C_11
REMARK    7  A    between atoms: N_18  and  C_19
REMARK    8  A    between atoms: C_21  and  C_22
REMARK    9  A    between atoms: C_21  and  C_23
REMARK   10  A    between atoms: C_25  and  C_26
REMARK   11  A    between atoms: C_25  and  C_27
REMARK                            x       y       z     vdW  Elec       q    Type
REMARK                         _______ _______ _______ _____ _____    ______ ____
ROOT
ATOM      1  C   UNL     1       0.683   2.918  19.374  0.00  0.00    +0.000 C 
ATOM      2  C   UNL     1       2.084   3.569  19.434  0.00  0.00    +0.000 C 
ATOM      3  C   UNL     1       2.566   3.498  20.901  0.00  0.00    +0.000 C 
ATOM      4  C   UNL     1       3.044   2.774  18.549  0.00  0.00    +0.000 C 
ATOM      5  C   UNL     1       3.942   3.529  17.616  0.00  0.00    +0.000 C 
ATOM      6  C   UNL     1       3.943   4.865  17.379  0.00  0.00    +0.000 C 
ATOM      7  C   UNL     1       2.934   5.727  18.129  0.00  0.00    +0.000 C 
ATOM      8  N   UNL     1       2.873   7.017  17.986  0.00  0.00    +0.000 NA
ATOM      9  C   UNL     1       1.906   5.023  19.012  0.00  0.00    +0.000 C 
ENDROOT
BRANCH   8  10
ATOM     10  C   UNL     1       1.792   7.826  18.639  0.00  0.00    +0.000 C 
ATOM     11  C   UNL     1       1.820   9.259  18.079  0.00  0.00    +0.000 C 
ATOM     12  C   UNL     1       0.879  10.245  18.825  0.00  0.00    +0.000 C 
ATOM     13  C   UNL     1       1.311  11.688  18.486  0.00  0.00    +0.000 C 
ATOM     14  C   UNL     1      -0.585  10.110  18.363  0.00  0.00    +0.000 C 
ATOM     15  N   UNL     1       0.998  10.146  20.285  0.00  0.00    +0.000 NA
ATOM     16  C   UNL     1       1.035   8.822  20.901  0.00  0.00    +0.000 C 
ATOM     17  C   UNL     1       1.584   9.037  22.329  0.00  0.00    +0.000 C 
ATOM     18  C   UNL     1      -0.374   8.218  21.062  0.00  0.00    +0.000 C 
ATOM     19  C   UNL     1       2.004   7.871  20.158  0.00  0.00    +0.000 C 
ATOM     20  H   UNL     1       0.317  10.750  20.747  0.00  0.00    +0.000 HD
ENDBRANCH   8  10
BRANCH   5  21
ATOM     21  O   UNL     1       4.841   2.681  16.980  0.00  0.00    +0.000 OA
ATOM     22  H   UNL     1       5.237   2.063  17.620  0.00  0.00    +0.000 HD
ENDBRANCH   5  21
BRANCH   6  23
ATOM     23  C   UNL     1       4.846   5.434  16.276  0.00  0.00    +0.000 C 
ATOM     24  S   UNL     1       5.291   4.581  14.861  0.00  0.00    +0.000 S 
BRANCH  23  25
ATOM     25  N   UNL     1       5.342   6.706  16.554  0.00  0.00    +0.000 N 
ATOM     26  H   UNL     1       4.915   7.495  16.072  0.00  0.00    +0.000 HD
BRANCH  25  27
ATOM     27  C   UNL     1       6.485   7.038  17.328  0.00  0.00    +0.000 A 
ATOM     28  C   UNL     1       7.064   8.324  17.272  0.00  0.00    +0.000 A 
ATOM     29  C   UNL     1       8.152   8.657  18.079  0.00  0.00    +0.000 A 
ATOM     30  C   UNL     1       8.669   7.722  18.959  0.00  0.00    +0.000 A 
ATOM     31  C   UNL     1       8.102   6.452  19.042  0.00  0.00    +0.000 A 
ATOM     32  C   UNL     1       7.002   6.119  18.232  0.00  0.00    +0.000 A 
ENDBRANCH  25  27
ENDBRANCH  23  25
ENDBRANCH   6  23
TORSDOF 5
ENDMDL
MODEL 5
REMARK VINA RESULT:      -7.4      5.862      9.333
REMARK  Name = 
REMARK  11 active torsions:
REMARK  status: ('A' for Active; 'I' for Inactive)
REMARK    1  A    between atoms: C_1  and  C_2
REMARK    2  A    between atoms: C_2  and  C_3
REMARK    3  A    between atoms: C_5  and  O_6
REMARK    4  A    between atoms: C_7  and  C_8
REMARK    5  A    between atoms: C_8  and  N_10
REMARK    6  A    between atoms: N_10  and  C_11
REMARK    7  A    between atoms: N_18  and  C_19
REMARK    8  A    between atoms: C_21  and  C_22
REMARK    9  A    between atoms: C_21  and  C_23
REMARK   10  A    between atoms: C_25  and  C_26
REMARK   11  A    between atoms: C_25  and  C_27
REMARK                            x       y       z     vdW  Elec       q    Type
REMARK                         _______ _______ _______ _____ _____    ______ ____
ROOT
ATOM      1  C   UNL     1      -6.594  12.426  17.308  0.00  0.00    +0.000 C 
ATOM      2  C   UNL     1      -5.484  11.556  17.944  0.00  0.00    +0.000 C 
ATOM      3  C   UNL     1      -6.155  10.278  18.494  0.00  0.00    +0.000 C 
ATOM      4  C   UNL     1      -4.471  11.170  16.867  0.00  0.00    +0.000 C 
ATOM      5  C   UNL     1      -3.011  11.313  17.179  0.00  0.00    +0.000 C 
ATOM      6  C   UNL     1      -2.460  11.849  18.297  0.00  0.00    +0.000 C 
ATOM      7  C   UNL     1      -3.397  12.373  19.378  0.00  0.00    +0.000 C 
ATOM      8  N   UNL     1      -2.964  12.884  20.493  0.00  0.00    +0.000 NA
ATOM      9  C   UNL     1      -4.897  12.373  19.090  0.00  0.00    +0.000 C 
ENDROOT
BRANCH   8  10
ATOM     10  C   UNL     1      -3.901  13.505  21.485  0.00  0.00    +0.000 C 
ATOM     11  C   UNL     1      -3.333  14.860  21.942  0.00  0.00    +0.000 C 
ATOM     12  C   UNL     1      -4.113  15.505  23.120  0.00  0.00    +0.000 C 
ATOM     13  C   UNL     1      -3.223  16.589  23.764  0.00  0.00    +0.000 C 
ATOM     14  C   UNL     1      -5.393  16.220  22.644  0.00  0.00    +0.000 C 
ATOM     15  N   UNL     1      -4.394  14.553  24.201  0.00  0.00    +0.000 NA
ATOM     16  C   UNL     1      -4.886  13.221  23.857  0.00  0.00    +0.000 C 
ATOM     17  C   UNL     1      -4.672  12.355  25.119  0.00  0.00    +0.000 C 
ATOM     18  C   UNL     1      -6.401  13.216  23.578  0.00  0.00    +0.000 C 
ATOM     19  C   UNL     1      -4.070  12.589  22.704  0.00  0.00    +0.000 C 
ATOM     20  H   UNL     1      -4.971  14.984  24.925  0.00  0.00    +0.000 HD
ENDBRANCH   8  10
BRANCH   5  21
ATOM     21  O   UNL     1      -2.222  10.802  16.156  0.00  0.00    +0.000 OA
ATOM     22  H   UNL     1      -1.426  10.375  16.520  0.00  0.00    +0.000 HD
ENDBRANCH   5  21
BRANCH   6  23
ATOM     23  C   UNL     1      -0.938  12.039  18.370  0.00  0.00    +0.000 C 
ATOM     24  S   UNL     1      -0.164  13.558  18.509  0.00  0.00    +0.000 S 
BRANCH  23  25
ATOM     25  N   UNL     1      -0.216  10.854  18.242  0.00  0.00    +0.000 N 
ATOM     26  H   UNL     1      -0.098  10.472  17.306  0.00  0.00    +0.000 HD
BRANCH  25  27
ATOM     27  C   UNL     1       0.263  10.017  19.284  0.00  0.00    +0.000 A 
ATOM     28  C   UNL     1      -0.343  10.011  20.560  0.00  0.00    +0.000 A 
ATOM     29  C   UNL     1       0.098   9.143  21.559  0.00  0.00    +0.000 A 
ATOM     30  C   UNL     1       1.136   8.265  21.301  0.00  0.00    +0.000 A 
ATOM     31  C   UNL     1       1.737   8.243  20.043  0.00  0.00    +0.000 A 
ATOM     32  C   UNL     1       1.288   9.114  19.035  0.00  0.00    +0.000 A 
ENDBRANCH  25  27
ENDBRANCH  23  25
ENDBRANCH   6  23
TORSDOF 5
ENDMDL
MODEL 6
REMARK VINA RESULT:      -7.3      6.497     10.094
REMARK  Name = 
REMARK  11 active torsions:
REMARK  status: ('A' for Active; 'I' for Inactive)
REMARK    1  A    between atoms: C_1  and  C_2
REMARK    2  A    between atoms: C_2  and  C_3
REMARK    3  A    between atoms: C_5  and  O_6
REMARK    4  A    between atoms: C_7  and  C_8
REMARK    5  A    between atoms: C_8  and  N_10
REMARK    6  A    between atoms: N_10  and  C_11
REMARK    7  A    between atoms: N_18  and  C_19
REMARK    8  A    between atoms: C_21  and  C_22
REMARK    9  A    between atoms: C_21  and  C_23
REMARK   10  A    between atoms: C_25  and  C_26
REMARK   11  A    between atoms: C_25  and  C_27
REMARK                            x       y       z     vdW  Elec       q    Type
REMARK                         _______ _______ _______ _____ _____    ______ ____
ROOT
ATOM      1  C   UNL     1      -6.664  13.115  17.061  0.00  0.00    +0.000 C 
ATOM      2  C   UNL     1      -5.814  12.076  17.828  0.00  0.00    +0.000 C 
ATOM      3  C   UNL     1      -6.764  10.944  18.281  0.00  0.00    +0.000 C 
ATOM      4  C   UNL     1      -4.756  11.500  16.888  0.00  0.00    +0.000 C 
ATOM      5  C   UNL     1      -3.346  11.391  17.385  0.00  0.00    +0.000 C 
ATOM      6  C   UNL     1      -2.855  11.841  18.567  0.00  0.00    +0.000 C 
ATOM      7  C   UNL     1      -3.815  12.540  19.522  0.00  0.00    +0.000 C 
ATOM      8  N   UNL     1      -3.444  12.986  20.686  0.00  0.00    +0.000 NA
ATOM      9  C   UNL     1      -5.243  12.796  19.045  0.00  0.00    +0.000 C 
ENDROOT
BRANCH   8  10
ATOM     10  C   UNL     1      -4.375  13.779  21.553  0.00  0.00    +0.000 C 
ATOM     11  C   UNL     1      -3.560  14.540  22.612  0.00  0.00    +0.000 C 
ATOM     12  C   UNL     1      -4.429  15.237  23.696  0.00  0.00    +0.000 C 
ATOM     13  C   UNL     1      -3.532  15.572  24.905  0.00  0.00    +0.000 C 
ATOM     14  C   UNL     1      -5.008  16.577  23.200  0.00  0.00    +0.000 C 
ATOM     15  N   UNL     1      -5.477  14.359  24.231  0.00  0.00    +0.000 NA
ATOM     16  C   UNL     1      -6.266  13.555  23.301  0.00  0.00    +0.000 C 
ATOM     17  C   UNL     1      -6.946  12.465  24.159  0.00  0.00    +0.000 C 
ATOM     18  C   UNL     1      -7.402  14.368  22.652  0.00  0.00    +0.000 C 
ATOM     19  C   UNL     1      -5.373  12.847  22.254  0.00  0.00    +0.000 C 
ATOM     20  H   UNL     1      -6.077  14.865  24.883  0.00  0.00    +0.000 HD
ENDBRANCH   8  10
BRANCH   5  21
ATOM     21  O   UNL     1      -2.535  10.732  16.469  0.00  0.00    +0.000 OA
ATOM     22  H   UNL     1      -1.816  10.261  16.926  0.00  0.00    +0.000 HD
ENDBRANCH   5  21
BRANCH   6  23
ATOM     23  C   UNL     1      -1.345  11.763  18.835  0.00  0.00    +0.000 C 
ATOM     24  S   UNL     1      -0.250  13.047  18.552  0.00  0.00    +0.000 S 
BRANCH  23  25
ATOM     25  N   UNL     1      -0.915  10.512  19.274  0.00  0.00    +0.000 N 
ATOM     26  H   UNL     1      -1.069   9.718  18.656  0.00  0.00    +0.000 HD
BRANCH  25  27
ATOM     27  C   UNL     1      -0.411  10.172  20.557  0.00  0.00    +0.000 A 
ATOM     28  C   UNL     1      -1.011  10.664  21.736  0.00  0.00    +0.000 A 
ATOM     29  C   UNL     1      -0.544  10.278  22.993  0.00  0.00    +0.000 A 
ATOM     30  C   UNL     1       0.514   9.392  23.093  0.00  0.00    +0.000 A 
ATOM     31  C   UNL     1       1.111   8.882  21.940  0.00  0.00    +0.000 A 
ATOM     32  C   UNL     1       0.635   9.267  20.675  0.00  0.00    +0.000 A 
ENDBRANCH  25  27
ENDBRANCH  23  25
ENDBRANCH   6  23
TORSDOF 5
ENDMDL
MODEL 7
REMARK VINA RESULT:      -7.3      0.929      1.053
REMARK  Name = 
REMARK  11 active torsions:
REMARK  status: ('A' for Active; 'I' for Inactive)
REMARK    1  A    between atoms: C_1  and  C_2
REMARK    2  A    between atoms: C_2  and  C_3
REMARK    3  A    between atoms: C_5  and  O_6
REMARK    4  A    between atoms: C_7  and  C_8
REMARK    5  A    between atoms: C_8  and  N_10
REMARK    6  A    between atoms: N_10  and  C_11
REMARK    7  A    between atoms: N_18  and  C_19
REMARK    8  A    between atoms: C_21  and  C_22
REMARK    9  A    between atoms: C_21  and  C_23
REMARK   10  A    between atoms: C_25  and  C_26
REMARK   11  A    between atoms: C_25  and  C_27
REMARK                            x       y       z     vdW  Elec       q    Type
REMARK                         _______ _______ _______ _____ _____    ______ ____
ROOT
ATOM      1  C   UNL     1       0.348   2.506  19.317  0.00  0.00    +0.000 C 
ATOM      2  C   UNL     1       1.585   2.998  20.102  0.00  0.00    +0.000 C 
ATOM      3  C   UNL     1       1.246   2.906  21.608  0.00  0.00    +0.000 C 
ATOM      4  C   UNL     1       2.770   2.083  19.796  0.00  0.00    +0.000 C 
ATOM      5  C   UNL     1       4.092   2.714  19.475  0.00  0.00    +0.000 C 
ATOM      6  C   UNL     1       4.355   4.035  19.322  0.00  0.00    +0.000 C 
ATOM      7  C   UNL     1       3.204   5.020  19.491  0.00  0.00    +0.000 C 
ATOM      8  N   UNL     1       3.362   6.306  19.385  0.00  0.00    +0.000 NA
ATOM      9  C   UNL     1       1.802   4.454  19.704  0.00  0.00    +0.000 C 
ENDROOT
BRANCH   8  10
ATOM     10  C   UNL     1       2.192   7.244  19.431  0.00  0.00    +0.000 C 
ATOM     11  C   UNL     1       2.467   8.445  18.509  0.00  0.00    +0.000 C 
ATOM     12  C   UNL     1       1.416   9.583  18.628  0.00  0.00    +0.000 C 
ATOM     13  C   UNL     1       2.015  10.870  18.022  0.00  0.00    +0.000 C 
ATOM     14  C   UNL     1       0.137   9.277  17.824  0.00  0.00    +0.000 C 
ATOM     15  N   UNL     1       1.110   9.927  20.022  0.00  0.00    +0.000 NA
ATOM     16  C   UNL     1       0.889   8.848  20.982  0.00  0.00    +0.000 C 
ATOM     17  C   UNL     1       1.023   9.494  22.380  0.00  0.00    +0.000 C 
ATOM     18  C   UNL     1      -0.542   8.284  20.900  0.00  0.00    +0.000 C 
ATOM     19  C   UNL     1       1.968   7.745  20.864  0.00  0.00    +0.000 C 
ATOM     20  H   UNL     1       0.365  10.623  20.070  0.00  0.00    +0.000 HD
ENDBRANCH   8  10
BRANCH   5  21
ATOM     21  O   UNL     1       5.093   1.757  19.350  0.00  0.00    +0.000 OA
ATOM     22  H   UNL     1       5.795   1.911  20.007  0.00  0.00    +0.000 HD
ENDBRANCH   5  21
BRANCH   6  23
ATOM     23  C   UNL     1       5.748   4.477  18.850  0.00  0.00    +0.000 C 
ATOM     24  S   UNL     1       6.694   5.670  19.629  0.00  0.00    +0.000 S 
BRANCH  23  25
ATOM     25  N   UNL     1       6.163   3.864  17.669  0.00  0.00    +0.000 N 
ATOM     26  H   UNL     1       6.736   3.026  17.750  0.00  0.00    +0.000 HD
BRANCH  25  27
ATOM     27  C   UNL     1       6.009   4.348  16.344  0.00  0.00    +0.000 A 
ATOM     28  C   UNL     1       6.292   3.533  15.226  0.00  0.00    +0.000 A 
ATOM     29  C   UNL     1       6.083   3.999  13.927  0.00  0.00    +0.000 A 
ATOM     30  C   UNL     1       5.580   5.272  13.725  0.00  0.00    +0.000 A 
ATOM     31  C   UNL     1       5.279   6.087  14.815  0.00  0.00    +0.000 A 
ATOM     32  C   UNL     1       5.485   5.614  16.123  0.00  0.00    +0.000 A 
ENDBRANCH  25  27
ENDBRANCH  23  25
ENDBRANCH   6  23
TORSDOF 5
ENDMDL
MODEL 8
REMARK VINA RESULT:      -6.8      7.126      9.864
REMARK  Name = 
REMARK  11 active torsions:
REMARK  status: ('A' for Active; 'I' for Inactive)
REMARK    1  A    between atoms: C_1  and  C_2
REMARK    2  A    between atoms: C_2  and  C_3
REMARK    3  A    between atoms: C_5  and  O_6
REMARK    4  A    between atoms: C_7  and  C_8
REMARK    5  A    between atoms: C_8  and  N_10
REMARK    6  A    between atoms: N_10  and  C_11
REMARK    7  A    between atoms: N_18  and  C_19
REMARK    8  A    between atoms: C_21  and  C_22
REMARK    9  A    between atoms: C_21  and  C_23
REMARK   10  A    between atoms: C_25  and  C_26
REMARK   11  A    between atoms: C_25  and  C_27
REMARK                            x       y       z     vdW  Elec       q    Type
REMARK                         _______ _______ _______ _____ _____    ______ ____
ROOT
ATOM      1  C   UNL     1       1.893  16.151  20.413  0.00  0.00    +0.000 C 
ATOM      2  C   UNL     1       0.960  15.374  19.456  0.00  0.00    +0.000 C 
ATOM      3  C   UNL     1       0.301  16.405  18.512  0.00  0.00    +0.000 C 
ATOM      4  C   UNL     1       1.792  14.394  18.629  0.00  0.00    +0.000 C 
ATOM      5  C   UNL     1       1.297  12.986  18.485  0.00  0.00    +0.000 C 
ATOM      6  C   UNL     1       0.221  12.428  19.093  0.00  0.00    +0.000 C 
ATOM      7  C   UNL     1      -0.603  13.299  20.034  0.00  0.00    +0.000 C 
ATOM      8  N   UNL     1      -1.663  12.860  20.645  0.00  0.00    +0.000 NA
ATOM      9  C   UNL     1      -0.101  14.711  20.328  0.00  0.00    +0.000 C 
ENDROOT
BRANCH   8  10
ATOM     10  C   UNL     1      -2.383  13.697  21.660  0.00  0.00    +0.000 C 
ATOM     11  C   UNL     1      -2.796  12.812  22.849  0.00  0.00    +0.000 C 
ATOM     12  C   UNL     1      -3.726  13.524  23.871  0.00  0.00    +0.000 C 
ATOM     13  C   UNL     1      -4.412  12.450  24.741  0.00  0.00    +0.000 C 
ATOM     14  C   UNL     1      -2.938  14.429  24.838  0.00  0.00    +0.000 C 
ATOM     15  N   UNL     1      -4.826  14.249  23.225  0.00  0.00    +0.000 NA
ATOM     16  C   UNL     1      -4.536  15.072  22.053  0.00  0.00    +0.000 C 
ATOM     17  C   UNL     1      -5.899  15.335  21.375  0.00  0.00    +0.000 C 
ATOM     18  C   UNL     1      -3.970  16.452  22.440  0.00  0.00    +0.000 C 
ATOM     19  C   UNL     1      -3.636  14.328  21.038  0.00  0.00    +0.000 C 
ATOM     20  H   UNL     1      -5.375  14.766  23.913  0.00  0.00    +0.000 HD
ENDBRANCH   8  10
BRANCH   5  21
ATOM     21  O   UNL     1       2.089  12.259  17.604  0.00  0.00    +0.000 OA
ATOM     22  H   UNL     1       1.551  11.909  16.871  0.00  0.00    +0.000 HD
ENDBRANCH   5  21
BRANCH   6  23
ATOM     23  C   UNL     1      -0.041  10.924  18.930  0.00  0.00    +0.000 C 
ATOM     24  S   UNL     1       0.439   9.735  20.063  0.00  0.00    +0.000 S 
BRANCH  23  25
ATOM     25  N   UNL     1      -0.655  10.586  17.725  0.00  0.00    +0.000 N 
ATOM     26  H   UNL     1      -0.062  10.232  16.978  0.00  0.00    +0.000 HD
BRANCH  25  27
ATOM     27  C   UNL     1      -2.005  10.814  17.350  0.00  0.00    +0.000 A 
ATOM     28  C   UNL     1      -2.431  10.673  16.012  0.00  0.00    +0.000 A 
ATOM     29  C   UNL     1      -3.771  10.843  15.663  0.00  0.00    +0.000 A 
ATOM     30  C   UNL     1      -4.704  11.143  16.640  0.00  0.00    +0.000 A 
ATOM     31  C   UNL     1      -4.308  11.271  17.970  0.00  0.00    +0.000 A 
ATOM     32  C   UNL     1      -2.958  11.094  18.321  0.00  0.00    +0.000 A 
ENDBRANCH  25  27
ENDBRANCH  23  25
ENDBRANCH   6  23
TORSDOF 5
ENDMDL
MODEL 9
REMARK VINA RESULT:      -6.7      7.848      9.627
REMARK  Name = 
REMARK  11 active torsions:
REMARK  status: ('A' for Active; 'I' for Inactive)
REMARK    1  A    between atoms: C_1  and  C_2
REMARK    2  A    between atoms: C_2  and  C_3
REMARK    3  A    between atoms: C_5  and  O_6
REMARK    4  A    between atoms: C_7  and  C_8
REMARK    5  A    between atoms: C_8  and  N_10
REMARK    6  A    between atoms: N_10  and  C_11
REMARK    7  A    between atoms: N_18  and  C_19
REMARK    8  A    between atoms: C_21  and  C_22
REMARK    9  A    between atoms: C_21  and  C_23
REMARK   10  A    between atoms: C_25  and  C_26
REMARK   11  A    between atoms: C_25  and  C_27
REMARK                            x       y       z     vdW  Elec       q    Type
REMARK                         _______ _______ _______ _____ _____    ______ ____
ROOT
ATOM      1  C   UNL     1      -6.329  12.844  17.274  0.00  0.00    +0.000 C 
ATOM      2  C   UNL     1      -5.365  11.811  17.903  0.00  0.00    +0.000 C 
ATOM      3  C   UNL     1      -6.224  10.654  18.461  0.00  0.00    +0.000 C 
ATOM      4  C   UNL     1      -4.434  11.270  16.819  0.00  0.00    +0.000 C 
ATOM      5  C   UNL     1      -2.967  11.182  17.120  0.00  0.00    +0.000 C 
ATOM      6  C   UNL     1      -2.330  11.625  18.232  0.00  0.00    +0.000 C 
ATOM      7  C   UNL     1      -3.164  12.291  19.320  0.00  0.00    +0.000 C 
ATOM      8  N   UNL     1      -2.647  12.727  20.430  0.00  0.00    +0.000 NA
ATOM      9  C   UNL     1      -4.647  12.526  19.043  0.00  0.00    +0.000 C 
ENDROOT
BRANCH   8  10
ATOM     10  C   UNL     1      -3.467  13.489  21.428  0.00  0.00    +0.000 C 
ATOM     11  C   UNL     1      -2.650  14.683  21.951  0.00  0.00    +0.000 C 
ATOM     12  C   UNL     1      -3.317  15.430  23.140  0.00  0.00    +0.000 C 
ATOM     13  C   UNL     1      -2.245  16.287  23.846  0.00  0.00    +0.000 C 
ATOM     14  C   UNL     1      -4.413  16.405  22.669  0.00  0.00    +0.000 C 
ATOM     15  N   UNL     1      -3.814  14.515  24.175  0.00  0.00    +0.000 NA
ATOM     16  C   UNL     1      -4.554  13.323  23.767  0.00  0.00    +0.000 C 
ATOM     17  C   UNL     1      -4.555  12.386  24.995  0.00  0.00    +0.000 C 
ATOM     18  C   UNL     1      -6.031  13.636  23.458  0.00  0.00    +0.000 C 
ATOM     19  C   UNL     1      -3.851  12.582  22.605  0.00  0.00    +0.000 C 
ATOM     20  H   UNL     1      -4.312  15.027  24.904  0.00  0.00    +0.000 HD
ENDBRANCH   8  10
BRANCH   5  21
ATOM     21  O   UNL     1      -2.276  10.553  16.091  0.00  0.00    +0.000 OA
ATOM     22  H   UNL     1      -1.741   9.817  16.440  0.00  0.00    +0.000 HD
ENDBRANCH   5  21
BRANCH   6  23
ATOM     23  C   UNL     1      -0.796  11.573  18.292  0.00  0.00    +0.000 C 
ATOM     24  S   UNL     1       0.104  10.174  18.692  0.00  0.00    +0.000 S 
BRANCH  23  25
ATOM     25  N   UNL     1      -0.181  12.801  18.056  0.00  0.00    +0.000 N 
ATOM     26  H   UNL     1      -0.490  13.334  17.246  0.00  0.00    +0.000 HD
BRANCH  25  27
ATOM     27  C   UNL     1       0.942  13.349  18.730  0.00  0.00    +0.000 A 
ATOM     28  C   UNL     1       0.878  13.712  20.093  0.00  0.00    +0.000 A 
ATOM     29  C   UNL     1       2.003  14.196  20.760  0.00  0.00    +0.000 A 
ATOM     30  C   UNL     1       3.206  14.313  20.086  0.00  0.00    +0.000 A 
ATOM     31  C   UNL     1       3.296  13.945  18.745  0.00  0.00    +0.000 A 
ATOM     32  C   UNL     1       2.162  13.452  18.075  0.00  0.00    +0.000 A 
ENDBRANCH  25  27
ENDBRANCH  23  25
ENDBRANCH   6  23
TORSDOF 5
ENDMDL
