MODEL 1
REMARK VINA RESULT:      -8.3      0.000      0.000
REMARK  Name = 
REMARK  3 active torsions:
REMARK  status: ('A' for Active; 'I' for Inactive)
REMARK    1  A    between atoms: C_2  and  C_13
REMARK    2  A    between atoms: N_3  and  S_4
REMARK    3  A    between atoms: S_4  and  C_7
REMARK                            x       y       z     vdW  Elec       q    Type
REMARK                         _______ _______ _______ _____ _____    ______ ____
ROOT
ATOM      1  O   UNL     1       5.999   4.792  19.132  0.00  0.00    +0.000 OA
ATOM      2  C   UNL     1       5.188   4.605  18.234  0.00  0.00    +0.000 C 
ATOM      3  N   UNL     1       5.509   4.693  16.876  0.00  0.00    +0.000 N 
ATOM      4  H   UNL     1       4.828   4.627  16.128  0.00  0.00    +0.000 HD
ENDROOT
BRANCH   2   5
ATOM      5  C   UNL     1       3.792   4.244  18.583  0.00  0.00    +0.000 A 
ATOM      6  C   UNL     1       2.719   4.393  17.694  0.00  0.00    +0.000 A 
ATOM      7  C   UNL     1       1.444   3.965  18.077  0.00  0.00    +0.000 A 
ATOM      8  C   UNL     1       1.238   3.408  19.342  0.00  0.00    +0.000 A 
ATOM      9  C   UNL     1       2.308   3.275  20.225  0.00  0.00    +0.000 A 
ATOM     10 CL   UNL     1       2.058   2.582  21.779  0.00  0.00    +0.000 Cl
ATOM     11  C   UNL     1       3.582   3.685  19.850  0.00  0.00    +0.000 A 
ENDBRANCH   2   5
BRANCH   3  12
ATOM     12  S   UNL     1       7.049   5.086  16.350  0.00  0.00    +0.000 S 
ATOM     13  O   UNL     1       7.181   6.516  16.536  0.00  0.00    +0.000 OA
ATOM     14  O   UNL     1       7.994   4.169  16.945  0.00  0.00    +0.000 OA
BRANCH  12  15
ATOM     15  C   UNL     1       6.937   4.781  14.604  0.00  0.00    +0.000 A 
ATOM     16  C   UNL     1       6.033   3.823  14.132  0.00  0.00    +0.000 A 
ATOM     17  C   UNL     1       6.036   3.487  12.778  0.00  0.00    +0.000 A 
ATOM     18  C   UNL     1       6.923   4.119  11.903  0.00  0.00    +0.000 A 
ATOM     19  C   UNL     1       7.791   5.106  12.372  0.00  0.00    +0.000 A 
ATOM     20  C   UNL     1       7.797   5.445  13.725  0.00  0.00    +0.000 A 
ENDBRANCH  12  15
ENDBRANCH   3  12
TORSDOF 3
ENDMDL
MODEL 2
REMARK VINA RESULT:      -7.9      1.157      1.282
REMARK  Name = 
REMARK  3 active torsions:
REMARK  status: ('A' for Active; 'I' for Inactive)
REMARK    1  A    between atoms: C_2  and  C_13
REMARK    2  A    between atoms: N_3  and  S_4
REMARK    3  A    between atoms: S_4  and  C_7
REMARK                            x       y       z     vdW  Elec       q    Type
REMARK                         _______ _______ _______ _____ _____    ______ ____
ROOT
ATOM      1  O   UNL     1       6.311   5.451  19.298  0.00  0.00    +0.000 OA
ATOM      2  C   UNL     1       5.433   5.123  18.511  0.00  0.00    +0.000 C 
ATOM      3  N   UNL     1       5.655   4.935  17.143  0.00  0.00    +0.000 N 
ATOM      4  H   UNL     1       4.920   4.750  16.470  0.00  0.00    +0.000 HD
ENDROOT
BRANCH   2   5
ATOM      5  C   UNL     1       4.058   4.888  19.016  0.00  0.00    +0.000 A 
ATOM      6  C   UNL     1       3.341   5.839  19.754  0.00  0.00    +0.000 A 
ATOM      7  C   UNL     1       2.024   5.564  20.135  0.00  0.00    +0.000 A 
ATOM      8  C   UNL     1       1.432   4.344  19.797  0.00  0.00    +0.000 A 
ATOM      9  C   UNL     1       2.156   3.398  19.074  0.00  0.00    +0.000 A 
ATOM     10 CL   UNL     1       1.428   1.900  18.649  0.00  0.00    +0.000 Cl
ATOM     11  C   UNL     1       3.462   3.666  18.678  0.00  0.00    +0.000 A 
ENDBRANCH   2   5
BRANCH   3  12
ATOM     12  S   UNL     1       7.161   5.162  16.447  0.00  0.00    +0.000 S 
ATOM     13  O   UNL     1       7.420   6.585  16.513  0.00  0.00    +0.000 OA
ATOM     14  O   UNL     1       8.087   4.211  17.019  0.00  0.00    +0.000 OA
BRANCH  12  15
ATOM     15  C   UNL     1       6.854   4.752  14.747  0.00  0.00    +0.000 A 
ATOM     16  C   UNL     1       5.793   3.896  14.430  0.00  0.00    +0.000 A 
ATOM     17  C   UNL     1       5.630   3.467  13.112  0.00  0.00    +0.000 A 
ATOM     18  C   UNL     1       6.510   3.906  12.121  0.00  0.00    +0.000 A 
ATOM     19  C   UNL     1       7.539   4.794  12.436  0.00  0.00    +0.000 A 
ATOM     20  C   UNL     1       7.712   5.225  13.751  0.00  0.00    +0.000 A 
ENDBRANCH  12  15
ENDBRANCH   3  12
TORSDOF 3
ENDMDL
MODEL 3
REMARK VINA RESULT:      -7.7      1.200      1.244
REMARK  Name = 
REMARK  3 active torsions:
REMARK  status: ('A' for Active; 'I' for Inactive)
REMARK    1  A    between atoms: C_2  and  C_13
REMARK    2  A    between atoms: N_3  and  S_4
REMARK    3  A    between atoms: S_4  and  C_7
REMARK                            x       y       z     vdW  Elec       q    Type
REMARK                         _______ _______ _______ _____ _____    ______ ____
ROOT
ATOM      1  O   UNL     1       6.250   4.129  18.955  0.00  0.00    +0.000 OA
ATOM      2  C   UNL     1       5.364   4.476  18.185  0.00  0.00    +0.000 C 
ATOM      3  N   UNL     1       5.609   4.981  16.905  0.00  0.00    +0.000 N 
ATOM      4  H   UNL     1       4.890   5.353  16.295  0.00  0.00    +0.000 HD
ENDROOT
BRANCH   2   5
ATOM      5  C   UNL     1       3.947   4.343  18.605  0.00  0.00    +0.000 A 
ATOM      6  C   UNL     1       3.160   3.226  18.298  0.00  0.00    +0.000 A 
ATOM      7  C   UNL     1       1.853   3.148  18.789  0.00  0.00    +0.000 A 
ATOM      8  C   UNL     1       1.329   4.185  19.567  0.00  0.00    +0.000 A 
ATOM      9  C   UNL     1       2.115   5.299  19.858  0.00  0.00    +0.000 A 
ATOM     10 CL   UNL     1       1.476   6.572  20.821  0.00  0.00    +0.000 Cl
ATOM     11  C   UNL     1       3.420   5.381  19.385  0.00  0.00    +0.000 A 
ENDBRANCH   2   5
BRANCH   3  12
ATOM     12  S   UNL     1       7.162   5.175  16.308  0.00  0.00    +0.000 S 
ATOM     13  O   UNL     1       7.454   6.591  16.410  0.00  0.00    +0.000 OA
ATOM     14  O   UNL     1       8.025   4.192  16.923  0.00  0.00    +0.000 OA
BRANCH  12  15
ATOM     15  C   UNL     1       6.952   4.795  14.587  0.00  0.00    +0.000 A 
ATOM     16  C   UNL     1       6.009   3.832  14.208  0.00  0.00    +0.000 A 
ATOM     17  C   UNL     1       5.935   3.436  12.872  0.00  0.00    +0.000 A 
ATOM     18  C   UNL     1       6.783   4.012  11.923  0.00  0.00    +0.000 A 
ATOM     19  C   UNL     1       7.690   5.004  12.300  0.00  0.00    +0.000 A 
ATOM     20  C   UNL     1       7.774   5.403  13.634  0.00  0.00    +0.000 A 
ENDBRANCH  12  15
ENDBRANCH   3  12
TORSDOF 3
ENDMDL
MODEL 4
REMARK VINA RESULT:      -7.7      2.681      6.677
REMARK  Name = 
REMARK  3 active torsions:
REMARK  status: ('A' for Active; 'I' for Inactive)
REMARK    1  A    between atoms: C_2  and  C_13
REMARK    2  A    between atoms: N_3  and  S_4
REMARK    3  A    between atoms: S_4  and  C_7
REMARK                            x       y       z     vdW  Elec       q    Type
REMARK                         _______ _______ _______ _____ _____    ______ ____
ROOT
ATOM      1  O   UNL     1       7.466   5.677  16.454  0.00  0.00    +0.000 OA
ATOM      2  C   UNL     1       6.615   5.070  15.815  0.00  0.00    +0.000 C 
ATOM      3  N   UNL     1       5.426   4.593  16.374  0.00  0.00    +0.000 N 
ATOM      4  H   UNL     1       4.758   4.015  15.877  0.00  0.00    +0.000 HD
ENDROOT
BRANCH   2   5
ATOM      5  C   UNL     1       6.827   4.837  14.365  0.00  0.00    +0.000 A 
ATOM      6  C   UNL     1       7.774   5.540  13.608  0.00  0.00    +0.000 A 
ATOM      7  C   UNL     1       7.958   5.213  12.261  0.00  0.00    +0.000 A 
ATOM      8  C   UNL     1       7.193   4.203  11.670  0.00  0.00    +0.000 A 
ATOM      9  C   UNL     1       6.246   3.517  12.427  0.00  0.00    +0.000 A 
ATOM     10 CL   UNL     1       5.309   2.269  11.704  0.00  0.00    +0.000 Cl
ATOM     11  C   UNL     1       6.063   3.826  13.770  0.00  0.00    +0.000 A 
ENDBRANCH   2   5
BRANCH   3  12
ATOM     12  S   UNL     1       5.062   4.795  17.997  0.00  0.00    +0.000 S 
ATOM     13  O   UNL     1       6.101   4.098  18.728  0.00  0.00    +0.000 OA
ATOM     14  O   UNL     1       4.790   6.193  18.243  0.00  0.00    +0.000 OA
BRANCH  12  15
ATOM     15  C   UNL     1       3.566   3.855  18.165  0.00  0.00    +0.000 A 
ATOM     16  C   UNL     1       2.332   4.498  18.017  0.00  0.00    +0.000 A 
ATOM     17  C   UNL     1       1.157   3.793  18.279  0.00  0.00    +0.000 A 
ATOM     18  C   UNL     1       1.217   2.452  18.667  0.00  0.00    +0.000 A 
ATOM     19  C   UNL     1       2.449   1.804  18.769  0.00  0.00    +0.000 A 
ATOM     20  C   UNL     1       3.629   2.502  18.513  0.00  0.00    +0.000 A 
ENDBRANCH  12  15
ENDBRANCH   3  12
TORSDOF 3
ENDMDL
MODEL 5
REMARK VINA RESULT:      -7.7      2.647      6.587
REMARK  Name = 
REMARK  3 active torsions:
REMARK  status: ('A' for Active; 'I' for Inactive)
REMARK    1  A    between atoms: C_2  and  C_13
REMARK    2  A    between atoms: N_3  and  S_4
REMARK    3  A    between atoms: S_4  and  C_7
REMARK                            x       y       z     vdW  Elec       q    Type
REMARK                         _______ _______ _______ _____ _____    ______ ____
ROOT
ATOM      1  O   UNL     1       7.480   5.963  16.353  0.00  0.00    +0.000 OA
ATOM      2  C   UNL     1       6.686   5.223  15.788  0.00  0.00    +0.000 C 
ATOM      3  N   UNL     1       5.585   4.642  16.424  0.00  0.00    +0.000 N 
ATOM      4  H   UNL     1       4.973   3.961  15.990  0.00  0.00    +0.000 HD
ENDROOT
BRANCH   2   5
ATOM      5  C   UNL     1       6.869   4.931  14.344  0.00  0.00    +0.000 A 
ATOM      6  C   UNL     1       7.807   5.596  13.543  0.00  0.00    +0.000 A 
ATOM      7  C   UNL     1       7.965   5.214  12.207  0.00  0.00    +0.000 A 
ATOM      8  C   UNL     1       7.181   4.188  11.670  0.00  0.00    +0.000 A 
ATOM      9  C   UNL     1       6.242   3.540  12.471  0.00  0.00    +0.000 A 
ATOM     10 CL   UNL     1       5.283   2.273  11.815  0.00  0.00    +0.000 Cl
ATOM     11  C   UNL     1       6.086   3.904  13.804  0.00  0.00    +0.000 A 
ENDBRANCH   2   5
BRANCH   3  12
ATOM     12  S   UNL     1       5.261   4.896  18.048  0.00  0.00    +0.000 S 
ATOM     13  O   UNL     1       6.315   4.220  18.775  0.00  0.00    +0.000 OA
ATOM     14  O   UNL     1       4.997   6.302  18.257  0.00  0.00    +0.000 OA
BRANCH  12  15
ATOM     15  C   UNL     1       3.767   3.965  18.282  0.00  0.00    +0.000 A 
ATOM     16  C   UNL     1       3.850   2.621  18.662  0.00  0.00    +0.000 A 
ATOM     17  C   UNL     1       2.687   1.852  18.717  0.00  0.00    +0.000 A 
ATOM     18  C   UNL     1       1.452   2.430  18.413  0.00  0.00    +0.000 A 
ATOM     19  C   UNL     1       1.371   3.782  18.078  0.00  0.00    +0.000 A 
ATOM     20  C   UNL     1       2.529   4.557  18.017  0.00  0.00    +0.000 A 
ENDBRANCH  12  15
ENDBRANCH   3  12
TORSDOF 3
ENDMDL
MODEL 6
REMARK VINA RESULT:      -7.6      1.339      1.817
REMARK  Name = 
REMARK  3 active torsions:
REMARK  status: ('A' for Active; 'I' for Inactive)
REMARK    1  A    between atoms: C_2  and  C_13
REMARK    2  A    between atoms: N_3  and  S_4
REMARK    3  A    between atoms: S_4  and  C_7
REMARK                            x       y       z     vdW  Elec       q    Type
REMARK                         _______ _______ _______ _____ _____    ______ ____
ROOT
ATOM      1  O   UNL     1       6.397   4.795  19.361  0.00  0.00    +0.000 OA
ATOM      2  C   UNL     1       5.489   4.781  18.541  0.00  0.00    +0.000 C 
ATOM      3  N   UNL     1       5.690   4.920  17.164  0.00  0.00    +0.000 N 
ATOM      4  H   UNL     1       4.940   4.998  16.487  0.00  0.00    +0.000 HD
ENDROOT
BRANCH   2   5
ATOM      5  C   UNL     1       4.094   4.585  19.009  0.00  0.00    +0.000 A 
ATOM      6  C   UNL     1       3.430   3.354  18.940  0.00  0.00    +0.000 A 
ATOM      7  C   UNL     1       2.139   3.238  19.465  0.00  0.00    +0.000 A 
ATOM      8  C   UNL     1       1.510   4.346  20.040  0.00  0.00    +0.000 A 
ATOM      9  C   UNL     1       2.173   5.570  20.094  0.00  0.00    +0.000 A 
ATOM     10 CL   UNL     1       1.404   6.932  20.808  0.00  0.00    +0.000 Cl
ATOM     11  C   UNL     1       3.461   5.693  19.586  0.00  0.00    +0.000 A 
ENDBRANCH   2   5
BRANCH   3  12
ATOM     12  S   UNL     1       7.214   5.140  16.506  0.00  0.00    +0.000 S 
ATOM     13  O   UNL     1       7.442   6.571  16.499  0.00  0.00    +0.000 OA
ATOM     14  O   UNL     1       8.139   4.244  17.161  0.00  0.00    +0.000 OA
BRANCH  12  15
ATOM     15  C   UNL     1       6.973   4.628  14.823  0.00  0.00    +0.000 A 
ATOM     16  C   UNL     1       7.797   5.155  13.822  0.00  0.00    +0.000 A 
ATOM     17  C   UNL     1       7.526   4.858  12.486  0.00  0.00    +0.000 A 
ATOM     18  C   UNL     1       6.452   4.027  12.158  0.00  0.00    +0.000 A 
ATOM     19  C   UNL     1       5.661   3.470  13.164  0.00  0.00    +0.000 A 
ATOM     20  C   UNL     1       5.923   3.764  14.502  0.00  0.00    +0.000 A 
ENDBRANCH  12  15
ENDBRANCH   3  12
TORSDOF 3
ENDMDL
MODEL 7
REMARK VINA RESULT:      -7.6      1.035      1.540
REMARK  Name = 
REMARK  3 active torsions:
REMARK  status: ('A' for Active; 'I' for Inactive)
REMARK    1  A    between atoms: C_2  and  C_13
REMARK    2  A    between atoms: N_3  and  S_4
REMARK    3  A    between atoms: S_4  and  C_7
REMARK                            x       y       z     vdW  Elec       q    Type
REMARK                         _______ _______ _______ _____ _____    ______ ____
ROOT
ATOM      1  O   UNL     1       6.095   3.957  18.820  0.00  0.00    +0.000 OA
ATOM      2  C   UNL     1       5.220   4.106  17.978  0.00  0.00    +0.000 C 
ATOM      3  N   UNL     1       5.457   4.633  16.704  0.00  0.00    +0.000 N 
ATOM      4  H   UNL     1       4.727   4.843  16.033  0.00  0.00    +0.000 HD
ENDROOT
BRANCH   2   5
ATOM      5  C   UNL     1       3.830   3.694  18.296  0.00  0.00    +0.000 A 
ATOM      6  C   UNL     1       3.250   2.518  17.805  0.00  0.00    +0.000 A 
ATOM      7  C   UNL     1       1.957   2.168  18.208  0.00  0.00    +0.000 A 
ATOM      8  C   UNL     1       1.243   2.993  19.081  0.00  0.00    +0.000 A 
ATOM      9  C   UNL     1       1.823   4.168  19.556  0.00  0.00    +0.000 A 
ATOM     10 CL   UNL     1       0.950   5.181  20.637  0.00  0.00    +0.000 Cl
ATOM     11  C   UNL     1       3.113   4.519  19.172  0.00  0.00    +0.000 A 
ENDBRANCH   2   5
BRANCH   3  12
ATOM     12  S   UNL     1       6.980   5.130  16.217  0.00  0.00    +0.000 S 
ATOM     13  O   UNL     1       6.972   6.576  16.298  0.00  0.00    +0.000 OA
ATOM     14  O   UNL     1       7.973   4.352  16.923  0.00  0.00    +0.000 OA
BRANCH  12  15
ATOM     15  C   UNL     1       6.986   4.690  14.497  0.00  0.00    +0.000 A 
ATOM     16  C   UNL     1       7.850   5.357  13.622  0.00  0.00    +0.000 A 
ATOM     17  C   UNL     1       7.763   5.108  12.252  0.00  0.00    +0.000 A 
ATOM     18  C   UNL     1       6.833   4.185  11.767  0.00  0.00    +0.000 A 
ATOM     19  C   UNL     1       6.005   3.490  12.649  0.00  0.00    +0.000 A 
ATOM     20  C   UNL     1       6.082   3.736  14.020  0.00  0.00    +0.000 A 
ENDBRANCH  12  15
ENDBRANCH   3  12
TORSDOF 3
ENDMDL
MODEL 8
REMARK VINA RESULT:      -7.5      1.056      1.101
REMARK  Name = 
REMARK  3 active torsions:
REMARK  status: ('A' for Active; 'I' for Inactive)
REMARK    1  A    between atoms: C_2  and  C_13
REMARK    2  A    between atoms: N_3  and  S_4
REMARK    3  A    between atoms: S_4  and  C_7
REMARK                            x       y       z     vdW  Elec       q    Type
REMARK                         _______ _______ _______ _____ _____    ______ ____
ROOT
ATOM      1  O   UNL     1       5.384   5.296  18.723  0.00  0.00    +0.000 OA
ATOM      2  C   UNL     1       4.896   4.531  17.901  0.00  0.00    +0.000 C 
ATOM      3  N   UNL     1       5.449   4.301  16.638  0.00  0.00    +0.000 N 
ATOM      4  H   UNL     1       5.007   3.739  15.920  0.00  0.00    +0.000 HD
ENDROOT
BRANCH   2   5
ATOM      5  C   UNL     1       3.664   3.782  18.252  0.00  0.00    +0.000 A 
ATOM      6  C   UNL     1       3.396   2.488  17.785  0.00  0.00    +0.000 A 
ATOM      7  C   UNL     1       2.243   1.825  18.217  0.00  0.00    +0.000 A 
ATOM      8  C   UNL     1       1.356   2.454  19.096  0.00  0.00    +0.000 A 
ATOM      9  C   UNL     1       1.624   3.745  19.546  0.00  0.00    +0.000 A 
ATOM     10 CL   UNL     1       0.538   4.517  20.634  0.00  0.00    +0.000 Cl
ATOM     11  C   UNL     1       2.773   4.409  19.133  0.00  0.00    +0.000 A 
ENDBRANCH   2   5
BRANCH   3  12
ATOM     12  S   UNL     1       6.840   5.077  16.122  0.00  0.00    +0.000 S 
ATOM     13  O   UNL     1       6.593   6.494  16.296  0.00  0.00    +0.000 OA
ATOM     14  O   UNL     1       7.984   4.442  16.735  0.00  0.00    +0.000 OA
BRANCH  12  15
ATOM     15  C   UNL     1       6.830   4.743  14.378  0.00  0.00    +0.000 A 
ATOM     16  C   UNL     1       5.964   3.767  13.873  0.00  0.00    +0.000 A 
ATOM     17  C   UNL     1       6.048   3.409  12.527  0.00  0.00    +0.000 A 
ATOM     18  C   UNL     1       6.976   4.036  11.693  0.00  0.00    +0.000 A 
ATOM     19  C   UNL     1       7.807   5.039  12.193  0.00  0.00    +0.000 A 
ATOM     20  C   UNL     1       7.733   5.401  13.538  0.00  0.00    +0.000 A 
ENDBRANCH  12  15
ENDBRANCH   3  12
TORSDOF 3
ENDMDL
MODEL 9
REMARK VINA RESULT:      -7.5      0.616      1.269
REMARK  Name = 
REMARK  3 active torsions:
REMARK  status: ('A' for Active; 'I' for Inactive)
REMARK    1  A    between atoms: C_2  and  C_13
REMARK    2  A    between atoms: N_3  and  S_4
REMARK    3  A    between atoms: S_4  and  C_7
REMARK                            x       y       z     vdW  Elec       q    Type
REMARK                         _______ _______ _______ _____ _____    ______ ____
ROOT
ATOM      1  O   UNL     1       4.895   6.194  18.317  0.00  0.00    +0.000 OA
ATOM      2  C   UNL     1       4.622   5.093  17.857  0.00  0.00    +0.000 C 
ATOM      3  N   UNL     1       5.412   4.436  16.909  0.00  0.00    +0.000 N 
ATOM      4  H   UNL     1       5.150   3.567  16.458  0.00  0.00    +0.000 HD
ENDROOT
BRANCH   2   5
ATOM      5  C   UNL     1       3.403   4.392  18.332  0.00  0.00    +0.000 A 
ATOM      6  C   UNL     1       2.310   4.111  17.502  0.00  0.00    +0.000 A 
ATOM      7  C   UNL     1       1.228   3.385  18.012  0.00  0.00    +0.000 A 
ATOM      8  C   UNL     1       1.230   2.958  19.343  0.00  0.00    +0.000 A 
ATOM      9  C   UNL     1       2.316   3.252  20.165  0.00  0.00    +0.000 A 
ATOM     10 CL   UNL     1       2.324   2.720  21.800  0.00  0.00    +0.000 Cl
ATOM     11  C   UNL     1       3.403   3.961  19.665  0.00  0.00    +0.000 A 
ENDBRANCH   2   5
BRANCH   3  12
ATOM     12  S   UNL     1       6.815   5.115  16.296  0.00  0.00    +0.000 S 
ATOM     13  O   UNL     1       6.607   6.548  16.321  0.00  0.00    +0.000 OA
ATOM     14  O   UNL     1       7.951   4.517  16.959  0.00  0.00    +0.000 OA
BRANCH  12  15
ATOM     15  C   UNL     1       6.770   4.597  14.598  0.00  0.00    +0.000 A 
ATOM     16  C   UNL     1       7.701   5.125  13.696  0.00  0.00    +0.000 A 
ATOM     17  C   UNL     1       7.586   4.823  12.339  0.00  0.00    +0.000 A 
ATOM     18  C   UNL     1       6.561   3.985  11.893  0.00  0.00    +0.000 A 
ATOM     19  C   UNL     1       5.664   3.426  12.804  0.00  0.00    +0.000 A 
ATOM     20  C   UNL     1       5.768   3.725  14.162  0.00  0.00    +0.000 A 
ENDBRANCH  12  15
ENDBRANCH   3  12
TORSDOF 3
ENDMDL
