MODEL 1
REMARK VINA RESULT:      -7.0      0.000      0.000
REMARK  Name = 
REMARK  4 active torsions:
REMARK  status: ('A' for Active; 'I' for Inactive)
REMARK    1  A    between atoms: C_1  and  N_2
REMARK    2  A    between atoms: N_2  and  C_3
REMARK    3  A    between atoms: C_7  and  O_8
REMARK    4  A    between atoms: C_7  and  C_9
REMARK                            x       y       z     vdW  Elec       q    Type
REMARK                         _______ _______ _______ _____ _____    ______ ____
ROOT
ATOM      1  C   UNL     1       0.940   4.030  20.374  0.00  0.00    +0.000 C 
ATOM      2  N   UNL     1       2.230   3.343  19.938  0.00  0.00    +0.000 N 
ATOM      3  C   UNL     1       2.678   2.422  21.070  0.00  0.00    +0.000 C 
ATOM      4  C   UNL     1       1.968   2.550  18.643  0.00  0.00    +0.000 C 
ATOM      5  C   UNL     1       3.268   2.081  17.981  0.00  0.00    +0.000 C 
ATOM      6  O   UNL     1       4.160   3.165  17.708  0.00  0.00    +0.000 OA
ATOM      7  C   UNL     1       4.575   3.863  18.889  0.00  0.00    +0.000 C 
ATOM      8  C   UNL     1       3.319   4.441  19.636  0.00  0.00    +0.000 C 
ENDROOT
BRANCH   7   9
ATOM      9  C   UNL     1       5.525   4.990  18.484  0.00  0.00    +0.000 A 
ATOM     10  C   UNL     1       6.790   5.124  19.084  0.00  0.00    +0.000 A 
ATOM     11  C   UNL     1       7.633   6.191  18.757  0.00  0.00    +0.000 A 
ATOM     12  C   UNL     1       7.226   7.136  17.819  0.00  0.00    +0.000 A 
ATOM     13 CL   UNL     1       8.247   8.467  17.446  0.00  0.00    +0.000 Cl
ATOM     14  C   UNL     1       5.995   7.006  17.187  0.00  0.00    +0.000 A 
ATOM     15  C   UNL     1       5.153   5.937  17.508  0.00  0.00    +0.000 A 
ENDBRANCH   7   9
BRANCH   7  16
ATOM     16  O   UNL     1       5.272   2.944  19.722  0.00  0.00    +0.000 OA
ATOM     17  H   UNL     1       5.187   2.078  19.281  0.00  0.00    +0.000 HD
ENDBRANCH   7  16
TORSDOF 2
ENDMDL
MODEL 2
REMARK VINA RESULT:      -6.7      0.128      1.212
REMARK  Name = 
REMARK  4 active torsions:
REMARK  status: ('A' for Active; 'I' for Inactive)
REMARK    1  A    between atoms: C_1  and  N_2
REMARK    2  A    between atoms: N_2  and  C_3
REMARK    3  A    between atoms: C_7  and  O_8
REMARK    4  A    between atoms: C_7  and  C_9
REMARK                            x       y       z     vdW  Elec       q    Type
REMARK                         _______ _______ _______ _____ _____    ______ ____
ROOT
ATOM      1  C   UNL     1       0.869   3.867  20.209  0.00  0.00    +0.000 C 
ATOM      2  N   UNL     1       2.205   3.245  19.819  0.00  0.00    +0.000 N 
ATOM      3  C   UNL     1       2.649   2.331  20.958  0.00  0.00    +0.000 C 
ATOM      4  C   UNL     1       2.032   2.456  18.506  0.00  0.00    +0.000 C 
ATOM      5  C   UNL     1       3.377   2.055  17.892  0.00  0.00    +0.000 C 
ATOM      6  O   UNL     1       4.229   3.181  17.667  0.00  0.00    +0.000 OA
ATOM      7  C   UNL     1       4.563   3.883  18.870  0.00  0.00    +0.000 C 
ATOM      8  C   UNL     1       3.254   4.394  19.573  0.00  0.00    +0.000 C 
ENDROOT
BRANCH   7   9
ATOM      9  C   UNL     1       5.477   5.057  18.516  0.00  0.00    +0.000 A 
ATOM     10  C   UNL     1       5.068   6.044  17.602  0.00  0.00    +0.000 A 
ATOM     11  C   UNL     1       5.927   7.084  17.232  0.00  0.00    +0.000 A 
ATOM     12  C   UNL     1       7.206   7.155  17.777  0.00  0.00    +0.000 A 
ATOM     13 CL   UNL     1       8.274   8.411  17.293  0.00  0.00    +0.000 Cl
ATOM     14  C   UNL     1       7.621   6.211  18.708  0.00  0.00    +0.000 A 
ATOM     15  C   UNL     1       6.761   5.174  19.085  0.00  0.00    +0.000 A 
ENDBRANCH   7   9
BRANCH   7  16
ATOM     16  O   UNL     1       5.268   2.986  19.722  0.00  0.00    +0.000 OA
ATOM     17  H   UNL     1       4.745   2.162  19.721  0.00  0.00    +0.000 HD
ENDBRANCH   7  16
TORSDOF 2
ENDMDL
MODEL 3
REMARK VINA RESULT:      -6.4      2.488      3.226
REMARK  Name = 
REMARK  4 active torsions:
REMARK  status: ('A' for Active; 'I' for Inactive)
REMARK    1  A    between atoms: C_1  and  N_2
REMARK    2  A    between atoms: N_2  and  C_3
REMARK    3  A    between atoms: C_7  and  O_8
REMARK    4  A    between atoms: C_7  and  C_9
REMARK                            x       y       z     vdW  Elec       q    Type
REMARK                         _______ _______ _______ _____ _____    ______ ____
ROOT
ATOM      1  C   UNL     1       2.634   2.551  21.466  0.00  0.00    +0.000 C 
ATOM      2  N   UNL     1       2.183   3.592  20.447  0.00  0.00    +0.000 N 
ATOM      3  C   UNL     1       0.784   3.208  19.972  0.00  0.00    +0.000 C 
ATOM      4  C   UNL     1       2.186   4.983  21.110  0.00  0.00    +0.000 C 
ATOM      5  C   UNL     1       2.036   6.112  20.084  0.00  0.00    +0.000 C 
ATOM      6  O   UNL     1       3.044   6.061  19.071  0.00  0.00    +0.000 OA
ATOM      7  C   UNL     1       3.008   4.852  18.303  0.00  0.00    +0.000 C 
ATOM      8  C   UNL     1       3.204   3.612  19.248  0.00  0.00    +0.000 C 
ENDROOT
BRANCH   7   9
ATOM      9  C   UNL     1       4.117   4.906  17.251  0.00  0.00    +0.000 A 
ATOM     10  C   UNL     1       4.576   6.135  16.743  0.00  0.00    +0.000 A 
ATOM     11  C   UNL     1       5.547   6.181  15.738  0.00  0.00    +0.000 A 
ATOM     12  C   UNL     1       6.078   4.999  15.229  0.00  0.00    +0.000 A 
ATOM     13 CL   UNL     1       7.242   5.056  13.967  0.00  0.00    +0.000 Cl
ATOM     14  C   UNL     1       5.665   3.773  15.739  0.00  0.00    +0.000 A 
ATOM     15  C   UNL     1       4.699   3.724  16.749  0.00  0.00    +0.000 A 
ENDBRANCH   7   9
BRANCH   7  16
ATOM     16  O   UNL     1       1.747   4.784  17.646  0.00  0.00    +0.000 OA
ATOM     17  H   UNL     1       1.167   4.282  18.250  0.00  0.00    +0.000 HD
ENDBRANCH   7  16
TORSDOF 2
ENDMDL
MODEL 4
REMARK VINA RESULT:      -6.3      2.455      3.122
REMARK  Name = 
REMARK  4 active torsions:
REMARK  status: ('A' for Active; 'I' for Inactive)
REMARK    1  A    between atoms: C_1  and  N_2
REMARK    2  A    between atoms: N_2  and  C_3
REMARK    3  A    between atoms: C_7  and  O_8
REMARK    4  A    between atoms: C_7  and  C_9
REMARK                            x       y       z     vdW  Elec       q    Type
REMARK                         _______ _______ _______ _____ _____    ______ ____
ROOT
ATOM      1  C   UNL     1       2.672   2.516  21.473  0.00  0.00    +0.000 C 
ATOM      2  N   UNL     1       2.190   3.556  20.468  0.00  0.00    +0.000 N 
ATOM      3  C   UNL     1       0.783   3.163  20.023  0.00  0.00    +0.000 C 
ATOM      4  C   UNL     1       2.196   4.945  21.135  0.00  0.00    +0.000 C 
ATOM      5  C   UNL     1       2.014   6.076  20.117  0.00  0.00    +0.000 C 
ATOM      6  O   UNL     1       2.999   6.036  19.081  0.00  0.00    +0.000 OA
ATOM      7  C   UNL     1       2.956   4.829  18.309  0.00  0.00    +0.000 C 
ATOM      8  C   UNL     1       3.183   3.588  19.246  0.00  0.00    +0.000 C 
ENDROOT
BRANCH   7   9
ATOM      9  C   UNL     1       4.040   4.896  17.233  0.00  0.00    +0.000 A 
ATOM     10  C   UNL     1       4.594   3.724  16.687  0.00  0.00    +0.000 A 
ATOM     11  C   UNL     1       5.627   3.786  15.747  0.00  0.00    +0.000 A 
ATOM     12  C   UNL     1       6.119   5.022  15.335  0.00  0.00    +0.000 A 
ATOM     13 CL   UNL     1       7.415   5.096  14.209  0.00  0.00    +0.000 Cl
ATOM     14  C   UNL     1       5.565   6.194  15.835  0.00  0.00    +0.000 A 
ATOM     15  C   UNL     1       4.526   6.135  16.770  0.00  0.00    +0.000 A 
ENDBRANCH   7   9
BRANCH   7  16
ATOM     16  O   UNL     1       1.681   4.753  17.682  0.00  0.00    +0.000 OA
ATOM     17  H   UNL     1       1.783   5.219  16.830  0.00  0.00    +0.000 HD
ENDBRANCH   7  16
TORSDOF 2
ENDMDL
MODEL 5
REMARK VINA RESULT:      -6.3      3.626      4.287
REMARK  Name = 
REMARK  4 active torsions:
REMARK  status: ('A' for Active; 'I' for Inactive)
REMARK    1  A    between atoms: C_1  and  N_2
REMARK    2  A    between atoms: N_2  and  C_3
REMARK    3  A    between atoms: C_7  and  O_8
REMARK    4  A    between atoms: C_7  and  C_9
REMARK                            x       y       z     vdW  Elec       q    Type
REMARK                         _______ _______ _______ _____ _____    ______ ____
ROOT
ATOM      1  C   UNL     1       1.523   2.127  18.983  0.00  0.00    +0.000 C 
ATOM      2  N   UNL     1       2.658   3.144  18.968  0.00  0.00    +0.000 N 
ATOM      3  C   UNL     1       3.653   2.756  20.059  0.00  0.00    +0.000 C 
ATOM      4  C   UNL     1       3.324   3.138  17.578  0.00  0.00    +0.000 C 
ATOM      5  C   UNL     1       4.268   4.330  17.384  0.00  0.00    +0.000 C 
ATOM      6  O   UNL     1       3.610   5.582  17.596  0.00  0.00    +0.000 OA
ATOM      7  C   UNL     1       3.093   5.728  18.925  0.00  0.00    +0.000 C 
ATOM      8  C   UNL     1       2.064   4.580  19.227  0.00  0.00    +0.000 C 
ENDROOT
BRANCH   7   9
ATOM      9  C   UNL     1       2.421   7.097  19.042  0.00  0.00    +0.000 A 
ATOM     10  C   UNL     1       1.869   7.532  20.260  0.00  0.00    +0.000 A 
ATOM     11  C   UNL     1       1.201   8.758  20.351  0.00  0.00    +0.000 A 
ATOM     12  C   UNL     1       1.082   9.569  19.226  0.00  0.00    +0.000 A 
ATOM     13 CL   UNL     1       0.228  11.057  19.329  0.00  0.00    +0.000 Cl
ATOM     14  C   UNL     1       1.650   9.176  18.019  0.00  0.00    +0.000 A 
ATOM     15  C   UNL     1       2.324   7.954  17.928  0.00  0.00    +0.000 A 
ENDBRANCH   7   9
BRANCH   7  16
ATOM     16  O   UNL     1       4.188   5.668  19.832  0.00  0.00    +0.000 OA
ATOM     17  H   UNL     1       4.285   4.724  20.060  0.00  0.00    +0.000 HD
ENDBRANCH   7  16
TORSDOF 2
ENDMDL
MODEL 6
REMARK VINA RESULT:      -6.2      3.744      4.613
REMARK  Name = 
REMARK  4 active torsions:
REMARK  status: ('A' for Active; 'I' for Inactive)
REMARK    1  A    between atoms: C_1  and  N_2
REMARK    2  A    between atoms: N_2  and  C_3
REMARK    3  A    between atoms: C_7  and  O_8
REMARK    4  A    between atoms: C_7  and  C_9
REMARK                            x       y       z     vdW  Elec       q    Type
REMARK                         _______ _______ _______ _____ _____    ______ ____
ROOT
ATOM      1  C   UNL     1       2.573   2.564  17.442  0.00  0.00    +0.000 C 
ATOM      2  N   UNL     1       3.079   3.441  18.581  0.00  0.00    +0.000 N 
ATOM      3  C   UNL     1       2.823   2.702  19.892  0.00  0.00    +0.000 C 
ATOM      4  C   UNL     1       4.582   3.715  18.380  0.00  0.00    +0.000 C 
ATOM      5  C   UNL     1       5.096   4.822  19.306  0.00  0.00    +0.000 C 
ATOM      6  O   UNL     1       4.362   6.040  19.156  0.00  0.00    +0.000 OA
ATOM      7  C   UNL     1       2.972   5.902  19.476  0.00  0.00    +0.000 C 
ATOM      8  C   UNL     1       2.314   4.818  18.548  0.00  0.00    +0.000 C 
ENDROOT
BRANCH   7   9
ATOM      9  C   UNL     1       2.288   7.256  19.289  0.00  0.00    +0.000 A 
ATOM     10  C   UNL     1       2.338   7.931  18.055  0.00  0.00    +0.000 A 
ATOM     11  C   UNL     1       1.765   9.197  17.902  0.00  0.00    +0.000 A 
ATOM     12  C   UNL     1       1.126   9.805  18.980  0.00  0.00    +0.000 A 
ATOM     13 CL   UNL     1       0.456  11.377  18.801  0.00  0.00    +0.000 Cl
ATOM     14  C   UNL     1       1.034   9.145  20.199  0.00  0.00    +0.000 A 
ATOM     15  C   UNL     1       1.601   7.875  20.353  0.00  0.00    +0.000 A 
ENDBRANCH   7   9
BRANCH   7  16
ATOM     16  O   UNL     1       2.871   5.515  20.842  0.00  0.00    +0.000 OA
ATOM     17  H   UNL     1       2.822   4.541  20.833  0.00  0.00    +0.000 HD
ENDBRANCH   7  16
TORSDOF 2
ENDMDL
MODEL 7
REMARK VINA RESULT:      -6.2      3.692      4.555
REMARK  Name = 
REMARK  4 active torsions:
REMARK  status: ('A' for Active; 'I' for Inactive)
REMARK    1  A    between atoms: C_1  and  N_2
REMARK    2  A    between atoms: N_2  and  C_3
REMARK    3  A    between atoms: C_7  and  O_8
REMARK    4  A    between atoms: C_7  and  C_9
REMARK                            x       y       z     vdW  Elec       q    Type
REMARK                         _______ _______ _______ _____ _____    ______ ____
ROOT
ATOM      1  C   UNL     1       2.218   2.175  18.190  0.00  0.00    +0.000 C 
ATOM      2  N   UNL     1       3.215   3.304  18.422  0.00  0.00    +0.000 N 
ATOM      3  C   UNL     1       4.153   2.879  19.549  0.00  0.00    +0.000 C 
ATOM      4  C   UNL     1       3.993   3.568  17.118  0.00  0.00    +0.000 C 
ATOM      5  C   UNL     1       4.795   4.872  17.178  0.00  0.00    +0.000 C 
ATOM      6  O   UNL     1       3.972   6.001  17.482  0.00  0.00    +0.000 OA
ATOM      7  C   UNL     1       3.329   5.901  18.759  0.00  0.00    +0.000 C 
ATOM      8  C   UNL     1       2.428   4.614  18.803  0.00  0.00    +0.000 C 
ENDROOT
BRANCH   7   9
ATOM      9  C   UNL     1       2.486   7.156  18.983  0.00  0.00    +0.000 A 
ATOM     10  C   UNL     1       2.263   8.077  17.943  0.00  0.00    +0.000 A 
ATOM     11  C   UNL     1       1.543   9.254  18.166  0.00  0.00    +0.000 A 
ATOM     12  C   UNL     1       1.028   9.526  19.430  0.00  0.00    +0.000 A 
ATOM     13 CL   UNL     1       0.176  10.992  19.712  0.00  0.00    +0.000 Cl
ATOM     14  C   UNL     1       1.205   8.615  20.465  0.00  0.00    +0.000 A 
ATOM     15  C   UNL     1       1.920   7.433  20.244  0.00  0.00    +0.000 A 
ENDBRANCH   7   9
BRANCH   7  16
ATOM     16  O   UNL     1       4.341   5.835  19.758  0.00  0.00    +0.000 OA
ATOM     17  H   UNL     1       4.891   6.629  19.622  0.00  0.00    +0.000 HD
ENDBRANCH   7  16
TORSDOF 2
ENDMDL
MODEL 8
REMARK VINA RESULT:      -6.2      2.145      2.471
REMARK  Name = 
REMARK  4 active torsions:
REMARK  status: ('A' for Active; 'I' for Inactive)
REMARK    1  A    between atoms: C_1  and  N_2
REMARK    2  A    between atoms: N_2  and  C_3
REMARK    3  A    between atoms: C_7  and  O_8
REMARK    4  A    between atoms: C_7  and  C_9
REMARK                            x       y       z     vdW  Elec       q    Type
REMARK                         _______ _______ _______ _____ _____    ______ ____
ROOT
ATOM      1  C   UNL     1       0.767   3.489  19.494  0.00  0.00    +0.000 C 
ATOM      2  N   UNL     1       2.218   3.739  19.890  0.00  0.00    +0.000 N 
ATOM      3  C   UNL     1       2.239   4.886  20.897  0.00  0.00    +0.000 C 
ATOM      4  C   UNL     1       2.805   2.451  20.500  0.00  0.00    +0.000 C 
ATOM      5  C   UNL     1       4.329   2.525  20.647  0.00  0.00    +0.000 C 
ATOM      6  O   UNL     1       4.980   2.809  19.407  0.00  0.00    +0.000 OA
ATOM      7  C   UNL     1       4.599   4.072  18.847  0.00  0.00    +0.000 C 
ATOM      8  C   UNL     1       3.047   4.100  18.601  0.00  0.00    +0.000 C 
ENDROOT
BRANCH   7   9
ATOM      9  C   UNL     1       5.356   4.276  17.535  0.00  0.00    +0.000 A 
ATOM     10  C   UNL     1       6.715   4.637  17.529  0.00  0.00    +0.000 A 
ATOM     11  C   UNL     1       7.390   4.883  16.329  0.00  0.00    +0.000 A 
ATOM     12  C   UNL     1       6.717   4.764  15.116  0.00  0.00    +0.000 A 
ATOM     13 CL   UNL     1       7.537   5.104  13.645  0.00  0.00    +0.000 Cl
ATOM     14  C   UNL     1       5.383   4.376  15.094  0.00  0.00    +0.000 A 
ATOM     15  C   UNL     1       4.707   4.123  16.293  0.00  0.00    +0.000 A 
ENDBRANCH   7   9
BRANCH   7  16
ATOM     16  O   UNL     1       4.976   5.092  19.766  0.00  0.00    +0.000 OA
ATOM     17  H   UNL     1       5.535   4.649  20.431  0.00  0.00    +0.000 HD
ENDBRANCH   7  16
TORSDOF 2
ENDMDL
MODEL 9
REMARK VINA RESULT:      -6.2      3.790      4.597
REMARK  Name = 
REMARK  4 active torsions:
REMARK  status: ('A' for Active; 'I' for Inactive)
REMARK    1  A    between atoms: C_1  and  N_2
REMARK    2  A    between atoms: N_2  and  C_3
REMARK    3  A    between atoms: C_7  and  O_8
REMARK    4  A    between atoms: C_7  and  C_9
REMARK                            x       y       z     vdW  Elec       q    Type
REMARK                         _______ _______ _______ _____ _____    ______ ____
ROOT
ATOM      1  C   UNL     1       2.603   2.650  17.303  0.00  0.00    +0.000 C 
ATOM      2  N   UNL     1       3.112   3.489  18.471  0.00  0.00    +0.000 N 
ATOM      3  C   UNL     1       2.852   2.710  19.757  0.00  0.00    +0.000 C 
ATOM      4  C   UNL     1       4.617   3.763  18.279  0.00  0.00    +0.000 C 
ATOM      5  C   UNL     1       5.135   4.838  19.240  0.00  0.00    +0.000 C 
ATOM      6  O   UNL     1       4.406   6.063  19.128  0.00  0.00    +0.000 OA
ATOM      7  C   UNL     1       3.015   5.920  19.443  0.00  0.00    +0.000 C 
ATOM      8  C   UNL     1       2.354   4.869  18.480  0.00  0.00    +0.000 C 
ENDROOT
BRANCH   7   9
ATOM      9  C   UNL     1       2.337   7.283  19.298  0.00  0.00    +0.000 A 
ATOM     10  C   UNL     1       1.665   7.878  20.381  0.00  0.00    +0.000 A 
ATOM     11  C   UNL     1       0.994   9.096  20.230  0.00  0.00    +0.000 A 
ATOM     12  C   UNL     1       0.991   9.740  18.996  0.00  0.00    +0.000 A 
ATOM     13 CL   UNL     1       0.133  11.217  18.803  0.00  0.00    +0.000 Cl
ATOM     14  C   UNL     1       1.677   9.189  17.920  0.00  0.00    +0.000 A 
ATOM     15  C   UNL     1       2.355   7.974  18.070  0.00  0.00    +0.000 A 
ENDBRANCH   7   9
BRANCH   7  16
ATOM     16  O   UNL     1       2.912   5.491  20.796  0.00  0.00    +0.000 OA
ATOM     17  H   UNL     1       2.863   4.517  20.757  0.00  0.00    +0.000 HD
ENDBRANCH   7  16
TORSDOF 2
ENDMDL
