MODEL 1
REMARK VINA RESULT:      -7.8      0.000      0.000
REMARK  Name = 
REMARK  10 active torsions:
REMARK  status: ('A' for Active; 'I' for Inactive)
REMARK    1  A    between atoms: C_1  and  C_2
REMARK    2  A    between atoms: C_5  and  C_6
REMARK    3  A    between atoms: C_6  and  S_7
REMARK    4  A    between atoms: S_7  and  C_8
REMARK    5  A    between atoms: C_8  and  C_19
REMARK    6  A    between atoms: C_9  and  C_10
REMARK    7  A    between atoms: C_13  and  N_14
REMARK    8  A    between atoms: N_14  and  C_15
REMARK    9  A    between atoms: N_14  and  C_16
REMARK   10  A    between atoms: C_19  and  C_21
REMARK                            x       y       z     vdW  Elec       q    Type
REMARK                         _______ _______ _______ _____ _____    ______ ____
ROOT
ATOM      1  C   UNL     1       4.098   4.949  17.206  0.00  0.00    +0.000 C 
ATOM      2  C   UNL     1       4.121   6.202  17.707  0.00  0.00    +0.000 C 
ENDROOT
BRANCH   2   3
ATOM      3  C   UNL     1       3.053   6.977  18.365  0.00  0.00    +0.000 A 
ATOM      4  C   UNL     1       2.646   6.770  19.681  0.00  0.00    +0.000 A 
ATOM      5  C   UNL     1       1.724   7.651  20.294  0.00  0.00    +0.000 A 
ATOM      6  C   UNL     1       1.176   8.761  19.627  0.00  0.00    +0.000 A 
ATOM      7  C   UNL     1       1.578   8.917  18.291  0.00  0.00    +0.000 A 
ATOM      8  C   UNL     1       2.497   8.054  17.672  0.00  0.00    +0.000 A 
BRANCH   6   9
ATOM      9  N   UNL     1       0.260   9.632  20.208  0.00  0.00    +0.000 N 
ATOM     10  C   UNL     1      -0.129   9.483  21.612  0.00  0.00    +0.000 C 
ATOM     11  C   UNL     1      -0.669  10.431  19.415  0.00  0.00    +0.000 C 
ENDBRANCH   6   9
ENDBRANCH   2   3
BRANCH   1  12
ATOM     12  C   UNL     1       2.873   4.062  17.303  0.00  0.00    +0.000 C 
ATOM     13  O   UNL     1       2.286   3.653  16.304  0.00  0.00    +0.000 OA
BRANCH  12  14
ATOM     14  C   UNL     1       2.371   3.619  18.643  0.00  0.00    +0.000 A 
ATOM     15  C   UNL     1       1.008   3.605  18.976  0.00  0.00    +0.000 A 
ATOM     16  C   UNL     1       0.593   3.196  20.249  0.00  0.00    +0.000 A 
ATOM     17  C   UNL     1       1.534   2.763  21.183  0.00  0.00    +0.000 A 
ATOM     18 CL   UNL     1       1.015   2.239  22.737  0.00  0.00    +0.000 Cl
ATOM     19  C   UNL     1       2.888   2.741  20.857  0.00  0.00    +0.000 A 
ATOM     20  C   UNL     1       3.305   3.167  19.591  0.00  0.00    +0.000 A 
ENDBRANCH  12  14
ENDBRANCH   1  12
BRANCH   1  21
ATOM     21  S   UNL     1       5.352   4.375  16.117  0.00  0.00    +0.000 S 
BRANCH  21  22
ATOM     22  C   UNL     1       6.851   4.215  17.129  0.00  0.00    +0.000 C 
BRANCH  22  27
ATOM     23  C   UNL     1       8.841   9.448  18.809  0.00  0.00    +0.000 C 
ATOM     24  C   UNL     1       8.312   8.109  18.383  0.00  0.00    +0.000 A 
ATOM     25  C   UNL     1       7.741   7.933  17.115  0.00  0.00    +0.000 A 
ATOM     26  C   UNL     1       7.261   6.684  16.726  0.00  0.00    +0.000 A 
ATOM     27  C   UNL     1       7.342   5.575  17.584  0.00  0.00    +0.000 A 
ATOM     28  C   UNL     1       7.919   5.754  18.849  0.00  0.00    +0.000 A 
ATOM     29  C   UNL     1       8.396   7.010  19.247  0.00  0.00    +0.000 A 
ENDBRANCH  22  27
ENDBRANCH  21  22
ENDBRANCH   1  21
TORSDOF 7
ENDMDL
MODEL 2
REMARK VINA RESULT:      -7.6      3.684      5.971
REMARK  Name = 
REMARK  10 active torsions:
REMARK  status: ('A' for Active; 'I' for Inactive)
REMARK    1  A    between atoms: C_1  and  C_2
REMARK    2  A    between atoms: C_5  and  C_6
REMARK    3  A    between atoms: C_6  and  S_7
REMARK    4  A    between atoms: S_7  and  C_8
REMARK    5  A    between atoms: C_8  and  C_19
REMARK    6  A    between atoms: C_9  and  C_10
REMARK    7  A    between atoms: C_13  and  N_14
REMARK    8  A    between atoms: N_14  and  C_15
REMARK    9  A    between atoms: N_14  and  C_16
REMARK   10  A    between atoms: C_19  and  C_21
REMARK                            x       y       z     vdW  Elec       q    Type
REMARK                         _______ _______ _______ _____ _____    ______ ____
ROOT
ATOM      1  C   UNL     1       6.871   6.447  17.811  0.00  0.00    +0.000 C 
ATOM      2  C   UNL     1       5.711   6.516  18.498  0.00  0.00    +0.000 C 
ENDROOT
BRANCH   2   3
ATOM      3  C   UNL     1       4.709   5.467  18.769  0.00  0.00    +0.000 A 
ATOM      4  C   UNL     1       5.008   4.252  19.379  0.00  0.00    +0.000 A 
ATOM      5  C   UNL     1       3.973   3.360  19.745  0.00  0.00    +0.000 A 
ATOM      6  C   UNL     1       2.613   3.641  19.521  0.00  0.00    +0.000 A 
ATOM      7  C   UNL     1       2.351   4.856  18.869  0.00  0.00    +0.000 A 
ATOM      8  C   UNL     1       3.368   5.753  18.505  0.00  0.00    +0.000 A 
BRANCH   6   9
ATOM      9  N   UNL     1       1.582   2.772  19.863  0.00  0.00    +0.000 N 
ATOM     10  C   UNL     1       0.591   2.355  18.868  0.00  0.00    +0.000 C 
ATOM     11  C   UNL     1       1.159   2.569  21.245  0.00  0.00    +0.000 C 
ENDBRANCH   6   9
ENDBRANCH   2   3
BRANCH   1  12
ATOM     12  C   UNL     1       7.377   5.153  17.206  0.00  0.00    +0.000 C 
ATOM     13  O   UNL     1       8.161   4.419  17.803  0.00  0.00    +0.000 OA
BRANCH  12  14
ATOM     14  C   UNL     1       6.885   4.709  15.861  0.00  0.00    +0.000 A 
ATOM     15  C   UNL     1       7.532   5.054  14.666  0.00  0.00    +0.000 A 
ATOM     16  C   UNL     1       7.022   4.626  13.435  0.00  0.00    +0.000 A 
ATOM     17  C   UNL     1       5.884   3.820  13.394  0.00  0.00    +0.000 A 
ATOM     18 CL   UNL     1       5.276   3.278  11.878  0.00  0.00    +0.000 Cl
ATOM     19  C   UNL     1       5.248   3.443  14.574  0.00  0.00    +0.000 A 
ATOM     20  C   UNL     1       5.747   3.886  15.805  0.00  0.00    +0.000 A 
ENDBRANCH  12  14
ENDBRANCH   1  12
BRANCH   1  21
ATOM     21  S   UNL     1       7.705   7.899  17.276  0.00  0.00    +0.000 S 
BRANCH  21  22
ATOM     22  C   UNL     1       8.621   8.504  18.723  0.00  0.00    +0.000 C 
BRANCH  22  27
ATOM     23  C   UNL     1       9.709  14.233  18.327  0.00  0.00    +0.000 C 
ATOM     24  C   UNL     1       9.444  12.758  18.417  0.00  0.00    +0.000 A 
ATOM     25  C   UNL     1      10.160  11.953  19.314  0.00  0.00    +0.000 A 
ATOM     26  C   UNL     1       9.900  10.587  19.396  0.00  0.00    +0.000 A 
ATOM     27  C   UNL     1       8.918   9.984  18.593  0.00  0.00    +0.000 A 
ATOM     28  C   UNL     1       8.200  10.794  17.700  0.00  0.00    +0.000 A 
ATOM     29  C   UNL     1       8.463  12.167  17.611  0.00  0.00    +0.000 A 
ENDBRANCH  22  27
ENDBRANCH  21  22
ENDBRANCH   1  21
TORSDOF 7
ENDMDL
MODEL 3
REMARK VINA RESULT:      -7.4      3.800      6.339
REMARK  Name = 
REMARK  10 active torsions:
REMARK  status: ('A' for Active; 'I' for Inactive)
REMARK    1  A    between atoms: C_1  and  C_2
REMARK    2  A    between atoms: C_5  and  C_6
REMARK    3  A    between atoms: C_6  and  S_7
REMARK    4  A    between atoms: S_7  and  C_8
REMARK    5  A    between atoms: C_8  and  C_19
REMARK    6  A    between atoms: C_9  and  C_10
REMARK    7  A    between atoms: C_13  and  N_14
REMARK    8  A    between atoms: N_14  and  C_15
REMARK    9  A    between atoms: N_14  and  C_16
REMARK   10  A    between atoms: C_19  and  C_21
REMARK                            x       y       z     vdW  Elec       q    Type
REMARK                         _______ _______ _______ _____ _____    ______ ____
ROOT
ATOM      1  C   UNL     1       7.226   6.406  17.520  0.00  0.00    +0.000 C 
ATOM      2  C   UNL     1       7.093   6.483  16.179  0.00  0.00    +0.000 C 
ENDROOT
BRANCH   2   3
ATOM      3  C   UNL     1       6.619   5.470  15.217  0.00  0.00    +0.000 A 
ATOM      4  C   UNL     1       5.333   4.938  15.225  0.00  0.00    +0.000 A 
ATOM      5  C   UNL     1       4.902   4.087  14.180  0.00  0.00    +0.000 A 
ATOM      6  C   UNL     1       5.728   3.737  13.096  0.00  0.00    +0.000 A 
ATOM      7  C   UNL     1       7.029   4.260  13.140  0.00  0.00    +0.000 A 
ATOM      8  C   UNL     1       7.468   5.110  14.168  0.00  0.00    +0.000 A 
BRANCH   6   9
ATOM      9  N   UNL     1       5.326   2.893  12.065  0.00  0.00    +0.000 N 
ATOM     10  C   UNL     1       6.261   1.933  11.476  0.00  0.00    +0.000 C 
ATOM     11  C   UNL     1       4.161   3.177  11.234  0.00  0.00    +0.000 C 
ENDBRANCH   6   9
ENDBRANCH   2   3
BRANCH   1  12
ATOM     12  C   UNL     1       6.825   5.171  18.303  0.00  0.00    +0.000 C 
ATOM     13  O   UNL     1       7.638   4.302  18.609  0.00  0.00    +0.000 OA
BRANCH  12  14
ATOM     14  C   UNL     1       5.411   5.004  18.771  0.00  0.00    +0.000 A 
ATOM     15  C   UNL     1       4.497   6.068  18.814  0.00  0.00    +0.000 A 
ATOM     16  C   UNL     1       3.192   5.861  19.275  0.00  0.00    +0.000 A 
ATOM     17  C   UNL     1       2.781   4.585  19.659  0.00  0.00    +0.000 A 
ATOM     18 CL   UNL     1       1.168   4.335  20.202  0.00  0.00    +0.000 Cl
ATOM     19  C   UNL     1       3.668   3.513  19.592  0.00  0.00    +0.000 A 
ATOM     20  C   UNL     1       4.979   3.722  19.149  0.00  0.00    +0.000 A 
ENDBRANCH  12  14
ENDBRANCH   1  12
BRANCH   1  21
ATOM     21  S   UNL     1       8.178   7.582  18.415  0.00  0.00    +0.000 S 
BRANCH  21  22
ATOM     22  C   UNL     1       7.874   9.180  17.608  0.00  0.00    +0.000 C 
BRANCH  22  27
ATOM     23  C   UNL     1      10.838  13.463  20.262  0.00  0.00    +0.000 C 
ATOM     24  C   UNL     1      10.060  12.368  19.588  0.00  0.00    +0.000 A 
ATOM     25  C   UNL     1       9.377  12.608  18.387  0.00  0.00    +0.000 A 
ATOM     26  C   UNL     1       8.666  11.583  17.767  0.00  0.00    +0.000 A 
ATOM     27  C   UNL     1       8.620  10.292  18.318  0.00  0.00    +0.000 A 
ATOM     28  C   UNL     1       9.309  10.056  19.516  0.00  0.00    +0.000 A 
ATOM     29  C   UNL     1      10.019  11.085  20.147  0.00  0.00    +0.000 A 
ENDBRANCH  22  27
ENDBRANCH  21  22
ENDBRANCH   1  21
TORSDOF 7
ENDMDL
MODEL 4
REMARK VINA RESULT:      -7.4      4.622      7.764
REMARK  Name = 
REMARK  10 active torsions:
REMARK  status: ('A' for Active; 'I' for Inactive)
REMARK    1  A    between atoms: C_1  and  C_2
REMARK    2  A    between atoms: C_5  and  C_6
REMARK    3  A    between atoms: C_6  and  S_7
REMARK    4  A    between atoms: S_7  and  C_8
REMARK    5  A    between atoms: C_8  and  C_19
REMARK    6  A    between atoms: C_9  and  C_10
REMARK    7  A    between atoms: C_13  and  N_14
REMARK    8  A    between atoms: N_14  and  C_15
REMARK    9  A    between atoms: N_14  and  C_16
REMARK   10  A    between atoms: C_19  and  C_21
REMARK                            x       y       z     vdW  Elec       q    Type
REMARK                         _______ _______ _______ _____ _____    ______ ____
ROOT
ATOM      1  C   UNL     1       0.663   9.878  19.540  0.00  0.00    +0.000 C 
ATOM      2  C   UNL     1       0.608  10.003  20.882  0.00  0.00    +0.000 C 
ENDROOT
BRANCH   2   3
ATOM      3  C   UNL     1       0.032  11.081  21.709  0.00  0.00    +0.000 A 
ATOM      4  C   UNL     1       0.343  12.428  21.549  0.00  0.00    +0.000 A 
ATOM      5  C   UNL     1      -0.362  13.419  22.272  0.00  0.00    +0.000 A 
ATOM      6  C   UNL     1      -1.395  13.108  23.175  0.00  0.00    +0.000 A 
ATOM      7  C   UNL     1      -1.656  11.739  23.340  0.00  0.00    +0.000 A 
ATOM      8  C   UNL     1      -0.968  10.746  22.624  0.00  0.00    +0.000 A 
BRANCH   6   9
ATOM      9  N   UNL     1      -2.092  14.066  23.904  0.00  0.00    +0.000 N 
ATOM     10  C   UNL     1      -1.382  15.132  24.614  0.00  0.00    +0.000 C 
ATOM     11  C   UNL     1      -3.460  13.852  24.366  0.00  0.00    +0.000 C 
ENDBRANCH   6   9
ENDBRANCH   2   3
BRANCH   1  12
ATOM     12  C   UNL     1       0.041  10.898  18.606  0.00  0.00    +0.000 C 
ATOM     13  O   UNL     1       0.720  11.714  17.988  0.00  0.00    +0.000 OA
BRANCH  12  14
ATOM     14  C   UNL     1      -1.440  10.901  18.378  0.00  0.00    +0.000 A 
ATOM     15  C   UNL     1      -2.085   9.950  17.574  0.00  0.00    +0.000 A 
ATOM     16  C   UNL     1      -3.470  10.007  17.381  0.00  0.00    +0.000 A 
ATOM     17  C   UNL     1      -4.223  10.992  18.019  0.00  0.00    +0.000 A 
ATOM     18 CL   UNL     1      -5.928  11.043  17.795  0.00  0.00    +0.000 Cl
ATOM     19  C   UNL     1      -3.601  11.926  18.845  0.00  0.00    +0.000 A 
ATOM     20  C   UNL     1      -2.214  11.880  19.025  0.00  0.00    +0.000 A 
ENDBRANCH  12  14
ENDBRANCH   1  12
BRANCH   1  21
ATOM     21  S   UNL     1       1.740   8.721  18.771  0.00  0.00    +0.000 S 
BRANCH  21  22
ATOM     22  C   UNL     1       2.274   7.592  20.089  0.00  0.00    +0.000 C 
BRANCH  22  27
ATOM     23  C   UNL     1       1.052   2.076  18.588  0.00  0.00    +0.000 C 
ATOM     24  C   UNL     1       1.384   3.488  18.977  0.00  0.00    +0.000 A 
ATOM     25  C   UNL     1       1.891   4.392  18.032  0.00  0.00    +0.000 A 
ATOM     26  C   UNL     1       2.188   5.702  18.401  0.00  0.00    +0.000 A 
ATOM     27  C   UNL     1       1.983   6.152  19.716  0.00  0.00    +0.000 A 
ATOM     28  C   UNL     1       1.470   5.246  20.655  0.00  0.00    +0.000 A 
ATOM     29  C   UNL     1       1.177   3.926  20.290  0.00  0.00    +0.000 A 
ENDBRANCH  22  27
ENDBRANCH  21  22
ENDBRANCH   1  21
TORSDOF 7
ENDMDL
MODEL 5
REMARK VINA RESULT:      -7.3      3.833      6.372
REMARK  Name = 
REMARK  10 active torsions:
REMARK  status: ('A' for Active; 'I' for Inactive)
REMARK    1  A    between atoms: C_1  and  C_2
REMARK    2  A    between atoms: C_5  and  C_6
REMARK    3  A    between atoms: C_6  and  S_7
REMARK    4  A    between atoms: S_7  and  C_8
REMARK    5  A    between atoms: C_8  and  C_19
REMARK    6  A    between atoms: C_9  and  C_10
REMARK    7  A    between atoms: C_13  and  N_14
REMARK    8  A    between atoms: N_14  and  C_15
REMARK    9  A    between atoms: N_14  and  C_16
REMARK   10  A    between atoms: C_19  and  C_21
REMARK                            x       y       z     vdW  Elec       q    Type
REMARK                         _______ _______ _______ _____ _____    ______ ____
ROOT
ATOM      1  C   UNL     1       7.227   6.275  17.455  0.00  0.00    +0.000 C 
ATOM      2  C   UNL     1       7.047   6.430  16.127  0.00  0.00    +0.000 C 
ENDROOT
BRANCH   2   3
ATOM      3  C   UNL     1       6.606   5.454  15.112  0.00  0.00    +0.000 A 
ATOM      4  C   UNL     1       5.319   4.926  15.055  0.00  0.00    +0.000 A 
ATOM      5  C   UNL     1       4.924   4.115  13.966  0.00  0.00    +0.000 A 
ATOM      6  C   UNL     1       5.787   3.801  12.900  0.00  0.00    +0.000 A 
ATOM      7  C   UNL     1       7.087   4.318  13.010  0.00  0.00    +0.000 A 
ATOM      8  C   UNL     1       7.491   5.129  14.083  0.00  0.00    +0.000 A 
BRANCH   6   9
ATOM      9  N   UNL     1       5.421   2.996  11.826  0.00  0.00    +0.000 N 
ATOM     10  C   UNL     1       4.085   3.096  11.235  0.00  0.00    +0.000 C 
ATOM     11  C   UNL     1       6.123   1.757  11.505  0.00  0.00    +0.000 C 
ENDBRANCH   6   9
ENDBRANCH   2   3
BRANCH   1  12
ATOM     12  C   UNL     1       6.929   4.968  18.165  0.00  0.00    +0.000 C 
ATOM     13  O   UNL     1       7.812   4.158  18.434  0.00  0.00    +0.000 OA
BRANCH  12  14
ATOM     14  C   UNL     1       5.530   4.655  18.604  0.00  0.00    +0.000 A 
ATOM     15  C   UNL     1       4.926   3.410  18.375  0.00  0.00    +0.000 A 
ATOM     16  C   UNL     1       3.610   3.174  18.792  0.00  0.00    +0.000 A 
ATOM     17  C   UNL     1       2.906   4.167  19.472  0.00  0.00    +0.000 A 
ATOM     18 CL   UNL     1       1.298   3.862  20.002  0.00  0.00    +0.000 Cl
ATOM     19  C   UNL     1       3.504   5.398  19.734  0.00  0.00    +0.000 A 
ATOM     20  C   UNL     1       4.812   5.641  19.302  0.00  0.00    +0.000 A 
ENDBRANCH  12  14
ENDBRANCH   1  12
BRANCH   1  21
ATOM     21  S   UNL     1       8.133   7.448  18.400  0.00  0.00    +0.000 S 
BRANCH  21  22
ATOM     22  C   UNL     1       7.917   9.039  17.550  0.00  0.00    +0.000 C 
BRANCH  22  27
ATOM     23  C   UNL     1      10.782  13.303  20.339  0.00  0.00    +0.000 C 
ATOM     24  C   UNL     1      10.029  12.214  19.629  0.00  0.00    +0.000 A 
ATOM     25  C   UNL     1       9.483  12.432  18.356  0.00  0.00    +0.000 A 
ATOM     26  C   UNL     1       8.794  11.412  17.703  0.00  0.00    +0.000 A 
ATOM     27  C   UNL     1       8.635  10.148  18.293  0.00  0.00    +0.000 A 
ATOM     28  C   UNL     1       9.187   9.933  19.563  0.00  0.00    +0.000 A 
ATOM     29  C   UNL     1       9.875  10.958  20.227  0.00  0.00    +0.000 A 
ENDBRANCH  22  27
ENDBRANCH  21  22
ENDBRANCH   1  21
TORSDOF 7
ENDMDL
MODEL 6
REMARK VINA RESULT:      -7.2      4.668      7.842
REMARK  Name = 
REMARK  10 active torsions:
REMARK  status: ('A' for Active; 'I' for Inactive)
REMARK    1  A    between atoms: C_1  and  C_2
REMARK    2  A    between atoms: C_5  and  C_6
REMARK    3  A    between atoms: C_6  and  S_7
REMARK    4  A    between atoms: S_7  and  C_8
REMARK    5  A    between atoms: C_8  and  C_19
REMARK    6  A    between atoms: C_9  and  C_10
REMARK    7  A    between atoms: C_13  and  N_14
REMARK    8  A    between atoms: N_14  and  C_15
REMARK    9  A    between atoms: N_14  and  C_16
REMARK   10  A    between atoms: C_19  and  C_21
REMARK                            x       y       z     vdW  Elec       q    Type
REMARK                         _______ _______ _______ _____ _____    ______ ____
ROOT
ATOM      1  C   UNL     1       0.696  10.049  20.050  0.00  0.00    +0.000 C 
ATOM      2  C   UNL     1       1.135  11.208  20.585  0.00  0.00    +0.000 C 
ENDROOT
BRANCH   2   3
ATOM      3  C   UNL     1       1.277  12.540  19.967  0.00  0.00    +0.000 A 
ATOM      4  C   UNL     1       0.639  13.684  20.440  0.00  0.00    +0.000 A 
ATOM      5  C   UNL     1       0.942  14.953  19.893  0.00  0.00    +0.000 A 
ATOM      6  C   UNL     1       1.883  15.130  18.862  0.00  0.00    +0.000 A 
ATOM      7  C   UNL     1       2.477  13.952  18.383  0.00  0.00    +0.000 A 
ATOM      8  C   UNL     1       2.190  12.688  18.922  0.00  0.00    +0.000 A 
BRANCH   6   9
ATOM      9  N   UNL     1       2.186  16.367  18.303  0.00  0.00    +0.000 N 
ATOM     10  C   UNL     1       1.144  17.378  18.109  0.00  0.00    +0.000 C 
ATOM     11  C   UNL     1       3.387  16.589  17.503  0.00  0.00    +0.000 C 
ENDBRANCH   6   9
ENDBRANCH   2   3
BRANCH   1  12
ATOM     12  C   UNL     1       0.196   9.955  18.622  0.00  0.00    +0.000 C 
ATOM     13  O   UNL     1       0.886   9.484  17.722  0.00  0.00    +0.000 OA
BRANCH  12  14
ATOM     14  C   UNL     1      -1.194  10.400  18.283  0.00  0.00    +0.000 A 
ATOM     15  C   UNL     1      -1.895  11.346  19.046  0.00  0.00    +0.000 A 
ATOM     16  C   UNL     1      -3.198  11.715  18.694  0.00  0.00    +0.000 A 
ATOM     17  C   UNL     1      -3.794  11.171  17.556  0.00  0.00    +0.000 A 
ATOM     18 CL   UNL     1      -5.388  11.647  17.116  0.00  0.00    +0.000 Cl
ATOM     19  C   UNL     1      -3.099  10.254  16.770  0.00  0.00    +0.000 A 
ATOM     20  C   UNL     1      -1.803   9.870  17.132  0.00  0.00    +0.000 A 
ENDBRANCH  12  14
ENDBRANCH   1  12
BRANCH   1  21
ATOM     21  S   UNL     1       0.985   8.508  20.844  0.00  0.00    +0.000 S 
BRANCH  21  22
ATOM     22  C   UNL     1       2.326   7.715  19.911  0.00  0.00    +0.000 C 
BRANCH  22  27
ATOM     23  C   UNL     1       1.095   2.124  18.729  0.00  0.00    +0.000 C 
ATOM     24  C   UNL     1       1.393   3.565  19.031  0.00  0.00    +0.000 A 
ATOM     25  C   UNL     1       1.246   4.071  20.330  0.00  0.00    +0.000 A 
ATOM     26  C   UNL     1       1.533   5.408  20.600  0.00  0.00    +0.000 A 
ATOM     27  C   UNL     1       1.981   6.274  19.590  0.00  0.00    +0.000 A 
ATOM     28  C   UNL     1       2.132   5.762  18.294  0.00  0.00    +0.000 A 
ATOM     29  C   UNL     1       1.838   4.421  18.016  0.00  0.00    +0.000 A 
ENDBRANCH  22  27
ENDBRANCH  21  22
ENDBRANCH   1  21
TORSDOF 7
ENDMDL
MODEL 7
REMARK VINA RESULT:      -7.1      5.048      8.331
REMARK  Name = 
REMARK  10 active torsions:
REMARK  status: ('A' for Active; 'I' for Inactive)
REMARK    1  A    between atoms: C_1  and  C_2
REMARK    2  A    between atoms: C_5  and  C_6
REMARK    3  A    between atoms: C_6  and  S_7
REMARK    4  A    between atoms: S_7  and  C_8
REMARK    5  A    between atoms: C_8  and  C_19
REMARK    6  A    between atoms: C_9  and  C_10
REMARK    7  A    between atoms: C_13  and  N_14
REMARK    8  A    between atoms: N_14  and  C_15
REMARK    9  A    between atoms: N_14  and  C_16
REMARK   10  A    between atoms: C_19  and  C_21
REMARK                            x       y       z     vdW  Elec       q    Type
REMARK                         _______ _______ _______ _____ _____    ______ ____
ROOT
ATOM      1  C   UNL     1      -0.070  10.818  21.818  0.00  0.00    +0.000 C 
ATOM      2  C   UNL     1      -0.857  11.136  22.868  0.00  0.00    +0.000 C 
ENDROOT
BRANCH   2   3
ATOM      3  C   UNL     1      -1.768  12.281  23.055  0.00  0.00    +0.000 A 
ATOM      4  C   UNL     1      -3.156  12.175  23.042  0.00  0.00    +0.000 A 
ATOM      5  C   UNL     1      -3.964  13.286  23.380  0.00  0.00    +0.000 A 
ATOM      6  C   UNL     1      -3.425  14.535  23.741  0.00  0.00    +0.000 A 
ATOM      7  C   UNL     1      -2.025  14.617  23.706  0.00  0.00    +0.000 A 
ATOM      8  C   UNL     1      -1.211  13.520  23.378  0.00  0.00    +0.000 A 
BRANCH   6   9
ATOM      9  N   UNL     1      -4.202  15.642  24.065  0.00  0.00    +0.000 N 
ATOM     10  C   UNL     1      -3.711  16.655  25.002  0.00  0.00    +0.000 C 
ATOM     11  C   UNL     1      -5.649  15.665  23.869  0.00  0.00    +0.000 C 
ENDBRANCH   6   9
ENDBRANCH   2   3
BRANCH   1  12
ATOM     12  C   UNL     1      -0.047  11.644  20.547  0.00  0.00    +0.000 C 
ATOM     13  O   UNL     1       0.825  12.482  20.332  0.00  0.00    +0.000 OA
BRANCH  12  14
ATOM     14  C   UNL     1      -1.079  11.415  19.484  0.00  0.00    +0.000 A 
ATOM     15  C   UNL     1      -2.302  12.101  19.456  0.00  0.00    +0.000 A 
ATOM     16  C   UNL     1      -3.239  11.839  18.450  0.00  0.00    +0.000 A 
ATOM     17  C   UNL     1      -2.943  10.918  17.445  0.00  0.00    +0.000 A 
ATOM     18 CL   UNL     1      -4.089  10.618  16.198  0.00  0.00    +0.000 Cl
ATOM     19  C   UNL     1      -1.720  10.252  17.441  0.00  0.00    +0.000 A 
ATOM     20  C   UNL     1      -0.790  10.500  18.458  0.00  0.00    +0.000 A 
ENDBRANCH  12  14
ENDBRANCH   1  12
BRANCH   1  21
ATOM     21  S   UNL     1       1.223   9.638  21.968  0.00  0.00    +0.000 S 
BRANCH  21  22
ATOM     22  C   UNL     1       0.621   8.138  21.139  0.00  0.00    +0.000 C 
BRANCH  22  27
ATOM     23  C   UNL     1       4.329   6.324  17.000  0.00  0.00    +0.000 C 
ATOM     24  C   UNL     1       3.390   6.799  18.072  0.00  0.00    +0.000 A 
ATOM     25  C   UNL     1       2.792   8.064  17.993  0.00  0.00    +0.000 A 
ATOM     26  C   UNL     1       1.916   8.492  18.989  0.00  0.00    +0.000 A 
ATOM     27  C   UNL     1       1.606   7.672  20.086  0.00  0.00    +0.000 A 
ATOM     28  C   UNL     1       2.203   6.405  20.159  0.00  0.00    +0.000 A 
ATOM     29  C   UNL     1       3.090   5.974  19.163  0.00  0.00    +0.000 A 
ENDBRANCH  22  27
ENDBRANCH  21  22
ENDBRANCH   1  21
TORSDOF 7
ENDMDL
MODEL 8
REMARK VINA RESULT:      -7.1      4.728      8.156
REMARK  Name = 
REMARK  10 active torsions:
REMARK  status: ('A' for Active; 'I' for Inactive)
REMARK    1  A    between atoms: C_1  and  C_2
REMARK    2  A    between atoms: C_5  and  C_6
REMARK    3  A    between atoms: C_6  and  S_7
REMARK    4  A    between atoms: S_7  and  C_8
REMARK    5  A    between atoms: C_8  and  C_19
REMARK    6  A    between atoms: C_9  and  C_10
REMARK    7  A    between atoms: C_13  and  N_14
REMARK    8  A    between atoms: N_14  and  C_15
REMARK    9  A    between atoms: N_14  and  C_16
REMARK   10  A    between atoms: C_19  and  C_21
REMARK                            x       y       z     vdW  Elec       q    Type
REMARK                         _______ _______ _______ _____ _____    ______ ____
ROOT
ATOM      1  C   UNL     1       0.039  10.150  21.526  0.00  0.00    +0.000 C 
ATOM      2  C   UNL     1      -0.666  10.560  22.601  0.00  0.00    +0.000 C 
ENDROOT
BRANCH   2   3
ATOM      3  C   UNL     1      -1.384  11.828  22.834  0.00  0.00    +0.000 A 
ATOM      4  C   UNL     1      -2.712  11.899  23.248  0.00  0.00    +0.000 A 
ATOM      5  C   UNL     1      -3.287  13.143  23.599  0.00  0.00    +0.000 A 
ATOM      6  C   UNL     1      -2.569  14.352  23.552  0.00  0.00    +0.000 A 
ATOM      7  C   UNL     1      -1.247  14.248  23.094  0.00  0.00    +0.000 A 
ATOM      8  C   UNL     1      -0.662  13.019  22.748  0.00  0.00    +0.000 A 
BRANCH   6   9
ATOM      9  N   UNL     1      -3.121  15.586  23.882  0.00  0.00    +0.000 N 
ATOM     10  C   UNL     1      -3.527  16.529  22.838  0.00  0.00    +0.000 C 
ATOM     11  C   UNL     1      -2.941  16.195  25.197  0.00  0.00    +0.000 C 
ENDBRANCH   6   9
ENDBRANCH   2   3
BRANCH   1  12
ATOM     12  C   UNL     1       0.162  10.992  20.271  0.00  0.00    +0.000 C 
ATOM     13  O   UNL     1       1.144  11.698  20.056  0.00  0.00    +0.000 OA
BRANCH  12  14
ATOM     14  C   UNL     1      -0.909  10.941  19.224  0.00  0.00    +0.000 A 
ATOM     15  C   UNL     1      -0.854  10.073  18.124  0.00  0.00    +0.000 A 
ATOM     16  C   UNL     1      -1.874  10.077  17.166  0.00  0.00    +0.000 A 
ATOM     17  C   UNL     1      -2.974  10.921  17.322  0.00  0.00    +0.000 A 
ATOM     18 CL   UNL     1      -4.235  10.904  16.152  0.00  0.00    +0.000 Cl
ATOM     19  C   UNL     1      -3.058  11.767  18.425  0.00  0.00    +0.000 A 
ATOM     20  C   UNL     1      -2.030  11.777  19.374  0.00  0.00    +0.000 A 
ENDBRANCH  12  14
ENDBRANCH   1  12
BRANCH   1  21
ATOM     21  S   UNL     1       1.136   8.780  21.618  0.00  0.00    +0.000 S 
BRANCH  21  22
ATOM     22  C   UNL     1       1.749   8.523  19.928  0.00  0.00    +0.000 C 
BRANCH  22  27
ATOM     23  C   UNL     1       2.604   2.846  18.830  0.00  0.00    +0.000 C 
ATOM     24  C   UNL     1       2.403   4.306  19.118  0.00  0.00    +0.000 A 
ATOM     25  C   UNL     1       2.719   5.277  18.157  0.00  0.00    +0.000 A 
ATOM     26  C   UNL     1       2.520   6.628  18.430  0.00  0.00    +0.000 A 
ATOM     27  C   UNL     1       1.996   7.051  19.663  0.00  0.00    +0.000 A 
ATOM     28  C   UNL     1       1.676   6.076  20.618  0.00  0.00    +0.000 A 
ATOM     29  C   UNL     1       1.880   4.717  20.350  0.00  0.00    +0.000 A 
ENDBRANCH  22  27
ENDBRANCH  21  22
ENDBRANCH   1  21
TORSDOF 7
ENDMDL
MODEL 9
REMARK VINA RESULT:      -7.1      4.660      8.054
REMARK  Name = 
REMARK  10 active torsions:
REMARK  status: ('A' for Active; 'I' for Inactive)
REMARK    1  A    between atoms: C_1  and  C_2
REMARK    2  A    between atoms: C_5  and  C_6
REMARK    3  A    between atoms: C_6  and  S_7
REMARK    4  A    between atoms: S_7  and  C_8
REMARK    5  A    between atoms: C_8  and  C_19
REMARK    6  A    between atoms: C_9  and  C_10
REMARK    7  A    between atoms: C_13  and  N_14
REMARK    8  A    between atoms: N_14  and  C_15
REMARK    9  A    between atoms: N_14  and  C_16
REMARK   10  A    between atoms: C_19  and  C_21
REMARK                            x       y       z     vdW  Elec       q    Type
REMARK                         _______ _______ _______ _____ _____    ______ ____
ROOT
ATOM      1  C   UNL     1       0.041  10.059  21.510  0.00  0.00    +0.000 C 
ATOM      2  C   UNL     1      -0.599  10.480  22.621  0.00  0.00    +0.000 C 
ENDROOT
BRANCH   2   3
ATOM      3  C   UNL     1      -1.238  11.779  22.909  0.00  0.00    +0.000 A 
ATOM      4  C   UNL     1      -0.640  13.009  22.648  0.00  0.00    +0.000 A 
ATOM      5  C   UNL     1      -1.371  14.210  22.807  0.00  0.00    +0.000 A 
ATOM      6  C   UNL     1      -2.713  14.232  23.227  0.00  0.00    +0.000 A 
ATOM      7  C   UNL     1      -3.272  12.977  23.518  0.00  0.00    +0.000 A 
ATOM      8  C   UNL     1      -2.559  11.778  23.359  0.00  0.00    +0.000 A 
BRANCH   6   9
ATOM      9  N   UNL     1      -3.445  15.402  23.400  0.00  0.00    +0.000 N 
ATOM     10  C   UNL     1      -4.873  15.353  23.721  0.00  0.00    +0.000 C 
ATOM     11  C   UNL     1      -2.997  16.688  22.874  0.00  0.00    +0.000 C 
ENDBRANCH   6   9
ENDBRANCH   2   3
BRANCH   1  12
ATOM     12  C   UNL     1       0.162  10.923  20.270  0.00  0.00    +0.000 C 
ATOM     13  O   UNL     1       1.176  11.573  20.027  0.00  0.00    +0.000 OA
BRANCH  12  14
ATOM     14  C   UNL     1      -0.955  10.965  19.271  0.00  0.00    +0.000 A 
ATOM     15  C   UNL     1      -2.060  11.818  19.405  0.00  0.00    +0.000 A 
ATOM     16  C   UNL     1      -3.084  11.806  18.451  0.00  0.00    +0.000 A 
ATOM     17  C   UNL     1      -2.991  10.970  17.339  0.00  0.00    +0.000 A 
ATOM     18 CL   UNL     1      -4.243  10.977  16.159  0.00  0.00    +0.000 Cl
ATOM     19  C   UNL     1      -1.885  10.139  17.176  0.00  0.00    +0.000 A 
ATOM     20  C   UNL     1      -0.869  10.137  18.138  0.00  0.00    +0.000 A 
ENDBRANCH  12  14
ENDBRANCH   1  12
BRANCH   1  21
ATOM     21  S   UNL     1       1.065   8.631  21.529  0.00  0.00    +0.000 S 
BRANCH  21  22
ATOM     22  C   UNL     1       1.687   8.446  19.833  0.00  0.00    +0.000 C 
BRANCH  22  27
ATOM     23  C   UNL     1       3.392   2.936  18.882  0.00  0.00    +0.000 C 
ATOM     24  C   UNL     1       2.937   4.347  19.120  0.00  0.00    +0.000 A 
ATOM     25  C   UNL     1       2.296   4.702  20.315  0.00  0.00    +0.000 A 
ATOM     26  C   UNL     1       1.885   6.016  20.530  0.00  0.00    +0.000 A 
ATOM     27  C   UNL     1       2.106   7.014  19.566  0.00  0.00    +0.000 A 
ATOM     28  C   UNL     1       2.752   6.655  18.375  0.00  0.00    +0.000 A 
ATOM     29  C   UNL     1       3.161   5.334  18.152  0.00  0.00    +0.000 A 
ENDBRANCH  22  27
ENDBRANCH  21  22
ENDBRANCH   1  21
TORSDOF 7
ENDMDL
