MODEL 1
REMARK VINA RESULT:      -6.7      0.000      0.000
REMARK  Name = 
REMARK  3 active torsions:
REMARK  status: ('A' for Active; 'I' for Inactive)
REMARK    1  A    between atoms: C_1  and  C_2
REMARK    2  A    between atoms: C_7  and  C_8
REMARK    3  A    between atoms: C_8  and  N_9
REMARK                            x       y       z     vdW  Elec       q    Type
REMARK                         _______ _______ _______ _____ _____    ______ ____
ROOT
ATOM      1  C   UNL     1       4.264   3.099  18.040  0.00  0.00    +0.000 C 
ENDROOT
BRANCH   1   8
ATOM      2  C   UNL     1       1.465   4.339  17.619  0.00  0.00    +0.000 C 
ATOM      3  C   UNL     1       1.942   3.801  18.937  0.00  0.00    +0.000 A 
ATOM      4  C   UNL     1       1.008   3.767  19.992  0.00  0.00    +0.000 A 
ATOM      5  C   UNL     1       1.331   3.204  21.224  0.00  0.00    +0.000 A 
ATOM      6  C   UNL     1       2.597   2.675  21.436  0.00  0.00    +0.000 A 
ATOM      7  C   UNL     1       3.536   2.704  20.403  0.00  0.00    +0.000 A 
ATOM      8  C   UNL     1       3.224   3.249  19.142  0.00  0.00    +0.000 A 
ENDBRANCH   1   8
BRANCH   1   9
ATOM      9  N   UNL     1       4.829   4.380  17.618  0.00  0.00    +0.000 NA
ATOM     10  C   UNL     1       5.987   4.869  18.379  0.00  0.00    +0.000 C 
ATOM     11  C   UNL     1       7.382   4.576  17.785  0.00  0.00    +0.000 C 
ATOM     12  N   UNL     1       7.500   4.948  16.374  0.00  0.00    +0.000 NA
ATOM     13  C   UNL     1       6.428   4.329  15.592  0.00  0.00    +0.000 C 
ATOM     14  C   UNL     1       5.001   4.498  16.164  0.00  0.00    +0.000 C 
ATOM     15  H   UNL     1       8.398   4.648  16.017  0.00  0.00    +0.000 HD
ENDBRANCH   1   9
TORSDOF 2
ENDMDL
MODEL 2
REMARK VINA RESULT:      -6.6      1.363      1.711
REMARK  Name = 
REMARK  3 active torsions:
REMARK  status: ('A' for Active; 'I' for Inactive)
REMARK    1  A    between atoms: C_1  and  C_2
REMARK    2  A    between atoms: C_7  and  C_8
REMARK    3  A    between atoms: C_8  and  N_9
REMARK                            x       y       z     vdW  Elec       q    Type
REMARK                         _______ _______ _______ _____ _____    ______ ____
ROOT
ATOM      1  C   UNL     1       4.944   4.287  18.777  0.00  0.00    +0.000 C 
ENDROOT
BRANCH   1   8
ATOM      2  C   UNL     1       3.411   1.643  18.316  0.00  0.00    +0.000 C 
ATOM      3  C   UNL     1       2.832   2.818  19.050  0.00  0.00    +0.000 A 
ATOM      4  C   UNL     1       1.569   2.642  19.649  0.00  0.00    +0.000 A 
ATOM      5  C   UNL     1       0.991   3.643  20.425  0.00  0.00    +0.000 A 
ATOM      6  C   UNL     1       1.655   4.848  20.610  0.00  0.00    +0.000 A 
ATOM      7  C   UNL     1       2.906   5.042  20.022  0.00  0.00    +0.000 A 
ATOM      8  C   UNL     1       3.519   4.035  19.250  0.00  0.00    +0.000 A 
ENDBRANCH   1   8
BRANCH   1   9
ATOM      9  N   UNL     1       4.998   5.014  17.510  0.00  0.00    +0.000 NA
ATOM     10  C   UNL     1       5.568   6.369  17.555  0.00  0.00    +0.000 C 
ATOM     11  C   UNL     1       7.058   6.508  17.175  0.00  0.00    +0.000 C 
ATOM     12  N   UNL     1       7.397   5.848  15.912  0.00  0.00    +0.000 NA
ATOM     13  C   UNL     1       6.963   4.451  15.934  0.00  0.00    +0.000 C 
ATOM     14  C   UNL     1       5.505   4.211  16.390  0.00  0.00    +0.000 C 
ATOM     15  H   UNL     1       8.397   5.892  15.765  0.00  0.00    +0.000 HD
ENDBRANCH   1   9
TORSDOF 2
ENDMDL
MODEL 3
REMARK VINA RESULT:      -6.5      1.470      2.198
REMARK  Name = 
REMARK  3 active torsions:
REMARK  status: ('A' for Active; 'I' for Inactive)
REMARK    1  A    between atoms: C_1  and  C_2
REMARK    2  A    between atoms: C_7  and  C_8
REMARK    3  A    between atoms: C_8  and  N_9
REMARK                            x       y       z     vdW  Elec       q    Type
REMARK                         _______ _______ _______ _____ _____    ______ ____
ROOT
ATOM      1  C   UNL     1       3.640   5.229  17.447  0.00  0.00    +0.000 C 
ENDROOT
BRANCH   1   8
ATOM      2  C   UNL     1       2.313   6.348  20.004  0.00  0.00    +0.000 C 
ATOM      3  C   UNL     1       2.086   4.953  19.497  0.00  0.00    +0.000 A 
ATOM      4  C   UNL     1       1.128   4.172  20.173  0.00  0.00    +0.000 A 
ATOM      5  C   UNL     1       0.785   2.900  19.722  0.00  0.00    +0.000 A 
ATOM      6  C   UNL     1       1.399   2.373  18.595  0.00  0.00    +0.000 A 
ATOM      7  C   UNL     1       2.354   3.131  17.914  0.00  0.00    +0.000 A 
ATOM      8  C   UNL     1       2.701   4.429  18.340  0.00  0.00    +0.000 A 
ENDBRANCH   1   8
BRANCH   1   9
ATOM      9  N   UNL     1       4.957   4.607  17.311  0.00  0.00    +0.000 NA
ATOM     10  C   UNL     1       5.337   4.165  15.962  0.00  0.00    +0.000 C 
ATOM     11  C   UNL     1       6.212   5.132  15.135  0.00  0.00    +0.000 C 
ATOM     12  N   UNL     1       7.383   5.621  15.865  0.00  0.00    +0.000 NA
ATOM     13  C   UNL     1       6.979   6.203  17.146  0.00  0.00    +0.000 C 
ATOM     14  C   UNL     1       6.027   5.336  18.003  0.00  0.00    +0.000 C 
ATOM     15  H   UNL     1       7.862   6.318  15.310  0.00  0.00    +0.000 HD
ENDBRANCH   1   9
TORSDOF 2
ENDMDL
MODEL 4
REMARK VINA RESULT:      -6.4      1.357      2.051
REMARK  Name = 
REMARK  3 active torsions:
REMARK  status: ('A' for Active; 'I' for Inactive)
REMARK    1  A    between atoms: C_1  and  C_2
REMARK    2  A    between atoms: C_7  and  C_8
REMARK    3  A    between atoms: C_8  and  N_9
REMARK                            x       y       z     vdW  Elec       q    Type
REMARK                         _______ _______ _______ _____ _____    ______ ____
ROOT
ATOM      1  C   UNL     1       3.554   5.173  17.411  0.00  0.00    +0.000 C 
ENDROOT
BRANCH   1   8
ATOM      2  C   UNL     1       2.517   2.266  17.564  0.00  0.00    +0.000 C 
ATOM      3  C   UNL     1       2.201   3.312  18.594  0.00  0.00    +0.000 A 
ATOM      4  C   UNL     1       1.491   2.894  19.736  0.00  0.00    +0.000 A 
ATOM      5  C   UNL     1       1.230   3.772  20.785  0.00  0.00    +0.000 A 
ATOM      6  C   UNL     1       1.660   5.089  20.713  0.00  0.00    +0.000 A 
ATOM      7  C   UNL     1       2.364   5.522  19.587  0.00  0.00    +0.000 A 
ATOM      8  C   UNL     1       2.657   4.646  18.522  0.00  0.00    +0.000 A 
ENDBRANCH   1   8
BRANCH   1   9
ATOM      9  N   UNL     1       4.953   4.784  17.582  0.00  0.00    +0.000 NA
ATOM     10  C   UNL     1       5.592   4.115  16.440  0.00  0.00    +0.000 C 
ATOM     11  C   UNL     1       6.429   5.004  15.494  0.00  0.00    +0.000 C 
ATOM     12  N   UNL     1       7.392   5.852  16.199  0.00  0.00    +0.000 NA
ATOM     13  C   UNL     1       6.720   6.634  17.237  0.00  0.00    +0.000 C 
ATOM     14  C   UNL     1       5.789   5.834  18.178  0.00  0.00    +0.000 C 
ATOM     15  H   UNL     1       7.841   6.476  15.540  0.00  0.00    +0.000 HD
ENDBRANCH   1   9
TORSDOF 2
ENDMDL
MODEL 5
REMARK VINA RESULT:      -6.3      2.134      5.072
REMARK  Name = 
REMARK  3 active torsions:
REMARK  status: ('A' for Active; 'I' for Inactive)
REMARK    1  A    between atoms: C_1  and  C_2
REMARK    2  A    between atoms: C_7  and  C_8
REMARK    3  A    between atoms: C_8  and  N_9
REMARK                            x       y       z     vdW  Elec       q    Type
REMARK                         _______ _______ _______ _____ _____    ______ ____
ROOT
ATOM      1  C   UNL     1       4.155   4.964  19.421  0.00  0.00    +0.000 C 
ENDROOT
BRANCH   1   8
ATOM      2  C   UNL     1       4.035   6.886  17.004  0.00  0.00    +0.000 C 
ATOM      3  C   UNL     1       5.315   6.481  17.676  0.00  0.00    +0.000 A 
ATOM      4  C   UNL     1       6.496   7.111  17.238  0.00  0.00    +0.000 A 
ATOM      5  C   UNL     1       7.718   6.867  17.860  0.00  0.00    +0.000 A 
ATOM      6  C   UNL     1       7.791   5.979  18.925  0.00  0.00    +0.000 A 
ATOM      7  C   UNL     1       6.630   5.344  19.370  0.00  0.00    +0.000 A 
ATOM      8  C   UNL     1       5.380   5.591  18.769  0.00  0.00    +0.000 A 
ENDBRANCH   1   8
BRANCH   1   9
ATOM      9  N   UNL     1       4.139   3.506  19.309  0.00  0.00    +0.000 NA
ATOM     10  C   UNL     1       3.338   2.781  20.304  0.00  0.00    +0.000 C 
ATOM     11  C   UNL     1       1.909   2.373  19.882  0.00  0.00    +0.000 C 
ATOM     12  N   UNL     1       1.861   1.692  18.587  0.00  0.00    +0.000 NA
ATOM     13  C   UNL     1       2.529   2.496  17.563  0.00  0.00    +0.000 C 
ATOM     14  C   UNL     1       3.935   3.022  17.938  0.00  0.00    +0.000 C 
ATOM     15  H   UNL     1       0.897   1.536  18.321  0.00  0.00    +0.000 HD
ENDBRANCH   1   9
TORSDOF 2
ENDMDL
MODEL 6
REMARK VINA RESULT:      -6.3      1.801      2.436
REMARK  Name = 
REMARK  3 active torsions:
REMARK  status: ('A' for Active; 'I' for Inactive)
REMARK    1  A    between atoms: C_1  and  C_2
REMARK    2  A    between atoms: C_7  and  C_8
REMARK    3  A    between atoms: C_8  and  N_9
REMARK                            x       y       z     vdW  Elec       q    Type
REMARK                         _______ _______ _______ _____ _____    ______ ____
ROOT
ATOM      1  C   UNL     1       5.177   4.939  19.461  0.00  0.00    +0.000 C 
ENDROOT
BRANCH   1   8
ATOM      2  C   UNL     1       2.645   6.060  18.090  0.00  0.00    +0.000 C 
ATOM      3  C   UNL     1       2.856   4.600  18.371  0.00  0.00    +0.000 A 
ATOM      4  C   UNL     1       1.890   3.705  17.872  0.00  0.00    +0.000 A 
ATOM      5  C   UNL     1       2.045   2.327  18.005  0.00  0.00    +0.000 A 
ATOM      6  C   UNL     1       3.161   1.813  18.650  0.00  0.00    +0.000 A 
ATOM      7  C   UNL     1       4.128   2.686  19.153  0.00  0.00    +0.000 A 
ATOM      8  C   UNL     1       4.002   4.082  19.012  0.00  0.00    +0.000 A 
ENDBRANCH   1   8
BRANCH   1   9
ATOM      9  N   UNL     1       6.364   4.751  18.628  0.00  0.00    +0.000 NA
ATOM     10  C   UNL     1       6.134   4.579  17.187  0.00  0.00    +0.000 C 
ATOM     11  C   UNL     1       6.274   5.839  16.306  0.00  0.00    +0.000 C 
ATOM     12  N   UNL     1       7.517   6.576  16.544  0.00  0.00    +0.000 NA
ATOM     13  C   UNL     1       7.665   6.880  17.968  0.00  0.00    +0.000 C 
ATOM     14  C   UNL     1       7.453   5.689  18.932  0.00  0.00    +0.000 C 
ATOM     15  H   UNL     1       7.509   7.436  16.011  0.00  0.00    +0.000 HD
ENDBRANCH   1   9
TORSDOF 2
ENDMDL
MODEL 7
REMARK VINA RESULT:      -6.3      1.781      5.613
REMARK  Name = 
REMARK  3 active torsions:
REMARK  status: ('A' for Active; 'I' for Inactive)
REMARK    1  A    between atoms: C_1  and  C_2
REMARK    2  A    between atoms: C_7  and  C_8
REMARK    3  A    between atoms: C_8  and  N_9
REMARK                            x       y       z     vdW  Elec       q    Type
REMARK                         _______ _______ _______ _____ _____    ______ ____
ROOT
ATOM      1  C   UNL     1       4.064   4.798  19.143  0.00  0.00    +0.000 C 
ENDROOT
BRANCH   1   8
ATOM      2  C   UNL     1       7.062   5.503  19.405  0.00  0.00    +0.000 C 
ATOM      3  C   UNL     1       6.425   5.059  18.119  0.00  0.00    +0.000 A 
ATOM      4  C   UNL     1       7.280   4.851  17.019  0.00  0.00    +0.000 A 
ATOM      5  C   UNL     1       6.795   4.355  15.812  0.00  0.00    +0.000 A 
ATOM      6  C   UNL     1       5.445   4.067  15.671  0.00  0.00    +0.000 A 
ATOM      7  C   UNL     1       4.582   4.270  16.750  0.00  0.00    +0.000 A 
ATOM      8  C   UNL     1       5.054   4.752  17.987  0.00  0.00    +0.000 A 
ENDBRANCH   1   8
BRANCH   1   9
ATOM      9  N   UNL     1       3.152   3.655  19.151  0.00  0.00    +0.000 NA
ATOM     10  C   UNL     1       3.375   2.645  20.195  0.00  0.00    +0.000 C 
ATOM     11  C   UNL     1       2.511   2.763  21.470  0.00  0.00    +0.000 C 
ATOM     12  N   UNL     1       1.081   2.906  21.189  0.00  0.00    +0.000 NA
ATOM     13  C   UNL     1       0.852   4.017  20.265  0.00  0.00    +0.000 C 
ATOM     14  C   UNL     1       1.739   4.027  18.998  0.00  0.00    +0.000 C 
ATOM     15  H   UNL     1       0.581   3.073  22.053  0.00  0.00    +0.000 HD
ENDBRANCH   1   9
TORSDOF 2
ENDMDL
MODEL 8
REMARK VINA RESULT:      -6.3      0.485      1.875
REMARK  Name = 
REMARK  3 active torsions:
REMARK  status: ('A' for Active; 'I' for Inactive)
REMARK    1  A    between atoms: C_1  and  C_2
REMARK    2  A    between atoms: C_7  and  C_8
REMARK    3  A    between atoms: C_8  and  N_9
REMARK                            x       y       z     vdW  Elec       q    Type
REMARK                         _______ _______ _______ _____ _____    ______ ____
ROOT
ATOM      1  C   UNL     1       4.085   3.051  17.655  0.00  0.00    +0.000 C 
ENDROOT
BRANCH   1   8
ATOM      2  C   UNL     1       4.741   1.877  20.438  0.00  0.00    +0.000 C 
ATOM      3  C   UNL     1       3.454   2.582  20.120  0.00  0.00    +0.000 A 
ATOM      4  C   UNL     1       2.566   2.809  21.190  0.00  0.00    +0.000 A 
ATOM      5  C   UNL     1       1.390   3.533  21.010  0.00  0.00    +0.000 A 
ATOM      6  C   UNL     1       1.067   4.035  19.758  0.00  0.00    +0.000 A 
ATOM      7  C   UNL     1       1.935   3.818  18.685  0.00  0.00    +0.000 A 
ATOM      8  C   UNL     1       3.140   3.106  18.848  0.00  0.00    +0.000 A 
ENDBRANCH   1   8
BRANCH   1   9
ATOM      9  N   UNL     1       4.675   4.352  17.341  0.00  0.00    +0.000 NA
ATOM     10  C   UNL     1       5.708   4.844  18.264  0.00  0.00    +0.000 C 
ATOM     11  C   UNL     1       7.176   4.591  17.861  0.00  0.00    +0.000 C 
ATOM     12  N   UNL     1       7.478   4.998  16.487  0.00  0.00    +0.000 NA
ATOM     13  C   UNL     1       6.536   4.378  15.553  0.00  0.00    +0.000 C 
ATOM     14  C   UNL     1       5.041   4.508  15.927  0.00  0.00    +0.000 C 
ATOM     15  H   UNL     1       8.422   4.722  16.250  0.00  0.00    +0.000 HD
ENDBRANCH   1   9
TORSDOF 2
ENDMDL
MODEL 9
REMARK VINA RESULT:      -6.3      2.130      5.394
REMARK  Name = 
REMARK  3 active torsions:
REMARK  status: ('A' for Active; 'I' for Inactive)
REMARK    1  A    between atoms: C_1  and  C_2
REMARK    2  A    between atoms: C_7  and  C_8
REMARK    3  A    between atoms: C_8  and  N_9
REMARK                            x       y       z     vdW  Elec       q    Type
REMARK                         _______ _______ _______ _____ _____    ______ ____
ROOT
ATOM      1  C   UNL     1       4.075   4.645  19.078  0.00  0.00    +0.000 C 
ENDROOT
BRANCH   1   8
ATOM      2  C   UNL     1       3.762   7.379  17.671  0.00  0.00    +0.000 C 
ATOM      3  C   UNL     1       4.428   6.193  17.035  0.00  0.00    +0.000 A 
ATOM      4  C   UNL     1       5.033   6.393  15.779  0.00  0.00    +0.000 A 
ATOM      5  C   UNL     1       5.751   5.377  15.153  0.00  0.00    +0.000 A 
ATOM      6  C   UNL     1       5.869   4.135  15.759  0.00  0.00    +0.000 A 
ATOM      7  C   UNL     1       5.273   3.917  17.003  0.00  0.00    +0.000 A 
ATOM      8  C   UNL     1       4.560   4.936  17.664  0.00  0.00    +0.000 A 
ENDBRANCH   1   8
BRANCH   1   9
ATOM      9  N   UNL     1       3.123   3.537  19.132  0.00  0.00    +0.000 NA
ATOM     10  C   UNL     1       3.313   2.562  20.216  0.00  0.00    +0.000 C 
ATOM     11  C   UNL     1       2.457   2.760  21.486  0.00  0.00    +0.000 C 
ATOM     12  N   UNL     1       1.033   2.943  21.201  0.00  0.00    +0.000 NA
ATOM     13  C   UNL     1       0.840   4.024  20.233  0.00  0.00    +0.000 C 
ATOM     14  C   UNL     1       1.724   3.952  18.966  0.00  0.00    +0.000 C 
ATOM     15  H   UNL     1       0.540   3.161  22.057  0.00  0.00    +0.000 HD
ENDBRANCH   1   9
TORSDOF 2
ENDMDL
