MODEL 1
REMARK VINA RESULT:      -5.6      0.000      0.000
REMARK  Name = 
REMARK  11 active torsions:
REMARK  status: ('A' for Active; 'I' for Inactive)
REMARK    1  A    between atoms: C_2  and  C_3
REMARK    2  A    between atoms: C_3  and  C_4
REMARK    3  A    between atoms: C_7  and  C_8
REMARK    4  A    between atoms: C_8  and  C_10
REMARK    5  A    between atoms: C_10  and  O_11
REMARK    6  A    between atoms: O_11  and  C_12
REMARK    7  A    between atoms: C_12  and  C_13
REMARK    8  A    between atoms: C_13  and  O_14
REMARK    9  A    between atoms: O_14  and  C_15
REMARK   10  A    between atoms: C_17  and  C_18
REMARK   11  A    between atoms: C_18  and  C_20
REMARK                            x       y       z     vdW  Elec       q    Type
REMARK                         _______ _______ _______ _____ _____    ______ ____
ROOT
ATOM      1  C   UNL     1       3.718   3.720  17.969  0.00  0.00    +0.000 C 
ATOM      2  C   UNL     1       3.441   2.345  17.320  0.00  0.00    +0.000 C 
ATOM      3  C   UNL     1       4.814   3.574  19.056  0.00  0.00    +0.000 C 
ATOM      4  C   UNL     1       5.239   4.895  19.714  0.00  0.00    +0.000 C 
ATOM      5  C   UNL     1       5.563   6.048  18.742  0.00  0.00    +0.000 C 
ATOM      6  C   UNL     1       4.448   6.154  17.681  0.00  0.00    +0.000 C 
ATOM      7  C   UNL     1       4.146   4.831  16.913  0.00  0.00    +0.000 C 
ENDROOT
BRANCH   7   8
ATOM      8  C   UNL     1       5.222   4.556  15.838  0.00  0.00    +0.000 C 
ATOM      9  C   UNL     1       5.932   3.426  15.661  0.00  0.00    +0.000 C 
ATOM     10  C   UNL     1       5.490   5.694  14.873  0.00  0.00    +0.000 C 
ENDBRANCH   7   8
BRANCH   1  12
ATOM     11  C   UNL     1       1.125   3.746  18.132  0.00  0.00    +0.000 C 
ATOM     12  C   UNL     1       2.343   4.106  18.563  0.00  0.00    +0.000 C 
ENDBRANCH   1  12
BRANCH   5  13
ATOM     13  C   UNL     1       6.974   6.087  18.152  0.00  0.00    +0.000 C 
ATOM     14  C   UNL     1       7.881   5.096  18.223  0.00  0.00    +0.000 C 
BRANCH  13  15
ATOM     15  C   UNL     1       7.384   7.387  17.495  0.00  0.00    +0.000 C 
BRANCH  15  16
ATOM     16  O   UNL     1       8.336   8.007  18.357  0.00  0.00    +0.000 OA
BRANCH  16  17
ATOM     17  C   UNL     1       8.440   9.409  18.120  0.00  0.00    +0.000 C 
BRANCH  17  18
ATOM     18  C   UNL     1       9.190  10.053  19.281  0.00  0.00    +0.000 C 
BRANCH  18  19
ATOM     19  O   UNL     1       9.825  11.252  18.835  0.00  0.00    +0.000 OA
ATOM     20  C   UNL     1      10.811  11.690  19.761  0.00  0.00    +0.000 C 
ENDBRANCH  18  19
ENDBRANCH  17  18
ENDBRANCH  16  17
ENDBRANCH  15  16
ENDBRANCH  13  15
ENDBRANCH   5  13
TORSDOF 8
ENDMDL
MODEL 2
REMARK VINA RESULT:      -5.5      3.601      6.802
REMARK  Name = 
REMARK  11 active torsions:
REMARK  status: ('A' for Active; 'I' for Inactive)
REMARK    1  A    between atoms: C_2  and  C_3
REMARK    2  A    between atoms: C_3  and  C_4
REMARK    3  A    between atoms: C_7  and  C_8
REMARK    4  A    between atoms: C_8  and  C_10
REMARK    5  A    between atoms: C_10  and  O_11
REMARK    6  A    between atoms: O_11  and  C_12
REMARK    7  A    between atoms: C_12  and  C_13
REMARK    8  A    between atoms: C_13  and  O_14
REMARK    9  A    between atoms: O_14  and  C_15
REMARK   10  A    between atoms: C_17  and  C_18
REMARK   11  A    between atoms: C_18  and  C_20
REMARK                            x       y       z     vdW  Elec       q    Type
REMARK                         _______ _______ _______ _____ _____    ______ ____
ROOT
ATOM      1  C   UNL     1       7.019   5.888  17.992  0.00  0.00    +0.000 C 
ATOM      2  C   UNL     1       7.816   5.951  19.315  0.00  0.00    +0.000 C 
ATOM      3  C   UNL     1       7.293   4.537  17.280  0.00  0.00    +0.000 C 
ATOM      4  C   UNL     1       6.485   4.320  15.992  0.00  0.00    +0.000 C 
ATOM      5  C   UNL     1       4.973   4.602  16.100  0.00  0.00    +0.000 C 
ATOM      6  C   UNL     1       4.751   5.952  16.813  0.00  0.00    +0.000 C 
ATOM      7  C   UNL     1       5.454   6.085  18.199  0.00  0.00    +0.000 C 
ENDROOT
BRANCH   7   8
ATOM      8  C   UNL     1       4.677   5.316  19.291  0.00  0.00    +0.000 C 
ATOM      9  C   UNL     1       5.044   4.176  19.907  0.00  0.00    +0.000 C 
ATOM     10  C   UNL     1       3.358   5.932  19.713  0.00  0.00    +0.000 C 
ENDBRANCH   7   8
BRANCH   1  12
ATOM     11  C   UNL     1       7.891   8.313  17.661  0.00  0.00    +0.000 C 
ATOM     12  C   UNL     1       7.570   7.096  17.198  0.00  0.00    +0.000 C 
ENDBRANCH   1  12
BRANCH   5  13
ATOM     13  C   UNL     1       4.090   3.474  16.638  0.00  0.00    +0.000 C 
ATOM     14  C   UNL     1       4.497   2.220  16.905  0.00  0.00    +0.000 C 
BRANCH  13  15
ATOM     15  C   UNL     1       2.625   3.805  16.816  0.00  0.00    +0.000 C 
BRANCH  15  16
ATOM     16  O   UNL     1       1.988   2.624  17.301  0.00  0.00    +0.000 OA
BRANCH  16  17
ATOM     17  C   UNL     1       1.129   2.893  18.406  0.00  0.00    +0.000 C 
BRANCH  17  18
ATOM     18  C   UNL     1       1.792   2.390  19.683  0.00  0.00    +0.000 C 
BRANCH  18  19
ATOM     19  O   UNL     1       1.381   3.199  20.786  0.00  0.00    +0.000 OA
ATOM     20  C   UNL     1       1.650   2.556  22.027  0.00  0.00    +0.000 C 
ENDBRANCH  18  19
ENDBRANCH  17  18
ENDBRANCH  16  17
ENDBRANCH  15  16
ENDBRANCH  13  15
ENDBRANCH   5  13
TORSDOF 8
ENDMDL
MODEL 3
REMARK VINA RESULT:      -5.5      2.527      4.949
REMARK  Name = 
REMARK  11 active torsions:
REMARK  status: ('A' for Active; 'I' for Inactive)
REMARK    1  A    between atoms: C_2  and  C_3
REMARK    2  A    between atoms: C_3  and  C_4
REMARK    3  A    between atoms: C_7  and  C_8
REMARK    4  A    between atoms: C_8  and  C_10
REMARK    5  A    between atoms: C_10  and  O_11
REMARK    6  A    between atoms: O_11  and  C_12
REMARK    7  A    between atoms: C_12  and  C_13
REMARK    8  A    between atoms: C_13  and  O_14
REMARK    9  A    between atoms: O_14  and  C_15
REMARK   10  A    between atoms: C_17  and  C_18
REMARK   11  A    between atoms: C_18  and  C_20
REMARK                            x       y       z     vdW  Elec       q    Type
REMARK                         _______ _______ _______ _____ _____    ______ ____
ROOT
ATOM      1  C   UNL     1       2.112   7.033  19.003  0.00  0.00    +0.000 C 
ATOM      2  C   UNL     1       1.825   7.786  20.322  0.00  0.00    +0.000 C 
ATOM      3  C   UNL     1       3.645   6.944  18.775  0.00  0.00    +0.000 C 
ATOM      4  C   UNL     1       4.058   6.138  17.535  0.00  0.00    +0.000 C 
ATOM      5  C   UNL     1       3.388   4.758  17.385  0.00  0.00    +0.000 C 
ATOM      6  C   UNL     1       1.870   4.895  17.621  0.00  0.00    +0.000 C 
ATOM      7  C   UNL     1       1.474   5.576  18.968  0.00  0.00    +0.000 C 
ENDROOT
BRANCH   7   8
ATOM      8  C   UNL     1       1.627   4.594  20.152  0.00  0.00    +0.000 C 
ATOM      9  C   UNL     1       2.376   4.757  21.258  0.00  0.00    +0.000 C 
ATOM     10  C   UNL     1       0.828   3.310  20.045  0.00  0.00    +0.000 C 
ENDBRANCH   7   8
BRANCH   1  12
ATOM     11  C   UNL     1       1.360   9.248  17.873  0.00  0.00    +0.000 C 
ATOM     12  C   UNL     1       1.406   7.909  17.943  0.00  0.00    +0.000 C 
ENDBRANCH   1  12
BRANCH   5  13
ATOM     13  C   UNL     1       4.021   3.590  18.144  0.00  0.00    +0.000 C 
ATOM     14  C   UNL     1       3.674   2.296  18.023  0.00  0.00    +0.000 C 
BRANCH  13  15
ATOM     15  C   UNL     1       5.083   3.954  19.158  0.00  0.00    +0.000 C 
BRANCH  15  16
ATOM     16  O   UNL     1       6.347   3.743  18.532  0.00  0.00    +0.000 OA
BRANCH  16  17
ATOM     17  C   UNL     1       7.050   4.964  18.317  0.00  0.00    +0.000 C 
BRANCH  17  18
ATOM     18  C   UNL     1       7.437   5.061  16.845  0.00  0.00    +0.000 C 
BRANCH  18  19
ATOM     19  O   UNL     1       7.451   6.431  16.443  0.00  0.00    +0.000 OA
ATOM     20  C   UNL     1       7.566   7.298  17.566  0.00  0.00    +0.000 C 
ENDBRANCH  18  19
ENDBRANCH  17  18
ENDBRANCH  16  17
ENDBRANCH  15  16
ENDBRANCH  13  15
ENDBRANCH   5  13
TORSDOF 8
ENDMDL
MODEL 4
REMARK VINA RESULT:      -5.4      3.530      5.574
REMARK  Name = 
REMARK  11 active torsions:
REMARK  status: ('A' for Active; 'I' for Inactive)
REMARK    1  A    between atoms: C_2  and  C_3
REMARK    2  A    between atoms: C_3  and  C_4
REMARK    3  A    between atoms: C_7  and  C_8
REMARK    4  A    between atoms: C_8  and  C_10
REMARK    5  A    between atoms: C_10  and  O_11
REMARK    6  A    between atoms: O_11  and  C_12
REMARK    7  A    between atoms: C_12  and  C_13
REMARK    8  A    between atoms: C_13  and  O_14
REMARK    9  A    between atoms: O_14  and  C_15
REMARK   10  A    between atoms: C_17  and  C_18
REMARK   11  A    between atoms: C_18  and  C_20
REMARK                            x       y       z     vdW  Elec       q    Type
REMARK                         _______ _______ _______ _____ _____    ______ ____
ROOT
ATOM      1  C   UNL     1       1.945   3.068  19.502  0.00  0.00    +0.000 C 
ATOM      2  C   UNL     1       0.441   3.075  19.144  0.00  0.00    +0.000 C 
ATOM      3  C   UNL     1       2.750   2.388  18.362  0.00  0.00    +0.000 C 
ATOM      4  C   UNL     1       4.272   2.399  18.563  0.00  0.00    +0.000 C 
ATOM      5  C   UNL     1       4.883   3.762  18.946  0.00  0.00    +0.000 C 
ATOM      6  C   UNL     1       4.051   4.398  20.079  0.00  0.00    +0.000 C 
ATOM      7  C   UNL     1       2.525   4.522  19.781  0.00  0.00    +0.000 C 
ENDROOT
BRANCH   7   8
ATOM      8  C   UNL     1       2.240   5.707  18.830  0.00  0.00    +0.000 C 
ATOM      9  C   UNL     1       1.848   5.647  17.544  0.00  0.00    +0.000 C 
ATOM     10  C   UNL     1       2.417   7.087  19.431  0.00  0.00    +0.000 C 
ENDBRANCH   7   8
BRANCH   1  12
ATOM     11  C   UNL     1       1.523   2.616  22.025  0.00  0.00    +0.000 C 
ATOM     12  C   UNL     1       1.984   2.257  20.818  0.00  0.00    +0.000 C 
ENDBRANCH   1  12
BRANCH   5  13
ATOM     13  C   UNL     1       5.201   4.729  17.804  0.00  0.00    +0.000 C 
ATOM     14  C   UNL     1       5.556   6.019  17.944  0.00  0.00    +0.000 C 
BRANCH  13  15
ATOM     15  C   UNL     1       5.031   4.182  16.403  0.00  0.00    +0.000 C 
BRANCH  15  16
ATOM     16  O   UNL     1       6.331   3.826  15.936  0.00  0.00    +0.000 OA
BRANCH  16  17
ATOM     17  C   UNL     1       6.670   4.501  14.727  0.00  0.00    +0.000 C 
BRANCH  17  18
ATOM     18  C   UNL     1       5.695   4.078  13.633  0.00  0.00    +0.000 C 
BRANCH  18  19
ATOM     19  O   UNL     1       6.396   3.356  12.620  0.00  0.00    +0.000 OA
ATOM     20  C   UNL     1       5.495   2.681  11.750  0.00  0.00    +0.000 C 
ENDBRANCH  18  19
ENDBRANCH  17  18
ENDBRANCH  16  17
ENDBRANCH  15  16
ENDBRANCH  13  15
ENDBRANCH   5  13
TORSDOF 8
ENDMDL
MODEL 5
REMARK VINA RESULT:      -5.3      2.914      4.937
REMARK  Name = 
REMARK  11 active torsions:
REMARK  status: ('A' for Active; 'I' for Inactive)
REMARK    1  A    between atoms: C_2  and  C_3
REMARK    2  A    between atoms: C_3  and  C_4
REMARK    3  A    between atoms: C_7  and  C_8
REMARK    4  A    between atoms: C_8  and  C_10
REMARK    5  A    between atoms: C_10  and  O_11
REMARK    6  A    between atoms: O_11  and  C_12
REMARK    7  A    between atoms: C_12  and  C_13
REMARK    8  A    between atoms: C_13  and  O_14
REMARK    9  A    between atoms: O_14  and  C_15
REMARK   10  A    between atoms: C_17  and  C_18
REMARK   11  A    between atoms: C_18  and  C_20
REMARK                            x       y       z     vdW  Elec       q    Type
REMARK                         _______ _______ _______ _____ _____    ______ ____
ROOT
ATOM      1  C   UNL     1       2.488   4.373  18.362  0.00  0.00    +0.000 C 
ATOM      2  C   UNL     1       1.254   4.580  17.454  0.00  0.00    +0.000 C 
ATOM      3  C   UNL     1       3.460   3.361  17.698  0.00  0.00    +0.000 C 
ATOM      4  C   UNL     1       4.771   3.139  18.467  0.00  0.00    +0.000 C 
ATOM      5  C   UNL     1       5.508   4.420  18.908  0.00  0.00    +0.000 C 
ATOM      6  C   UNL     1       4.504   5.393  19.560  0.00  0.00    +0.000 C 
ATOM      7  C   UNL     1       3.255   5.728  18.687  0.00  0.00    +0.000 C 
ENDROOT
BRANCH   7   8
ATOM      8  C   UNL     1       3.610   6.746  17.579  0.00  0.00    +0.000 C 
ATOM      9  C   UNL     1       4.284   6.511  16.438  0.00  0.00    +0.000 C 
ATOM     10  C   UNL     1       3.128   8.164  17.815  0.00  0.00    +0.000 C 
ENDBRANCH   7   8
BRANCH   1  12
ATOM     11  C   UNL     1       0.959   2.852  19.811  0.00  0.00    +0.000 C 
ATOM     12  C   UNL     1       1.869   3.827  19.670  0.00  0.00    +0.000 C 
ENDBRANCH   1  12
BRANCH   5  13
ATOM     13  C   UNL     1       6.425   5.085  17.880  0.00  0.00    +0.000 C 
ATOM     14  C   UNL     1       7.120   6.221  18.069  0.00  0.00    +0.000 C 
BRANCH  13  15
ATOM     15  C   UNL     1       6.489   4.425  16.520  0.00  0.00    +0.000 C 
BRANCH  15  16
ATOM     16  O   UNL     1       7.554   5.047  15.805  0.00  0.00    +0.000 OA
BRANCH  16  17
ATOM     17  C   UNL     1       7.380   4.954  14.394  0.00  0.00    +0.000 C 
BRANCH  17  18
ATOM     18  C   UNL     1       6.250   3.974  14.097  0.00  0.00    +0.000 C 
BRANCH  18  19
ATOM     19  O   UNL     1       6.324   3.555  12.734  0.00  0.00    +0.000 OA
ATOM     20  C   UNL     1       5.030   3.305  12.199  0.00  0.00    +0.000 C 
ENDBRANCH  18  19
ENDBRANCH  17  18
ENDBRANCH  16  17
ENDBRANCH  15  16
ENDBRANCH  13  15
ENDBRANCH   5  13
TORSDOF 8
ENDMDL
MODEL 6
REMARK VINA RESULT:      -5.3      3.775      6.591
REMARK  Name = 
REMARK  11 active torsions:
REMARK  status: ('A' for Active; 'I' for Inactive)
REMARK    1  A    between atoms: C_2  and  C_3
REMARK    2  A    between atoms: C_3  and  C_4
REMARK    3  A    between atoms: C_7  and  C_8
REMARK    4  A    between atoms: C_8  and  C_10
REMARK    5  A    between atoms: C_10  and  O_11
REMARK    6  A    between atoms: O_11  and  C_12
REMARK    7  A    between atoms: C_12  and  C_13
REMARK    8  A    between atoms: C_13  and  O_14
REMARK    9  A    between atoms: O_14  and  C_15
REMARK   10  A    between atoms: C_17  and  C_18
REMARK   11  A    between atoms: C_18  and  C_20
REMARK                            x       y       z     vdW  Elec       q    Type
REMARK                         _______ _______ _______ _____ _____    ______ ____
ROOT
ATOM      1  C   UNL     1       6.813   5.965  18.025  0.00  0.00    +0.000 C 
ATOM      2  C   UNL     1       7.478   7.211  17.395  0.00  0.00    +0.000 C 
ATOM      3  C   UNL     1       5.643   6.406  18.945  0.00  0.00    +0.000 C 
ATOM      4  C   UNL     1       4.846   5.247  19.561  0.00  0.00    +0.000 C 
ATOM      5  C   UNL     1       4.401   4.148  18.575  0.00  0.00    +0.000 C 
ATOM      6  C   UNL     1       5.593   3.744  17.683  0.00  0.00    +0.000 C 
ATOM      7  C   UNL     1       6.287   4.927  16.940  0.00  0.00    +0.000 C 
ENDROOT
BRANCH   7   8
ATOM      8  C   UNL     1       5.454   5.379  15.720  0.00  0.00    +0.000 C 
ATOM      9  C   UNL     1       4.922   6.596  15.498  0.00  0.00    +0.000 C 
ATOM     10  C   UNL     1       5.228   4.326  14.653  0.00  0.00    +0.000 C 
ENDBRANCH   7   8
BRANCH   1  12
ATOM     11  C   UNL     1       8.343   5.544  20.082  0.00  0.00    +0.000 C 
ATOM     12  C   UNL     1       7.973   5.314  18.813  0.00  0.00    +0.000 C 
ENDBRANCH   1  12
BRANCH   5  13
ATOM     13  C   UNL     1       3.109   4.394  17.794  0.00  0.00    +0.000 C 
ATOM     14  C   UNL     1       2.450   5.564  17.718  0.00  0.00    +0.000 C 
BRANCH  13  15
ATOM     15  C   UNL     1       2.506   3.187  17.109  0.00  0.00    +0.000 C 
BRANCH  15  16
ATOM     16  O   UNL     1       2.227   2.227  18.127  0.00  0.00    +0.000 OA
BRANCH  16  17
ATOM     17  C   UNL     1       0.867   2.273  18.549  0.00  0.00    +0.000 C 
BRANCH  17  18
ATOM     18  C   UNL     1       0.790   2.973  19.901  0.00  0.00    +0.000 C 
BRANCH  18  19
ATOM     19  O   UNL     1       1.770   2.422  20.782  0.00  0.00    +0.000 OA
ATOM     20  C   UNL     1       2.242   3.397  21.704  0.00  0.00    +0.000 C 
ENDBRANCH  18  19
ENDBRANCH  17  18
ENDBRANCH  16  17
ENDBRANCH  15  16
ENDBRANCH  13  15
ENDBRANCH   5  13
TORSDOF 8
ENDMDL
MODEL 7
REMARK VINA RESULT:      -5.2      3.157      5.303
REMARK  Name = 
REMARK  11 active torsions:
REMARK  status: ('A' for Active; 'I' for Inactive)
REMARK    1  A    between atoms: C_2  and  C_3
REMARK    2  A    between atoms: C_3  and  C_4
REMARK    3  A    between atoms: C_7  and  C_8
REMARK    4  A    between atoms: C_8  and  C_10
REMARK    5  A    between atoms: C_10  and  O_11
REMARK    6  A    between atoms: O_11  and  C_12
REMARK    7  A    between atoms: C_12  and  C_13
REMARK    8  A    between atoms: C_13  and  O_14
REMARK    9  A    between atoms: O_14  and  C_15
REMARK   10  A    between atoms: C_17  and  C_18
REMARK   11  A    between atoms: C_18  and  C_20
REMARK                            x       y       z     vdW  Elec       q    Type
REMARK                         _______ _______ _______ _____ _____    ______ ____
ROOT
ATOM      1  C   UNL     1       2.592   3.723  19.180  0.00  0.00    +0.000 C 
ATOM      2  C   UNL     1       1.068   3.506  19.044  0.00  0.00    +0.000 C 
ATOM      3  C   UNL     1       3.301   3.287  17.870  0.00  0.00    +0.000 C 
ATOM      4  C   UNL     1       4.816   3.537  17.852  0.00  0.00    +0.000 C 
ATOM      5  C   UNL     1       5.262   4.947  18.289  0.00  0.00    +0.000 C 
ATOM      6  C   UNL     1       4.533   5.337  19.591  0.00  0.00    +0.000 C 
ATOM      7  C   UNL     1       2.978   5.226  19.530  0.00  0.00    +0.000 C 
ENDROOT
BRANCH   7   8
ATOM      8  C   UNL     1       2.367   6.420  18.763  0.00  0.00    +0.000 C 
ATOM      9  C   UNL     1       1.826   6.411  17.530  0.00  0.00    +0.000 C 
ATOM     10  C   UNL     1       2.375   7.745  19.500  0.00  0.00    +0.000 C 
ENDBRANCH   7   8
BRANCH   1  12
ATOM     11  C   UNL     1       2.486   2.875  21.633  0.00  0.00    +0.000 C 
ATOM     12  C   UNL     1       2.964   2.823  20.381  0.00  0.00    +0.000 C 
ENDBRANCH   1  12
BRANCH   5  13
ATOM     13  C   UNL     1       5.242   6.046  17.224  0.00  0.00    +0.000 C 
ATOM     14  C   UNL     1       5.422   7.359  17.450  0.00  0.00    +0.000 C 
BRANCH  13  15
ATOM     15  C   UNL     1       4.925   5.599  15.814  0.00  0.00    +0.000 C 
BRANCH  15  16
ATOM     16  O   UNL     1       6.070   5.895  15.016  0.00  0.00    +0.000 OA
BRANCH  16  17
ATOM     17  C   UNL     1       6.965   4.789  14.929  0.00  0.00    +0.000 C 
BRANCH  17  18
ATOM     18  C   UNL     1       6.302   3.677  14.124  0.00  0.00    +0.000 C 
BRANCH  18  19
ATOM     19  O   UNL     1       6.586   3.855  12.736  0.00  0.00    +0.000 OA
ATOM     20  C   UNL     1       5.673   3.128  11.924  0.00  0.00    +0.000 C 
ENDBRANCH  18  19
ENDBRANCH  17  18
ENDBRANCH  16  17
ENDBRANCH  15  16
ENDBRANCH  13  15
ENDBRANCH   5  13
TORSDOF 8
ENDMDL
MODEL 8
REMARK VINA RESULT:      -5.2      3.547      5.156
REMARK  Name = 
REMARK  11 active torsions:
REMARK  status: ('A' for Active; 'I' for Inactive)
REMARK    1  A    between atoms: C_2  and  C_3
REMARK    2  A    between atoms: C_3  and  C_4
REMARK    3  A    between atoms: C_7  and  C_8
REMARK    4  A    between atoms: C_8  and  C_10
REMARK    5  A    between atoms: C_10  and  O_11
REMARK    6  A    between atoms: O_11  and  C_12
REMARK    7  A    between atoms: C_12  and  C_13
REMARK    8  A    between atoms: C_13  and  O_14
REMARK    9  A    between atoms: O_14  and  C_15
REMARK   10  A    between atoms: C_17  and  C_18
REMARK   11  A    between atoms: C_18  and  C_20
REMARK                            x       y       z     vdW  Elec       q    Type
REMARK                         _______ _______ _______ _____ _____    ______ ____
ROOT
ATOM      1  C   UNL     1       1.946   3.304  20.077  0.00  0.00    +0.000 C 
ATOM      2  C   UNL     1       0.422   3.191  19.849  0.00  0.00    +0.000 C 
ATOM      3  C   UNL     1       2.678   2.195  19.275  0.00  0.00    +0.000 C 
ATOM      4  C   UNL     1       4.210   2.259  19.353  0.00  0.00    +0.000 C 
ATOM      5  C   UNL     1       4.833   3.645  19.089  0.00  0.00    +0.000 C 
ATOM      6  C   UNL     1       4.074   4.713  19.904  0.00  0.00    +0.000 C 
ATOM      7  C   UNL     1       2.530   4.731  19.684  0.00  0.00    +0.000 C 
ENDROOT
BRANCH   7   8
ATOM      8  C   UNL     1       2.169   5.415  18.345  0.00  0.00    +0.000 C 
ATOM      9  C   UNL     1       1.392   4.926  17.360  0.00  0.00    +0.000 C 
ATOM     10  C   UNL     1       2.756   6.797  18.137  0.00  0.00    +0.000 C 
ENDBRANCH   7   8
BRANCH   1  12
ATOM     11  C   UNL     1       1.336   2.353  22.416  0.00  0.00    +0.000 C 
ATOM     12  C   UNL     1       2.083   3.117  21.606  0.00  0.00    +0.000 C 
ENDBRANCH   1  12
BRANCH   5  13
ATOM     13  C   UNL     1       5.062   4.040  17.629  0.00  0.00    +0.000 C 
ATOM     14  C   UNL     1       4.411   3.531  16.568  0.00  0.00    +0.000 C 
BRANCH  13  15
ATOM     15  C   UNL     1       6.166   5.043  17.377  0.00  0.00    +0.000 C 
BRANCH  15  16
ATOM     16  O   UNL     1       6.920   4.563  16.266  0.00  0.00    +0.000 OA
BRANCH  16  17
ATOM     17  C   UNL     1       6.993   5.521  15.213  0.00  0.00    +0.000 C 
BRANCH  17  18
ATOM     18  C   UNL     1       7.210   4.790  13.892  0.00  0.00    +0.000 C 
BRANCH  18  19
ATOM     19  O   UNL     1       6.350   3.651  13.828  0.00  0.00    +0.000 OA
ATOM     20  C   UNL     1       5.880   3.432  12.504  0.00  0.00    +0.000 C 
ENDBRANCH  18  19
ENDBRANCH  17  18
ENDBRANCH  16  17
ENDBRANCH  15  16
ENDBRANCH  13  15
ENDBRANCH   5  13
TORSDOF 8
ENDMDL
MODEL 9
REMARK VINA RESULT:      -5.2      3.768      6.098
REMARK  Name = 
REMARK  11 active torsions:
REMARK  status: ('A' for Active; 'I' for Inactive)
REMARK    1  A    between atoms: C_2  and  C_3
REMARK    2  A    between atoms: C_3  and  C_4
REMARK    3  A    between atoms: C_7  and  C_8
REMARK    4  A    between atoms: C_8  and  C_10
REMARK    5  A    between atoms: C_10  and  O_11
REMARK    6  A    between atoms: O_11  and  C_12
REMARK    7  A    between atoms: C_12  and  C_13
REMARK    8  A    between atoms: C_13  and  O_14
REMARK    9  A    between atoms: O_14  and  C_15
REMARK   10  A    between atoms: C_17  and  C_18
REMARK   11  A    between atoms: C_18  and  C_20
REMARK                            x       y       z     vdW  Elec       q    Type
REMARK                         _______ _______ _______ _____ _____    ______ ____
ROOT
ATOM      1  C   UNL     1       5.899   5.031  17.233  0.00  0.00    +0.000 C 
ATOM      2  C   UNL     1       6.408   4.011  16.190  0.00  0.00    +0.000 C 
ATOM      3  C   UNL     1       4.783   5.908  16.605  0.00  0.00    +0.000 C 
ATOM      4  C   UNL     1       4.135   6.906  17.576  0.00  0.00    +0.000 C 
ATOM      5  C   UNL     1       3.693   6.323  18.933  0.00  0.00    +0.000 C 
ATOM      6  C   UNL     1       4.830   5.460  19.517  0.00  0.00    +0.000 C 
ATOM      7  C   UNL     1       5.363   4.345  18.565  0.00  0.00    +0.000 C 
ENDROOT
BRANCH   7   8
ATOM      8  C   UNL     1       4.394   3.141  18.524  0.00  0.00    +0.000 C 
ATOM      9  C   UNL     1       3.777   2.624  17.446  0.00  0.00    +0.000 C 
ATOM     10  C   UNL     1       4.126   2.471  19.857  0.00  0.00    +0.000 C 
ENDBRANCH   7   8
BRANCH   1  12
ATOM     11  C   UNL     1       7.479   7.093  17.191  0.00  0.00    +0.000 C 
ATOM     12  C   UNL     1       7.170   5.845  17.572  0.00  0.00    +0.000 C 
ENDBRANCH   1  12
BRANCH   5  13
ATOM     13  C   UNL     1       2.322   5.645  18.987  0.00  0.00    +0.000 C 
ATOM     14  C   UNL     1       1.630   5.191  17.926  0.00  0.00    +0.000 C 
BRANCH  13  15
ATOM     15  C   UNL     1       1.683   5.546  20.354  0.00  0.00    +0.000 C 
BRANCH  15  16
ATOM     16  O   UNL     1       1.946   6.776  21.027  0.00  0.00    +0.000 OA
BRANCH  16  17
ATOM     17  C   UNL     1       0.916   7.737  20.811  0.00  0.00    +0.000 C 
BRANCH  17  18
ATOM     18  C   UNL     1       1.049   8.847  21.848  0.00  0.00    +0.000 C 
BRANCH  18  19
ATOM     19  O   UNL     1      -0.157   8.939  22.608  0.00  0.00    +0.000 OA
ATOM     20  C   UNL     1      -0.527  10.295  22.827  0.00  0.00    +0.000 C 
ENDBRANCH  18  19
ENDBRANCH  17  18
ENDBRANCH  16  17
ENDBRANCH  15  16
ENDBRANCH  13  15
ENDBRANCH   5  13
TORSDOF 8
ENDMDL
