MODEL 1
REMARK VINA RESULT:      -6.7      0.000      0.000
REMARK  Name = 
REMARK  10 active torsions:
REMARK  status: ('A' for Active; 'I' for Inactive)
REMARK    1  A    between atoms: C_1  and  N_2
REMARK    2  A    between atoms: N_2  and  C_13
REMARK    3  A    between atoms: C_3  and  C_5
REMARK    4  A    between atoms: C_5  and  C_6
REMARK    5  A    between atoms: C_6  and  N_7
REMARK    6  A    between atoms: C_6  and  C_8
REMARK    7  A    between atoms: C_8  and  C_9
REMARK    8  A    between atoms: C_9  and  C_10
REMARK    9  A    between atoms: C_10  and  C_11
REMARK   10  A    between atoms: C_11  and  N_12
REMARK                            x       y       z     vdW  Elec       q    Type
REMARK                         _______ _______ _______ _____ _____    ______ ____
ROOT
ATOM      1  C   UNL     1       3.276   5.075  19.253  0.00  0.00    +0.000 C 
ATOM      2  C   UNL     1       3.422   6.570  18.908  0.00  0.00    +0.000 C 
ATOM      3  N   UNL     1       2.394   7.417  19.469  0.00  0.00    +0.000 NA
ATOM      4  C   UNL     1       1.694   7.127  20.510  0.00  0.00    +0.000 C 
ATOM      5  N   UNL     1       0.802   8.098  21.079  0.00  0.00    +0.000 N 
ATOM      6  C   UNL     1       0.600   9.407  20.539  0.00  0.00    +0.000 C 
ATOM      7  N   UNL     1       1.155   9.741  19.430  0.00  0.00    +0.000 NA
ATOM      8  C   UNL     1       0.962  10.974  18.709  0.00  0.00    +0.000 C 
ATOM      9  C   UNL     1       0.184  12.055  19.474  0.00  0.00    +0.000 C 
ATOM     10  C   UNL     1      -0.682  11.589  20.659  0.00  0.00    +0.000 C 
ATOM     11  N   UNL     1      -0.319  10.292  21.186  0.00  0.00    +0.000 N 
ATOM     12  N   UNL     1       1.808   5.840  21.121  0.00  0.00    +0.000 N 
ATOM     13  C   UNL     1       2.531   4.853  20.551  0.00  0.00    +0.000 C 
ATOM     14  O   UNL     1       2.528   3.740  21.049  0.00  0.00    +0.000 OA
ATOM     15  H   UNL     1       0.282   7.837  21.932  0.00  0.00    +0.000 HD
ATOM     16  H   UNL     1      -0.816   9.964  22.027  0.00  0.00    +0.000 HD
ATOM     17  H   UNL     1       1.269   5.642  21.980  0.00  0.00    +0.000 HD
ENDROOT
BRANCH   1  19
ATOM     18  C   UNL     1       1.199   4.399  18.003  0.00  0.00    +0.000 C 
ATOM     19  N   UNL     1       2.651   4.324  18.147  0.00  0.00    +0.000 N 
ATOM     20  C   UNL     1       3.404   3.569  17.263  0.00  0.00    +0.000 C 
ATOM     21  O   UNL     1       2.845   2.935  16.376  0.00  0.00    +0.000 OA
BRANCH  20  22
ATOM     22  C   UNL     1       4.921   3.492  17.363  0.00  0.00    +0.000 C 
BRANCH  22  23
ATOM     23  C   UNL     1       5.755   4.156  16.226  0.00  0.00    +0.000 C 
BRANCH  23  24
ATOM     24  N   UNL     1       5.042   5.293  15.633  0.00  0.00    +0.000 NA
ATOM     25  H   UNL     1       4.861   6.029  16.353  0.00  0.00    +0.000 HD
ATOM     26  H   UNL     1       4.137   5.002  15.204  0.00  0.00    +0.000 HD
ENDBRANCH  23  24
BRANCH  23  27
ATOM     27  C   UNL     1       7.119   4.677  16.753  0.00  0.00    +0.000 C 
BRANCH  27  28
ATOM     28  C   UNL     1       7.139   6.190  17.031  0.00  0.00    +0.000 C 
BRANCH  28  29
ATOM     29  C   UNL     1       7.770   6.519  18.388  0.00  0.00    +0.000 C 
BRANCH  29  30
ATOM     30  C   UNL     1       7.217   5.576  19.463  0.00  0.00    +0.000 C 
BRANCH  30  31
ATOM     31  N   UNL     1       8.171   5.420  20.555  0.00  0.00    +0.000 NA
ATOM     32  H   UNL     1       7.650   5.384  21.461  0.00  0.00    +0.000 HD
ATOM     33  H   UNL     1       8.784   6.268  20.575  0.00  0.00    +0.000 HD
ENDBRANCH  30  31
ENDBRANCH  29  30
ENDBRANCH  28  29
ENDBRANCH  27  28
ENDBRANCH  23  27
ENDBRANCH  22  23
ENDBRANCH  20  22
ENDBRANCH   1  19
TORSDOF 9
ENDMDL
MODEL 2
REMARK VINA RESULT:      -6.3      1.937      3.210
REMARK  Name = 
REMARK  10 active torsions:
REMARK  status: ('A' for Active; 'I' for Inactive)
REMARK    1  A    between atoms: C_1  and  N_2
REMARK    2  A    between atoms: N_2  and  C_13
REMARK    3  A    between atoms: C_3  and  C_5
REMARK    4  A    between atoms: C_5  and  C_6
REMARK    5  A    between atoms: C_6  and  N_7
REMARK    6  A    between atoms: C_6  and  C_8
REMARK    7  A    between atoms: C_8  and  C_9
REMARK    8  A    between atoms: C_9  and  C_10
REMARK    9  A    between atoms: C_10  and  C_11
REMARK   10  A    between atoms: C_11  and  N_12
REMARK                            x       y       z     vdW  Elec       q    Type
REMARK                         _______ _______ _______ _____ _____    ______ ____
ROOT
ATOM      1  C   UNL     1       3.386   4.991  19.088  0.00  0.00    +0.000 C 
ATOM      2  C   UNL     1       3.474   6.485  18.720  0.00  0.00    +0.000 C 
ATOM      3  N   UNL     1       2.485   7.319  19.364  0.00  0.00    +0.000 NA
ATOM      4  C   UNL     1       1.885   7.028  20.465  0.00  0.00    +0.000 C 
ATOM      5  N   UNL     1       1.030   7.988  21.103  0.00  0.00    +0.000 N 
ATOM      6  C   UNL     1       0.757   9.288  20.573  0.00  0.00    +0.000 C 
ATOM      7  N   UNL     1       1.206   9.621  19.417  0.00  0.00    +0.000 NA
ATOM      8  C   UNL     1       0.927  10.844  18.706  0.00  0.00    +0.000 C 
ATOM      9  C   UNL     1       0.201  11.918  19.529  0.00  0.00    +0.000 C 
ATOM     10  C   UNL     1      -0.547  11.449  20.790  0.00  0.00    +0.000 C 
ATOM     11  N   UNL     1      -0.116  10.164  21.293  0.00  0.00    +0.000 N 
ATOM     12  N   UNL     1       2.076   5.748  21.073  0.00  0.00    +0.000 N 
ATOM     13  C   UNL     1       2.764   4.768  20.449  0.00  0.00    +0.000 C 
ATOM     14  O   UNL     1       2.825   3.660  20.953  0.00  0.00    +0.000 OA
ATOM     15  H   UNL     1       0.593   7.726  22.001  0.00  0.00    +0.000 HD
ATOM     16  H   UNL     1      -0.530   9.834  22.177  0.00  0.00    +0.000 HD
ATOM     17  H   UNL     1       1.619   5.549  21.978  0.00  0.00    +0.000 HD
ENDROOT
BRANCH   1  19
ATOM     18  C   UNL     1       1.223   4.134  18.130  0.00  0.00    +0.000 C 
ATOM     19  N   UNL     1       2.679   4.219  18.048  0.00  0.00    +0.000 N 
ATOM     20  C   UNL     1       3.360   3.591  17.018  0.00  0.00    +0.000 C 
ATOM     21  O   UNL     1       2.740   2.935  16.191  0.00  0.00    +0.000 OA
BRANCH  20  22
ATOM     22  C   UNL     1       4.873   3.685  16.882  0.00  0.00    +0.000 C 
BRANCH  22  23
ATOM     23  C   UNL     1       5.445   4.681  15.829  0.00  0.00    +0.000 C 
BRANCH  23  24
ATOM     24  N   UNL     1       6.401   5.614  16.438  0.00  0.00    +0.000 NA
ATOM     25  H   UNL     1       6.155   6.601  16.195  0.00  0.00    +0.000 HD
ATOM     26  H   UNL     1       7.379   5.419  16.134  0.00  0.00    +0.000 HD
ENDBRANCH  23  24
BRANCH  23  27
ATOM     27  C   UNL     1       6.179   3.936  14.682  0.00  0.00    +0.000 C 
BRANCH  27  28
ATOM     28  C   UNL     1       5.331   3.772  13.408  0.00  0.00    +0.000 C 
BRANCH  28  29
ATOM     29  C   UNL     1       6.184   3.389  12.193  0.00  0.00    +0.000 C 
BRANCH  29  30
ATOM     30  C   UNL     1       5.624   2.119  11.543  0.00  0.00    +0.000 C 
BRANCH  30  31
ATOM     31  N   UNL     1       6.701   1.201  11.191  0.00  0.00    +0.000 NA
ATOM     32  H   UNL     1       7.559   1.458  11.731  0.00  0.00    +0.000 HD
ATOM     33  H   UNL     1       6.917   1.326  10.174  0.00  0.00    +0.000 HD
ENDBRANCH  30  31
ENDBRANCH  29  30
ENDBRANCH  28  29
ENDBRANCH  27  28
ENDBRANCH  23  27
ENDBRANCH  22  23
ENDBRANCH  20  22
ENDBRANCH   1  19
TORSDOF 9
ENDMDL
MODEL 3
REMARK VINA RESULT:      -6.2      0.875      1.024
REMARK  Name = 
REMARK  10 active torsions:
REMARK  status: ('A' for Active; 'I' for Inactive)
REMARK    1  A    between atoms: C_1  and  N_2
REMARK    2  A    between atoms: N_2  and  C_13
REMARK    3  A    between atoms: C_3  and  C_5
REMARK    4  A    between atoms: C_5  and  C_6
REMARK    5  A    between atoms: C_6  and  N_7
REMARK    6  A    between atoms: C_6  and  C_8
REMARK    7  A    between atoms: C_8  and  C_9
REMARK    8  A    between atoms: C_9  and  C_10
REMARK    9  A    between atoms: C_10  and  C_11
REMARK   10  A    between atoms: C_11  and  N_12
REMARK                            x       y       z     vdW  Elec       q    Type
REMARK                         _______ _______ _______ _____ _____    ______ ____
ROOT
ATOM      1  C   UNL     1       3.325   4.929  19.341  0.00  0.00    +0.000 C 
ATOM      2  C   UNL     1       3.458   6.424  18.987  0.00  0.00    +0.000 C 
ATOM      3  N   UNL     1       2.425   7.266  19.546  0.00  0.00    +0.000 NA
ATOM      4  C   UNL     1       1.728   6.977  20.590  0.00  0.00    +0.000 C 
ATOM      5  N   UNL     1       0.830   7.944  21.155  0.00  0.00    +0.000 N 
ATOM      6  C   UNL     1       0.617   9.248  20.608  0.00  0.00    +0.000 C 
ATOM      7  N   UNL     1       1.167   9.580  19.496  0.00  0.00    +0.000 NA
ATOM      8  C   UNL     1       0.963  10.807  18.768  0.00  0.00    +0.000 C 
ATOM      9  C   UNL     1       0.178  11.886  19.529  0.00  0.00    +0.000 C 
ATOM     10  C   UNL     1      -0.681  11.421  20.719  0.00  0.00    +0.000 C 
ATOM     11  N   UNL     1      -0.308  10.129  21.252  0.00  0.00    +0.000 N 
ATOM     12  N   UNL     1       1.854   5.694  21.207  0.00  0.00    +0.000 N 
ATOM     13  C   UNL     1       2.584   4.709  20.642  0.00  0.00    +0.000 C 
ATOM     14  O   UNL     1       2.591   3.599  21.145  0.00  0.00    +0.000 OA
ATOM     15  H   UNL     1       0.314   7.684  22.010  0.00  0.00    +0.000 HD
ATOM     16  H   UNL     1      -0.800   9.802  22.096  0.00  0.00    +0.000 HD
ATOM     17  H   UNL     1       1.318   5.497  22.068  0.00  0.00    +0.000 HD
ENDROOT
BRANCH   1  19
ATOM     18  C   UNL     1       1.245   4.092  18.198  0.00  0.00    +0.000 C 
ATOM     19  N   UNL     1       2.703   4.168  18.240  0.00  0.00    +0.000 N 
ATOM     20  C   UNL     1       3.465   3.541  17.268  0.00  0.00    +0.000 C 
ATOM     21  O   UNL     1       2.914   2.892  16.388  0.00  0.00    +0.000 OA
BRANCH  20  22
ATOM     22  C   UNL     1       4.985   3.624  17.261  0.00  0.00    +0.000 C 
BRANCH  22  23
ATOM     23  C   UNL     1       5.666   4.312  16.041  0.00  0.00    +0.000 C 
BRANCH  23  24
ATOM     24  N   UNL     1       4.933   5.513  15.624  0.00  0.00    +0.000 NA
ATOM     25  H   UNL     1       4.106   5.671  16.243  0.00  0.00    +0.000 HD
ATOM     26  H   UNL     1       4.612   5.446  14.633  0.00  0.00    +0.000 HD
ENDBRANCH  23  24
BRANCH  23  27
ATOM     27  C   UNL     1       7.122   4.740  16.369  0.00  0.00    +0.000 C 
BRANCH  27  28
ATOM     28  C   UNL     1       7.455   4.702  17.870  0.00  0.00    +0.000 C 
BRANCH  28  29
ATOM     29  C   UNL     1       7.491   6.105  18.488  0.00  0.00    +0.000 C 
BRANCH  29  30
ATOM     30  C   UNL     1       7.550   7.162  17.380  0.00  0.00    +0.000 C 
BRANCH  30  31
ATOM     31  N   UNL     1       8.054   8.427  17.899  0.00  0.00    +0.000 NA
ATOM     32  H   UNL     1       8.441   8.991  17.108  0.00  0.00    +0.000 HD
ATOM     33  H   UNL     1       8.842   8.220  18.556  0.00  0.00    +0.000 HD
ENDBRANCH  30  31
ENDBRANCH  29  30
ENDBRANCH  28  29
ENDBRANCH  27  28
ENDBRANCH  23  27
ENDBRANCH  22  23
ENDBRANCH  20  22
ENDBRANCH   1  19
TORSDOF 9
ENDMDL
MODEL 4
REMARK VINA RESULT:      -6.2      3.177      6.206
REMARK  Name = 
REMARK  10 active torsions:
REMARK  status: ('A' for Active; 'I' for Inactive)
REMARK    1  A    between atoms: C_1  and  N_2
REMARK    2  A    between atoms: N_2  and  C_13
REMARK    3  A    between atoms: C_3  and  C_5
REMARK    4  A    between atoms: C_5  and  C_6
REMARK    5  A    between atoms: C_6  and  N_7
REMARK    6  A    between atoms: C_6  and  C_8
REMARK    7  A    between atoms: C_8  and  C_9
REMARK    8  A    between atoms: C_9  and  C_10
REMARK    9  A    between atoms: C_10  and  C_11
REMARK   10  A    between atoms: C_11  and  N_12
REMARK                            x       y       z     vdW  Elec       q    Type
REMARK                         _______ _______ _______ _____ _____    ______ ____
ROOT
ATOM      1  C   UNL     1       5.791   5.573  17.113  0.00  0.00    +0.000 C 
ATOM      2  C   UNL     1       6.362   6.838  16.442  0.00  0.00    +0.000 C 
ATOM      3  N   UNL     1       7.140   7.682  17.320  0.00  0.00    +0.000 NA
ATOM      4  C   UNL     1       7.727   7.280  18.393  0.00  0.00    +0.000 C 
ATOM      5  N   UNL     1       8.600   8.160  19.117  0.00  0.00    +0.000 N 
ATOM      6  C   UNL     1       8.857   9.515  18.741  0.00  0.00    +0.000 C 
ATOM      7  N   UNL     1       8.217  10.045  17.760  0.00  0.00    +0.000 NA
ATOM      8  C   UNL     1       8.285  11.420  17.332  0.00  0.00    +0.000 C 
ATOM      9  C   UNL     1       9.398  12.247  17.994  0.00  0.00    +0.000 C 
ATOM     10  C   UNL     1       9.980  11.712  19.314  0.00  0.00    +0.000 C 
ATOM     11  N   UNL     1       9.742  10.304  19.541  0.00  0.00    +0.000 N 
ATOM     12  N   UNL     1       7.526   5.946  18.867  0.00  0.00    +0.000 N 
ATOM     13  C   UNL     1       6.619   5.126  18.298  0.00  0.00    +0.000 C 
ATOM     14  O   UNL     1       6.405   4.030  18.788  0.00  0.00    +0.000 OA
ATOM     15  H   UNL     1       9.075   7.789  19.956  0.00  0.00    +0.000 HD
ATOM     16  H   UNL     1      10.174   9.875  20.373  0.00  0.00    +0.000 HD
ATOM     17  H   UNL     1       8.039   5.630  19.707  0.00  0.00    +0.000 HD
ENDROOT
BRANCH   1  19
ATOM     18  C   UNL     1       3.918   7.109  17.798  0.00  0.00    +0.000 C 
ATOM     19  N   UNL     1       4.376   5.756  17.492  0.00  0.00    +0.000 N 
ATOM     20  C   UNL     1       3.497   4.687  17.559  0.00  0.00    +0.000 C 
ATOM     21  O   UNL     1       2.338   4.875  17.907  0.00  0.00    +0.000 OA
BRANCH  20  22
ATOM     22  C   UNL     1       3.930   3.269  17.218  0.00  0.00    +0.000 C 
BRANCH  22  23
ATOM     23  C   UNL     1       3.266   2.100  18.007  0.00  0.00    +0.000 C 
BRANCH  23  24
ATOM     24  N   UNL     1       4.086   0.884  17.954  0.00  0.00    +0.000 NA
ATOM     25  H   UNL     1       4.482   0.667  18.896  0.00  0.00    +0.000 HD
ATOM     26  H   UNL     1       4.865   0.972  17.266  0.00  0.00    +0.000 HD
ENDBRANCH  23  24
BRANCH  23  27
ATOM     27  C   UNL     1       3.065   2.467  19.502  0.00  0.00    +0.000 C 
BRANCH  27  28
ATOM     28  C   UNL     1       1.607   2.342  19.979  0.00  0.00    +0.000 C 
BRANCH  28  29
ATOM     29  C   UNL     1       1.299   3.288  21.146  0.00  0.00    +0.000 C 
BRANCH  29  30
ATOM     30  C   UNL     1       2.453   4.281  21.331  0.00  0.00    +0.000 C 
BRANCH  30  31
ATOM     31  N   UNL     1       2.084   5.600  20.832  0.00  0.00    +0.000 NA
ATOM     32  H   UNL     1       1.205   5.911  21.307  0.00  0.00    +0.000 HD
ATOM     33  H   UNL     1       1.879   5.517  19.810  0.00  0.00    +0.000 HD
ENDBRANCH  30  31
ENDBRANCH  29  30
ENDBRANCH  28  29
ENDBRANCH  27  28
ENDBRANCH  23  27
ENDBRANCH  22  23
ENDBRANCH  20  22
ENDBRANCH   1  19
TORSDOF 9
ENDMDL
MODEL 5
REMARK VINA RESULT:      -6.0      3.441      6.427
REMARK  Name = 
REMARK  10 active torsions:
REMARK  status: ('A' for Active; 'I' for Inactive)
REMARK    1  A    between atoms: C_1  and  N_2
REMARK    2  A    between atoms: N_2  and  C_13
REMARK    3  A    between atoms: C_3  and  C_5
REMARK    4  A    between atoms: C_5  and  C_6
REMARK    5  A    between atoms: C_6  and  N_7
REMARK    6  A    between atoms: C_6  and  C_8
REMARK    7  A    between atoms: C_8  and  C_9
REMARK    8  A    between atoms: C_9  and  C_10
REMARK    9  A    between atoms: C_10  and  C_11
REMARK   10  A    between atoms: C_11  and  N_12
REMARK                            x       y       z     vdW  Elec       q    Type
REMARK                         _______ _______ _______ _____ _____    ______ ____
ROOT
ATOM      1  C   UNL     1       6.215   6.061  17.173  0.00  0.00    +0.000 C 
ATOM      2  C   UNL     1       6.778   7.341  16.523  0.00  0.00    +0.000 C 
ATOM      3  N   UNL     1       7.531   8.186  17.421  0.00  0.00    +0.000 NA
ATOM      4  C   UNL     1       8.107   7.781  18.499  0.00  0.00    +0.000 C 
ATOM      5  N   UNL     1       8.958   8.666  19.244  0.00  0.00    +0.000 N 
ATOM      6  C   UNL     1       9.201  10.028  18.886  0.00  0.00    +0.000 C 
ATOM      7  N   UNL     1       8.568  10.559  17.902  0.00  0.00    +0.000 NA
ATOM      8  C   UNL     1       8.623  11.940  17.489  0.00  0.00    +0.000 C 
ATOM      9  C   UNL     1       9.713  12.776  18.175  0.00  0.00    +0.000 C 
ATOM     10  C   UNL     1      10.284  12.235  19.499  0.00  0.00    +0.000 C 
ATOM     11  N   UNL     1      10.063  10.821  19.707  0.00  0.00    +0.000 N 
ATOM     12  N   UNL     1       7.919   6.440  18.956  0.00  0.00    +0.000 N 
ATOM     13  C   UNL     1       7.032   5.613  18.365  0.00  0.00    +0.000 C 
ATOM     14  O   UNL     1       6.827   4.509  18.841  0.00  0.00    +0.000 OA
ATOM     15  H   UNL     1       9.426   8.292  20.086  0.00  0.00    +0.000 HD
ATOM     16  H   UNL     1      10.489  10.390  20.540  0.00  0.00    +0.000 HD
ATOM     17  H   UNL     1       8.425   6.122  19.800  0.00  0.00    +0.000 HD
ENDROOT
BRANCH   1  19
ATOM     18  C   UNL     1       4.356   7.517  18.044  0.00  0.00    +0.000 C 
ATOM     19  N   UNL     1       4.792   6.220  17.533  0.00  0.00    +0.000 N 
ATOM     20  C   UNL     1       3.887   5.181  17.396  0.00  0.00    +0.000 C 
ATOM     21  O   UNL     1       2.721   5.342  17.734  0.00  0.00    +0.000 OA
BRANCH  20  22
ATOM     22  C   UNL     1       4.298   3.826  16.838  0.00  0.00    +0.000 C 
BRANCH  22  23
ATOM     23  C   UNL     1       4.177   2.590  17.779  0.00  0.00    +0.000 C 
BRANCH  23  24
ATOM     24  N   UNL     1       4.437   2.953  19.177  0.00  0.00    +0.000 NA
ATOM     25  H   UNL     1       4.433   3.992  19.293  0.00  0.00    +0.000 HD
ATOM     26  H   UNL     1       5.348   2.574  19.513  0.00  0.00    +0.000 HD
ENDBRANCH  23  24
BRANCH  23  27
ATOM     27  C   UNL     1       2.760   1.960  17.711  0.00  0.00    +0.000 C 
BRANCH  27  28
ATOM     28  C   UNL     1       1.697   2.740  18.503  0.00  0.00    +0.000 C 
BRANCH  28  29
ATOM     29  C   UNL     1       1.379   2.079  19.849  0.00  0.00    +0.000 C 
BRANCH  29  30
ATOM     30  C   UNL     1       1.343   3.139  20.955  0.00  0.00    +0.000 C 
BRANCH  30  31
ATOM     31  N   UNL     1       1.902   4.399  20.481  0.00  0.00    +0.000 NA
ATOM     32  H   UNL     1       2.114   5.010  21.303  0.00  0.00    +0.000 HD
ATOM     33  H   UNL     1       1.175   4.884  19.906  0.00  0.00    +0.000 HD
ENDBRANCH  30  31
ENDBRANCH  29  30
ENDBRANCH  28  29
ENDBRANCH  27  28
ENDBRANCH  23  27
ENDBRANCH  22  23
ENDBRANCH  20  22
ENDBRANCH   1  19
TORSDOF 9
ENDMDL
MODEL 6
REMARK VINA RESULT:      -6.0      3.668      5.954
REMARK  Name = 
REMARK  10 active torsions:
REMARK  status: ('A' for Active; 'I' for Inactive)
REMARK    1  A    between atoms: C_1  and  N_2
REMARK    2  A    between atoms: N_2  and  C_13
REMARK    3  A    between atoms: C_3  and  C_5
REMARK    4  A    between atoms: C_5  and  C_6
REMARK    5  A    between atoms: C_6  and  N_7
REMARK    6  A    between atoms: C_6  and  C_8
REMARK    7  A    between atoms: C_8  and  C_9
REMARK    8  A    between atoms: C_9  and  C_10
REMARK    9  A    between atoms: C_10  and  C_11
REMARK   10  A    between atoms: C_11  and  N_12
REMARK                            x       y       z     vdW  Elec       q    Type
REMARK                         _______ _______ _______ _____ _____    ______ ____
ROOT
ATOM      1  C   UNL     1       0.660  10.070  18.502  0.00  0.00    +0.000 C 
ATOM      2  C   UNL     1      -0.694   9.751  17.837  0.00  0.00    +0.000 C 
ATOM      3  N   UNL     1      -1.779  10.612  18.248  0.00  0.00    +0.000 NA
ATOM      4  C   UNL     1      -1.634  11.798  18.728  0.00  0.00    +0.000 C 
ATOM      5  N   UNL     1      -2.778  12.631  18.966  0.00  0.00    +0.000 N 
ATOM      6  C   UNL     1      -4.127  12.219  18.731  0.00  0.00    +0.000 C 
ATOM      7  N   UNL     1      -4.380  11.010  18.377  0.00  0.00    +0.000 NA
ATOM      8  C   UNL     1      -5.684  10.419  18.210  0.00  0.00    +0.000 C 
ATOM      9  C   UNL     1      -6.855  11.413  18.255  0.00  0.00    +0.000 C 
ATOM     10  C   UNL     1      -6.591  12.777  18.916  0.00  0.00    +0.000 C 
ATOM     11  N   UNL     1      -5.193  13.132  19.010  0.00  0.00    +0.000 N 
ATOM     12  N   UNL     1      -0.328  12.304  19.013  0.00  0.00    +0.000 N 
ATOM     13  C   UNL     1       0.766  11.517  18.930  0.00  0.00    +0.000 C 
ATOM     14  O   UNL     1       1.851  11.955  19.274  0.00  0.00    +0.000 OA
ATOM     15  H   UNL     1      -2.616  13.587  19.321  0.00  0.00    +0.000 HD
ATOM     16  H   UNL     1      -4.961  14.067  19.376  0.00  0.00    +0.000 HD
ATOM     17  H   UNL     1      -0.230  13.273  19.358  0.00  0.00    +0.000 HD
ENDROOT
BRANCH   1  19
ATOM     18  C   UNL     1       0.216   9.391  20.884  0.00  0.00    +0.000 C 
ATOM     19  N   UNL     1       0.933   9.161  19.632  0.00  0.00    +0.000 N 
ATOM     20  C   UNL     1       1.837   8.117  19.525  0.00  0.00    +0.000 C 
ATOM     21  O   UNL     1       2.058   7.403  20.495  0.00  0.00    +0.000 OA
BRANCH  20  22
ATOM     22  C   UNL     1       2.579   7.828  18.228  0.00  0.00    +0.000 C 
BRANCH  22  23
ATOM     23  C   UNL     1       3.048   6.364  17.974  0.00  0.00    +0.000 C 
BRANCH  23  24
ATOM     24  N   UNL     1       3.927   5.888  19.049  0.00  0.00    +0.000 NA
ATOM     25  H   UNL     1       3.374   5.379  19.776  0.00  0.00    +0.000 HD
ATOM     26  H   UNL     1       4.447   6.672  19.499  0.00  0.00    +0.000 HD
ENDBRANCH  23  24
BRANCH  23  27
ATOM     27  C   UNL     1       1.843   5.389  17.884  0.00  0.00    +0.000 C 
BRANCH  27  28
ATOM     28  C   UNL     1       1.973   4.158  18.798  0.00  0.00    +0.000 C 
BRANCH  28  29
ATOM     29  C   UNL     1       2.060   2.853  17.999  0.00  0.00    +0.000 C 
BRANCH  29  30
ATOM     30  C   UNL     1       3.408   2.171  18.260  0.00  0.00    +0.000 C 
BRANCH  30  31
ATOM     31  N   UNL     1       4.501   2.953  17.693  0.00  0.00    +0.000 NA
ATOM     32  H   UNL     1       5.405   2.461  17.879  0.00  0.00    +0.000 HD
ATOM     33  H   UNL     1       4.533   3.875  18.188  0.00  0.00    +0.000 HD
ENDBRANCH  30  31
ENDBRANCH  29  30
ENDBRANCH  28  29
ENDBRANCH  27  28
ENDBRANCH  23  27
ENDBRANCH  22  23
ENDBRANCH  20  22
ENDBRANCH   1  19
TORSDOF 9
ENDMDL
MODEL 7
REMARK VINA RESULT:      -5.9      2.383      4.267
REMARK  Name = 
REMARK  10 active torsions:
REMARK  status: ('A' for Active; 'I' for Inactive)
REMARK    1  A    between atoms: C_1  and  N_2
REMARK    2  A    between atoms: N_2  and  C_13
REMARK    3  A    between atoms: C_3  and  C_5
REMARK    4  A    between atoms: C_5  and  C_6
REMARK    5  A    between atoms: C_6  and  N_7
REMARK    6  A    between atoms: C_6  and  C_8
REMARK    7  A    between atoms: C_8  and  C_9
REMARK    8  A    between atoms: C_9  and  C_10
REMARK    9  A    between atoms: C_10  and  C_11
REMARK   10  A    between atoms: C_11  and  N_12
REMARK                            x       y       z     vdW  Elec       q    Type
REMARK                         _______ _______ _______ _____ _____    ______ ____
ROOT
ATOM      1  C   UNL     1       3.528   5.595  17.457  0.00  0.00    +0.000 C 
ATOM      2  C   UNL     1       2.130   6.057  17.913  0.00  0.00    +0.000 C 
ATOM      3  N   UNL     1       2.042   7.462  18.241  0.00  0.00    +0.000 NA
ATOM      4  C   UNL     1       2.836   8.371  17.792  0.00  0.00    +0.000 C 
ATOM      5  N   UNL     1       2.576   9.758  18.057  0.00  0.00    +0.000 N 
ATOM      6  C   UNL     1       1.474  10.228  18.838  0.00  0.00    +0.000 C 
ATOM      7  N   UNL     1       0.704   9.391  19.436  0.00  0.00    +0.000 NA
ATOM      8  C   UNL     1      -0.373   9.709  20.340  0.00  0.00    +0.000 C 
ATOM      9  C   UNL     1      -0.746  11.198  20.402  0.00  0.00    +0.000 C 
ATOM     10  C   UNL     1       0.307  12.206  19.907  0.00  0.00    +0.000 C 
ATOM     11  N   UNL     1       1.315  11.635  19.042  0.00  0.00    +0.000 N 
ATOM     12  N   UNL     1       3.977   8.009  17.012  0.00  0.00    +0.000 N 
ATOM     13  C   UNL     1       4.336   6.719  16.845  0.00  0.00    +0.000 C 
ATOM     14  O   UNL     1       5.369   6.451  16.255  0.00  0.00    +0.000 OA
ATOM     15  H   UNL     1       3.219  10.457  17.652  0.00  0.00    +0.000 HD
ATOM     16  H   UNL     1       2.002  12.278  18.621  0.00  0.00    +0.000 HD
ATOM     17  H   UNL     1       4.578   8.756  16.626  0.00  0.00    +0.000 HD
ENDROOT
BRANCH   1  19
ATOM     18  C   UNL     1       4.803   5.798  19.617  0.00  0.00    +0.000 C 
ATOM     19  N   UNL     1       4.267   4.947  18.557  0.00  0.00    +0.000 N 
ATOM     20  C   UNL     1       4.454   3.575  18.600  0.00  0.00    +0.000 C 
ATOM     21  O   UNL     1       5.100   3.077  19.514  0.00  0.00    +0.000 OA
BRANCH  20  22
ATOM     22  C   UNL     1       3.884   2.653  17.531  0.00  0.00    +0.000 C 
BRANCH  22  23
ATOM     23  C   UNL     1       2.569   1.886  17.864  0.00  0.00    +0.000 C 
BRANCH  23  24
ATOM     24  N   UNL     1       2.738   1.016  19.034  0.00  0.00    +0.000 NA
ATOM     25  H   UNL     1       3.435   1.424  19.697  0.00  0.00    +0.000 HD
ATOM     26  H   UNL     1       3.043   0.057  18.762  0.00  0.00    +0.000 HD
ENDBRANCH  23  24
BRANCH  23  27
ATOM     27  C   UNL     1       1.402   2.864  18.168  0.00  0.00    +0.000 C 
BRANCH  27  28
ATOM     28  C   UNL     1       0.720   2.611  19.523  0.00  0.00    +0.000 C 
BRANCH  28  29
ATOM     29  C   UNL     1       1.122   3.652  20.574  0.00  0.00    +0.000 C 
BRANCH  29  30
ATOM     30  C   UNL     1       1.567   2.948  21.861  0.00  0.00    +0.000 C 
BRANCH  30  31
ATOM     31  N   UNL     1       2.954   2.512  21.758  0.00  0.00    +0.000 NA
ATOM     32  H   UNL     1       3.382   2.933  20.902  0.00  0.00    +0.000 HD
ATOM     33  H   UNL     1       2.962   1.472  21.639  0.00  0.00    +0.000 HD
ENDBRANCH  30  31
ENDBRANCH  29  30
ENDBRANCH  28  29
ENDBRANCH  27  28
ENDBRANCH  23  27
ENDBRANCH  22  23
ENDBRANCH  20  22
ENDBRANCH   1  19
TORSDOF 9
ENDMDL
MODEL 8
REMARK VINA RESULT:      -5.9      3.351      7.459
REMARK  Name = 
REMARK  10 active torsions:
REMARK  status: ('A' for Active; 'I' for Inactive)
REMARK    1  A    between atoms: C_1  and  N_2
REMARK    2  A    between atoms: N_2  and  C_13
REMARK    3  A    between atoms: C_3  and  C_5
REMARK    4  A    between atoms: C_5  and  C_6
REMARK    5  A    between atoms: C_6  and  N_7
REMARK    6  A    between atoms: C_6  and  C_8
REMARK    7  A    between atoms: C_8  and  C_9
REMARK    8  A    between atoms: C_9  and  C_10
REMARK    9  A    between atoms: C_10  and  C_11
REMARK   10  A    between atoms: C_11  and  N_12
REMARK                            x       y       z     vdW  Elec       q    Type
REMARK                         _______ _______ _______ _____ _____    ______ ____
ROOT
ATOM      1  C   UNL     1       4.392   4.929  18.622  0.00  0.00    +0.000 C 
ATOM      2  C   UNL     1       4.003   4.070  17.403  0.00  0.00    +0.000 C 
ATOM      3  N   UNL     1       4.896   4.194  16.274  0.00  0.00    +0.000 NA
ATOM      4  C   UNL     1       6.125   4.571  16.348  0.00  0.00    +0.000 C 
ATOM      5  N   UNL     1       6.973   4.517  15.191  0.00  0.00    +0.000 N 
ATOM      6  C   UNL     1       6.533   4.089  13.900  0.00  0.00    +0.000 C 
ATOM      7  N   UNL     1       5.294   3.819  13.697  0.00  0.00    +0.000 NA
ATOM      8  C   UNL     1       4.683   3.482  12.435  0.00  0.00    +0.000 C 
ATOM      9  C   UNL     1       5.671   3.219  11.289  0.00  0.00    +0.000 C 
ATOM     10  C   UNL     1       7.097   3.778  11.450  0.00  0.00    +0.000 C 
ATOM     11  N   UNL     1       7.465   4.082  12.814  0.00  0.00    +0.000 N 
ATOM     12  N   UNL     1       6.662   5.032  17.590  0.00  0.00    +0.000 N 
ATOM     13  C   UNL     1       5.876   5.222  18.670  0.00  0.00    +0.000 C 
ATOM     14  O   UNL     1       6.350   5.708  19.683  0.00  0.00    +0.000 OA
ATOM     15  H   UNL     1       7.960   4.799  15.301  0.00  0.00    +0.000 HD
ATOM     16  H   UNL     1       8.433   4.388  12.990  0.00  0.00    +0.000 HD
ATOM     17  H   UNL     1       7.662   5.290  17.639  0.00  0.00    +0.000 HD
ENDROOT
BRANCH   1  19
ATOM     18  C   UNL     1       3.873   7.202  17.674  0.00  0.00    +0.000 C 
ATOM     19  N   UNL     1       3.603   6.175  18.678  0.00  0.00    +0.000 N 
ATOM     20  C   UNL     1       2.632   6.379  19.645  0.00  0.00    +0.000 C 
ATOM     21  O   UNL     1       2.019   7.439  19.677  0.00  0.00    +0.000 OA
BRANCH  20  22
ATOM     22  C   UNL     1       2.302   5.320  20.687  0.00  0.00    +0.000 C 
BRANCH  22  23
ATOM     23  C   UNL     1       1.102   4.368  20.396  0.00  0.00    +0.000 C 
BRANCH  23  24
ATOM     24  N   UNL     1       1.014   4.037  18.969  0.00  0.00    +0.000 NA
ATOM     25  H   UNL     1       0.534   3.118  18.835  0.00  0.00    +0.000 HD
ATOM     26  H   UNL     1       1.955   4.002  18.521  0.00  0.00    +0.000 HD
ENDBRANCH  23  24
BRANCH  23  27
ATOM     27  C   UNL     1       1.231   3.036  21.182  0.00  0.00    +0.000 C 
BRANCH  27  28
ATOM     28  C   UNL     1       2.680   2.668  21.544  0.00  0.00    +0.000 C 
BRANCH  28  29
ATOM     29  C   UNL     1       3.338   1.793  20.471  0.00  0.00    +0.000 C 
BRANCH  29  30
ATOM     30  C   UNL     1       4.851   2.041  20.452  0.00  0.00    +0.000 C 
BRANCH  30  31
ATOM     31  N   UNL     1       5.522   1.212  21.445  0.00  0.00    +0.000 NA
ATOM     32  H   UNL     1       6.556   1.338  21.352  0.00  0.00    +0.000 HD
ATOM     33  H   UNL     1       5.305   0.210  21.235  0.00  0.00    +0.000 HD
ENDBRANCH  30  31
ENDBRANCH  29  30
ENDBRANCH  28  29
ENDBRANCH  27  28
ENDBRANCH  23  27
ENDBRANCH  22  23
ENDBRANCH  20  22
ENDBRANCH   1  19
TORSDOF 9
ENDMDL
MODEL 9
REMARK VINA RESULT:      -5.8      3.681      5.702
REMARK  Name = 
REMARK  10 active torsions:
REMARK  status: ('A' for Active; 'I' for Inactive)
REMARK    1  A    between atoms: C_1  and  N_2
REMARK    2  A    between atoms: N_2  and  C_13
REMARK    3  A    between atoms: C_3  and  C_5
REMARK    4  A    between atoms: C_5  and  C_6
REMARK    5  A    between atoms: C_6  and  N_7
REMARK    6  A    between atoms: C_6  and  C_8
REMARK    7  A    between atoms: C_8  and  C_9
REMARK    8  A    between atoms: C_9  and  C_10
REMARK    9  A    between atoms: C_10  and  C_11
REMARK   10  A    between atoms: C_11  and  N_12
REMARK                            x       y       z     vdW  Elec       q    Type
REMARK                         _______ _______ _______ _____ _____    ______ ____
ROOT
ATOM      1  C   UNL     1       0.578  10.345  18.762  0.00  0.00    +0.000 C 
ATOM      2  C   UNL     1      -0.745  10.080  18.016  0.00  0.00    +0.000 C 
ATOM      3  N   UNL     1      -1.855  10.891  18.460  0.00  0.00    +0.000 NA
ATOM      4  C   UNL     1      -1.742  12.029  19.052  0.00  0.00    +0.000 C 
ATOM      5  N   UNL     1      -2.904  12.829  19.319  0.00  0.00    +0.000 N 
ATOM      6  C   UNL     1      -4.238  12.430  18.993  0.00  0.00    +0.000 C 
ATOM      7  N   UNL     1      -4.463  11.257  18.520  0.00  0.00    +0.000 NA
ATOM      8  C   UNL     1      -5.753  10.674  18.247  0.00  0.00    +0.000 C 
ATOM      9  C   UNL     1      -6.935  11.651  18.335  0.00  0.00    +0.000 C 
ATOM     10  C   UNL     1      -6.713  12.951  19.128  0.00  0.00    +0.000 C 
ATOM     11  N   UNL     1      -5.323  13.306  19.310  0.00  0.00    +0.000 N 
ATOM     12  N   UNL     1      -0.454  12.516  19.435  0.00  0.00    +0.000 N 
ATOM     13  C   UNL     1       0.651  11.748  19.324  0.00  0.00    +0.000 C 
ATOM     14  O   UNL     1       1.716  12.160  19.750  0.00  0.00    +0.000 OA
ATOM     15  H   UNL     1      -2.766  13.749  19.766  0.00  0.00    +0.000 HD
ATOM     16  H   UNL     1      -5.117  14.205  19.769  0.00  0.00    +0.000 HD
ATOM     17  H   UNL     1      -0.380  13.450  19.871  0.00  0.00    +0.000 HD
ENDROOT
BRANCH   1  19
ATOM     18  C   UNL     1       0.078   9.472  21.069  0.00  0.00    +0.000 C 
ATOM     19  N   UNL     1       0.815   9.339  19.815  0.00  0.00    +0.000 N 
ATOM     20  C   UNL     1       1.705   8.293  19.634  0.00  0.00    +0.000 C 
ATOM     21  O   UNL     1       1.898   7.495  20.542  0.00  0.00    +0.000 OA
BRANCH  20  22
ATOM     22  C   UNL     1       2.467   8.103  18.330  0.00  0.00    +0.000 C 
BRANCH  22  23
ATOM     23  C   UNL     1       3.299   6.796  18.161  0.00  0.00    +0.000 C 
BRANCH  23  24
ATOM     24  N   UNL     1       2.430   5.621  18.026  0.00  0.00    +0.000 NA
ATOM     25  H   UNL     1       2.990   4.741  18.095  0.00  0.00    +0.000 HD
ATOM     26  H   UNL     1       1.910   5.627  17.122  0.00  0.00    +0.000 HD
ENDBRANCH  23  24
BRANCH  23  27
ATOM     27  C   UNL     1       4.206   6.859  16.903  0.00  0.00    +0.000 C 
BRANCH  27  28
ATOM     28  C   UNL     1       5.711   6.880  17.225  0.00  0.00    +0.000 C 
BRANCH  28  29
ATOM     29  C   UNL     1       6.199   5.542  17.790  0.00  0.00    +0.000 C 
BRANCH  29  30
ATOM     30  C   UNL     1       6.971   4.772  16.712  0.00  0.00    +0.000 C 
BRANCH  30  31
ATOM     31  N   UNL     1       7.446   5.676  15.672  0.00  0.00    +0.000 NA
ATOM     32  H   UNL     1       7.698   6.593  16.106  0.00  0.00    +0.000 HD
ATOM     33  H   UNL     1       6.659   5.847  15.003  0.00  0.00    +0.000 HD
ENDBRANCH  30  31
ENDBRANCH  29  30
ENDBRANCH  28  29
ENDBRANCH  27  28
ENDBRANCH  23  27
ENDBRANCH  22  23
ENDBRANCH  20  22
ENDBRANCH   1  19
TORSDOF 9
ENDMDL
