MODEL 1
REMARK VINA RESULT:      -7.4      0.000      0.000
REMARK  Name = 
REMARK  7 active torsions:
REMARK  status: ('A' for Active; 'I' for Inactive)
REMARK    1  A    between atoms: C_1  and  O_2
REMARK    2  A    between atoms: O_2  and  C_3
REMARK    3  A    between atoms: C_6  and  S_7
REMARK    4  A    between atoms: S_7  and  N_10
REMARK    5  A    between atoms: N_10  and  C_11
REMARK    6  A    between atoms: N_10  and  C_12
REMARK    7  A    between atoms: C_14  and  C_15
REMARK                            x       y       z     vdW  Elec       q    Type
REMARK                         _______ _______ _______ _____ _____    ______ ____
ROOT
ATOM      1  C   UNL     1       3.245   7.109  18.192  0.00  0.00    +0.000 A 
ATOM      2  C   UNL     1       2.325   6.740  19.189  0.00  0.00    +0.000 A 
ATOM      3  C   UNL     1       2.384   5.481  19.780  0.00  0.00    +0.000 A 
ATOM      4  C   UNL     1       3.333   4.564  19.334  0.00  0.00    +0.000 A 
ATOM      5  C   UNL     1       4.217   4.900  18.302  0.00  0.00    +0.000 A 
ATOM      6  C   UNL     1       4.178   6.176  17.707  0.00  0.00    +0.000 A 
ENDROOT
BRANCH   6   7
ATOM      7  C   UNL     1       5.167   6.476  16.605  0.00  0.00    +0.000 C 
ATOM      8  O   UNL     1       5.114   5.526  15.534  0.00  0.00    +0.000 OA
ATOM      9  C   UNL     1       6.391   5.167  15.227  0.00  0.00    +0.000 C 
ATOM     10  O   UNL     1       6.689   4.408  14.319  0.00  0.00    +0.000 OA
ATOM     11  N   UNL     1       7.268   5.763  16.051  0.00  0.00    +0.000 N 
ATOM     12  C   UNL     1       6.619   6.474  16.998  0.00  0.00    +0.000 C 
ATOM     13  O   UNL     1       7.139   7.042  17.944  0.00  0.00    +0.000 OA
ATOM     14  H   UNL     1       8.259   5.596  16.024  0.00  0.00    +0.000 HD
ENDBRANCH   6   7
BRANCH   4  15
ATOM     15  S   UNL     1       3.487   2.992  20.154  0.00  0.00    +0.000 S 
ATOM     16  O   UNL     1       4.895   2.646  20.151  0.00  0.00    +0.000 OA
ATOM     17  O   UNL     1       2.741   3.069  21.391  0.00  0.00    +0.000 OA
BRANCH  15  18
ATOM     18  N   UNL     1       2.682   1.929  19.098  0.00  0.00    +0.000 NA
ATOM     19  C   UNL     1       1.274   2.237  18.794  0.00  0.00    +0.000 C 
ATOM     20  C   UNL     1       3.445   1.462  17.928  0.00  0.00    +0.000 C 
ENDBRANCH  15  18
ENDBRANCH   4  15
BRANCH   1  22
ATOM     21  C   UNL     1       2.073   9.119  17.846  0.00  0.00    +0.000 C 
ATOM     22  O   UNL     1       3.277   8.372  17.657  0.00  0.00    +0.000 OA
ENDBRANCH   1  22
TORSDOF 4
ENDMDL
MODEL 2
REMARK VINA RESULT:      -7.2      1.002      1.255
REMARK  Name = 
REMARK  7 active torsions:
REMARK  status: ('A' for Active; 'I' for Inactive)
REMARK    1  A    between atoms: C_1  and  O_2
REMARK    2  A    between atoms: O_2  and  C_3
REMARK    3  A    between atoms: C_6  and  S_7
REMARK    4  A    between atoms: S_7  and  N_10
REMARK    5  A    between atoms: N_10  and  C_11
REMARK    6  A    between atoms: N_10  and  C_12
REMARK    7  A    between atoms: C_14  and  C_15
REMARK                            x       y       z     vdW  Elec       q    Type
REMARK                         _______ _______ _______ _____ _____    ______ ____
ROOT
ATOM      1  C   UNL     1       3.419   6.717  17.937  0.00  0.00    +0.000 A 
ATOM      2  C   UNL     1       2.482   6.273  18.886  0.00  0.00    +0.000 A 
ATOM      3  C   UNL     1       2.460   4.942  19.294  0.00  0.00    +0.000 A 
ATOM      4  C   UNL     1       3.343   4.037  18.710  0.00  0.00    +0.000 A 
ATOM      5  C   UNL     1       4.241   4.455  17.722  0.00  0.00    +0.000 A 
ATOM      6  C   UNL     1       4.285   5.802  17.313  0.00  0.00    +0.000 A 
ENDROOT
BRANCH   6   7
ATOM      7  C   UNL     1       5.286   6.190  16.249  0.00  0.00    +0.000 C 
ATOM      8  O   UNL     1       5.228   5.343  15.094  0.00  0.00    +0.000 OA
ATOM      9  C   UNL     1       6.502   4.996  14.762  0.00  0.00    +0.000 C 
ATOM     10  O   UNL     1       6.795   4.320  13.789  0.00  0.00    +0.000 OA
ATOM     11  N   UNL     1       7.381   5.500  15.643  0.00  0.00    +0.000 N 
ATOM     12  C   UNL     1       6.735   6.129  16.649  0.00  0.00    +0.000 C 
ATOM     13  O   UNL     1       7.256   6.600  17.646  0.00  0.00    +0.000 OA
ATOM     14  H   UNL     1       8.370   5.322  15.607  0.00  0.00    +0.000 HD
ENDBRANCH   6   7
BRANCH   4  15
ATOM     15  S   UNL     1       3.396   2.358  19.299  0.00  0.00    +0.000 S 
ATOM     16  O   UNL     1       3.614   1.509  18.144  0.00  0.00    +0.000 OA
ATOM     17  O   UNL     1       4.294   2.320  20.433  0.00  0.00    +0.000 OA
BRANCH  15  18
ATOM     18  N   UNL     1       1.810   2.096  19.853  0.00  0.00    +0.000 NA
ATOM     19  C   UNL     1       1.485   2.600  21.198  0.00  0.00    +0.000 C 
ATOM     20  C   UNL     1       0.730   2.305  18.873  0.00  0.00    +0.000 C 
ENDBRANCH  15  18
ENDBRANCH   4  15
BRANCH   1  22
ATOM     21  C   UNL     1       2.351   8.809  17.813  0.00  0.00    +0.000 C 
ATOM     22  O   UNL     1       3.533   8.038  17.583  0.00  0.00    +0.000 OA
ENDBRANCH   1  22
TORSDOF 4
ENDMDL
MODEL 3
REMARK VINA RESULT:      -7.1      1.729      2.046
REMARK  Name = 
REMARK  7 active torsions:
REMARK  status: ('A' for Active; 'I' for Inactive)
REMARK    1  A    between atoms: C_1  and  O_2
REMARK    2  A    between atoms: O_2  and  C_3
REMARK    3  A    between atoms: C_6  and  S_7
REMARK    4  A    between atoms: S_7  and  N_10
REMARK    5  A    between atoms: N_10  and  C_11
REMARK    6  A    between atoms: N_10  and  C_12
REMARK    7  A    between atoms: C_14  and  C_15
REMARK                            x       y       z     vdW  Elec       q    Type
REMARK                         _______ _______ _______ _____ _____    ______ ____
ROOT
ATOM      1  C   UNL     1       3.354   6.566  17.856  0.00  0.00    +0.000 A 
ATOM      2  C   UNL     1       2.065   6.132  18.215  0.00  0.00    +0.000 A 
ATOM      3  C   UNL     1       1.816   4.789  18.482  0.00  0.00    +0.000 A 
ATOM      4  C   UNL     1       2.847   3.863  18.336  0.00  0.00    +0.000 A 
ATOM      5  C   UNL     1       4.119   4.275  17.923  0.00  0.00    +0.000 A 
ATOM      6  C   UNL     1       4.389   5.633  17.666  0.00  0.00    +0.000 A 
ENDROOT
BRANCH   6   7
ATOM      7  C   UNL     1       5.786   6.010  17.233  0.00  0.00    +0.000 C 
ATOM      8  O   UNL     1       5.949   6.008  15.809  0.00  0.00    +0.000 OA
ATOM      9  C   UNL     1       7.105   5.350  15.519  0.00  0.00    +0.000 C 
ATOM     10  O   UNL     1       7.554   5.221  14.391  0.00  0.00    +0.000 OA
ATOM     11  N   UNL     1       7.679   4.873  16.635  0.00  0.00    +0.000 N 
ATOM     12  C   UNL     1       6.894   5.110  17.709  0.00  0.00    +0.000 C 
ATOM     13  O   UNL     1       7.097   4.709  18.842  0.00  0.00    +0.000 OA
ATOM     14  H   UNL     1       8.516   4.316  16.637  0.00  0.00    +0.000 HD
ENDBRANCH   6   7
BRANCH   4  15
ATOM     15  S   UNL     1       2.567   2.162  18.776  0.00  0.00    +0.000 S 
ATOM     16  O   UNL     1       1.132   1.957  18.792  0.00  0.00    +0.000 OA
ATOM     17  O   UNL     1       3.427   1.348  17.945  0.00  0.00    +0.000 OA
BRANCH  15  18
ATOM     18  N   UNL     1       3.128   2.083  20.379  0.00  0.00    +0.000 NA
ATOM     19  C   UNL     1       4.587   2.104  20.574  0.00  0.00    +0.000 C 
ATOM     20  C   UNL     1       2.394   2.888  21.371  0.00  0.00    +0.000 C 
ENDBRANCH  15  18
ENDBRANCH   4  15
BRANCH   1  22
ATOM     21  C   UNL     1       2.536   8.770  17.802  0.00  0.00    +0.000 C 
ATOM     22  O   UNL     1       3.658   7.892  17.679  0.00  0.00    +0.000 OA
ENDBRANCH   1  22
TORSDOF 4
ENDMDL
MODEL 4
REMARK VINA RESULT:      -7.0      2.591      5.599
REMARK  Name = 
REMARK  7 active torsions:
REMARK  status: ('A' for Active; 'I' for Inactive)
REMARK    1  A    between atoms: C_1  and  O_2
REMARK    2  A    between atoms: O_2  and  C_3
REMARK    3  A    between atoms: C_6  and  S_7
REMARK    4  A    between atoms: S_7  and  N_10
REMARK    5  A    between atoms: N_10  and  C_11
REMARK    6  A    between atoms: N_10  and  C_12
REMARK    7  A    between atoms: C_14  and  C_15
REMARK                            x       y       z     vdW  Elec       q    Type
REMARK                         _______ _______ _______ _____ _____    ______ ____
ROOT
ATOM      1  C   UNL     1       2.947   3.621  17.324  0.00  0.00    +0.000 A 
ATOM      2  C   UNL     1       3.937   2.870  16.666  0.00  0.00    +0.000 A 
ATOM      3  C   UNL     1       5.223   3.379  16.501  0.00  0.00    +0.000 A 
ATOM      4  C   UNL     1       5.507   4.668  16.946  0.00  0.00    +0.000 A 
ATOM      5  C   UNL     1       4.514   5.447  17.550  0.00  0.00    +0.000 A 
ATOM      6  C   UNL     1       3.214   4.938  17.738  0.00  0.00    +0.000 A 
ENDROOT
BRANCH   6   7
ATOM      7  C   UNL     1       2.192   5.828  18.406  0.00  0.00    +0.000 C 
ATOM      8  O   UNL     1       2.160   7.151  17.856  0.00  0.00    +0.000 OA
ATOM      9  C   UNL     1       2.146   8.036  18.891  0.00  0.00    +0.000 C 
ATOM     10  O   UNL     1       2.067   9.246  18.754  0.00  0.00    +0.000 OA
ATOM     11  N   UNL     1       2.225   7.398  20.070  0.00  0.00    +0.000 N 
ATOM     12  C   UNL     1       2.385   6.070  19.878  0.00  0.00    +0.000 C 
ATOM     13  O   UNL     1       2.587   5.244  20.753  0.00  0.00    +0.000 OA
ATOM     14  H   UNL     1       2.277   7.869  20.956  0.00  0.00    +0.000 HD
ENDBRANCH   6   7
BRANCH   4  15
ATOM     15  S   UNL     1       7.171   5.288  16.835  0.00  0.00    +0.000 S 
ATOM     16  O   UNL     1       8.058   4.184  17.149  0.00  0.00    +0.000 OA
ATOM     17  O   UNL     1       7.289   6.005  15.583  0.00  0.00    +0.000 OA
BRANCH  15  18
ATOM     18  N   UNL     1       7.250   6.407  18.112  0.00  0.00    +0.000 NA
ATOM     19  C   UNL     1       7.785   5.916  19.393  0.00  0.00    +0.000 C 
ATOM     20  C   UNL     1       7.708   7.764  17.768  0.00  0.00    +0.000 C 
ENDBRANCH  15  18
ENDBRANCH   4  15
BRANCH   1  22
ATOM     21  C   UNL     1       1.643   2.275  18.745  0.00  0.00    +0.000 C 
ATOM     22  O   UNL     1       1.700   3.115  17.589  0.00  0.00    +0.000 OA
ENDBRANCH   1  22
TORSDOF 4
ENDMDL
MODEL 5
REMARK VINA RESULT:      -7.0      2.415      3.422
REMARK  Name = 
REMARK  7 active torsions:
REMARK  status: ('A' for Active; 'I' for Inactive)
REMARK    1  A    between atoms: C_1  and  O_2
REMARK    2  A    between atoms: O_2  and  C_3
REMARK    3  A    between atoms: C_6  and  S_7
REMARK    4  A    between atoms: S_7  and  N_10
REMARK    5  A    between atoms: N_10  and  C_11
REMARK    6  A    between atoms: N_10  and  C_12
REMARK    7  A    between atoms: C_14  and  C_15
REMARK                            x       y       z     vdW  Elec       q    Type
REMARK                         _______ _______ _______ _____ _____    ______ ____
ROOT
ATOM      1  C   UNL     1       5.867   6.140  16.755  0.00  0.00    +0.000 A 
ATOM      2  C   UNL     1       4.895   6.593  17.664  0.00  0.00    +0.000 A 
ATOM      3  C   UNL     1       3.802   5.795  17.993  0.00  0.00    +0.000 A 
ATOM      4  C   UNL     1       3.649   4.560  17.368  0.00  0.00    +0.000 A 
ATOM      5  C   UNL     1       4.579   4.123  16.418  0.00  0.00    +0.000 A 
ATOM      6  C   UNL     1       5.698   4.913  16.089  0.00  0.00    +0.000 A 
ENDROOT
BRANCH   6   7
ATOM      7  C   UNL     1       6.669   4.377  15.062  0.00  0.00    +0.000 C 
ATOM      8  O   UNL     1       7.804   5.230  14.871  0.00  0.00    +0.000 OA
ATOM      9  C   UNL     1       8.004   5.371  13.531  0.00  0.00    +0.000 C 
ATOM     10  O   UNL     1       8.928   5.998  13.039  0.00  0.00    +0.000 OA
ATOM     11  N   UNL     1       7.054   4.726  12.834  0.00  0.00    +0.000 N 
ATOM     12  C   UNL     1       6.130   4.201  13.669  0.00  0.00    +0.000 C 
ATOM     13  O   UNL     1       5.098   3.646  13.330  0.00  0.00    +0.000 OA
ATOM     14  H   UNL     1       6.990   4.743  11.831  0.00  0.00    +0.000 HD
ENDBRANCH   6   7
BRANCH   4  15
ATOM     15  S   UNL     1       2.315   3.488  17.858  0.00  0.00    +0.000 S 
ATOM     16  O   UNL     1       1.094   4.061  17.328  0.00  0.00    +0.000 OA
ATOM     17  O   UNL     1       2.704   2.132  17.536  0.00  0.00    +0.000 OA
BRANCH  15  18
ATOM     18  N   UNL     1       2.288   3.659  19.549  0.00  0.00    +0.000 NA
ATOM     19  C   UNL     1       0.963   3.730  20.188  0.00  0.00    +0.000 C 
ATOM     20  C   UNL     1       3.260   2.851  20.306  0.00  0.00    +0.000 C 
ENDBRANCH  15  18
ENDBRANCH   4  15
BRANCH   1  22
ATOM     21  C   UNL     1       7.424   7.717  17.542  0.00  0.00    +0.000 C 
ATOM     22  O   UNL     1       7.004   6.856  16.480  0.00  0.00    +0.000 OA
ENDBRANCH   1  22
TORSDOF 4
ENDMDL
MODEL 6
REMARK VINA RESULT:      -7.0      2.270      2.864
REMARK  Name = 
REMARK  7 active torsions:
REMARK  status: ('A' for Active; 'I' for Inactive)
REMARK    1  A    between atoms: C_1  and  O_2
REMARK    2  A    between atoms: O_2  and  C_3
REMARK    3  A    between atoms: C_6  and  S_7
REMARK    4  A    between atoms: S_7  and  N_10
REMARK    5  A    between atoms: N_10  and  C_11
REMARK    6  A    between atoms: N_10  and  C_12
REMARK    7  A    between atoms: C_14  and  C_15
REMARK                            x       y       z     vdW  Elec       q    Type
REMARK                         _______ _______ _______ _____ _____    ______ ____
ROOT
ATOM      1  C   UNL     1       5.882   6.165  17.295  0.00  0.00    +0.000 A 
ATOM      2  C   UNL     1       5.638   6.036  18.673  0.00  0.00    +0.000 A 
ATOM      3  C   UNL     1       5.031   4.892  19.184  0.00  0.00    +0.000 A 
ATOM      4  C   UNL     1       4.613   3.894  18.307  0.00  0.00    +0.000 A 
ATOM      5  C   UNL     1       4.798   4.037  16.927  0.00  0.00    +0.000 A 
ATOM      6  C   UNL     1       5.425   5.181  16.399  0.00  0.00    +0.000 A 
ENDROOT
BRANCH   6   7
ATOM      7  C   UNL     1       5.602   5.268  14.901  0.00  0.00    +0.000 C 
ATOM      8  O   UNL     1       4.797   4.320  14.189  0.00  0.00    +0.000 OA
ATOM      9  C   UNL     1       5.581   3.722  13.250  0.00  0.00    +0.000 C 
ATOM     10  O   UNL     1       5.177   2.901  12.443  0.00  0.00    +0.000 OA
ATOM     11  N   UNL     1       6.848   4.162  13.333  0.00  0.00    +0.000 N 
ATOM     12  C   UNL     1       6.989   5.002  14.381  0.00  0.00    +0.000 C 
ATOM     13  O   UNL     1       8.039   5.484  14.771  0.00  0.00    +0.000 OA
ATOM     14  H   UNL     1       7.597   3.812  12.761  0.00  0.00    +0.000 HD
ENDBRANCH   6   7
BRANCH   4  15
ATOM     15  S   UNL     1       3.932   2.383  18.957  0.00  0.00    +0.000 S 
ATOM     16  O   UNL     1       3.608   1.541  17.823  0.00  0.00    +0.000 OA
ATOM     17  O   UNL     1       4.820   1.918  20.001  0.00  0.00    +0.000 OA
BRANCH  15  18
ATOM     18  N   UNL     1       2.475   2.894  19.668  0.00  0.00    +0.000 NA
ATOM     19  C   UNL     1       1.229   2.435  19.033  0.00  0.00    +0.000 C 
ATOM     20  C   UNL     1       2.422   2.876  21.140  0.00  0.00    +0.000 C 
ENDBRANCH  15  18
ENDBRANCH   4  15
BRANCH   1  22
ATOM     21  C   UNL     1       7.641   7.699  17.583  0.00  0.00    +0.000 C 
ATOM     22  O   UNL     1       6.563   7.233  16.768  0.00  0.00    +0.000 OA
ENDBRANCH   1  22
TORSDOF 4
ENDMDL
MODEL 7
REMARK VINA RESULT:      -6.9      2.100      2.756
REMARK  Name = 
REMARK  7 active torsions:
REMARK  status: ('A' for Active; 'I' for Inactive)
REMARK    1  A    between atoms: C_1  and  O_2
REMARK    2  A    between atoms: O_2  and  C_3
REMARK    3  A    between atoms: C_6  and  S_7
REMARK    4  A    between atoms: S_7  and  N_10
REMARK    5  A    between atoms: N_10  and  C_11
REMARK    6  A    between atoms: N_10  and  C_12
REMARK    7  A    between atoms: C_14  and  C_15
REMARK                            x       y       z     vdW  Elec       q    Type
REMARK                         _______ _______ _______ _____ _____    ______ ____
ROOT
ATOM      1  C   UNL     1       5.019   6.512  17.136  0.00  0.00    +0.000 A 
ATOM      2  C   UNL     1       4.221   6.573  18.292  0.00  0.00    +0.000 A 
ATOM      3  C   UNL     1       3.407   5.502  18.651  0.00  0.00    +0.000 A 
ATOM      4  C   UNL     1       3.347   4.385  17.821  0.00  0.00    +0.000 A 
ATOM      5  C   UNL     1       4.092   4.337  16.638  0.00  0.00    +0.000 A 
ATOM      6  C   UNL     1       4.932   5.406  16.272  0.00  0.00    +0.000 A 
ENDROOT
BRANCH   6   7
ATOM      7  C   UNL     1       5.717   5.285  14.986  0.00  0.00    +0.000 C 
ATOM      8  O   UNL     1       4.965   4.676  13.929  0.00  0.00    +0.000 OA
ATOM      9  C   UNL     1       5.755   3.738  13.337  0.00  0.00    +0.000 C 
ATOM     10  O   UNL     1       5.422   3.077  12.367  0.00  0.00    +0.000 OA
ATOM     11  N   UNL     1       6.940   3.646  13.962  0.00  0.00    +0.000 N 
ATOM     12  C   UNL     1       6.966   4.449  15.048  0.00  0.00    +0.000 C 
ATOM     13  O   UNL     1       7.865   4.507  15.870  0.00  0.00    +0.000 OA
ATOM     14  H   UNL     1       7.651   2.980  13.713  0.00  0.00    +0.000 HD
ENDBRANCH   6   7
BRANCH   4  15
ATOM     15  S   UNL     1       2.392   2.969  18.324  0.00  0.00    +0.000 S 
ATOM     16  O   UNL     1       1.015   3.232  17.955  0.00  0.00    +0.000 OA
ATOM     17  O   UNL     1       3.079   1.787  17.847  0.00  0.00    +0.000 OA
BRANCH  15  18
ATOM     18  N   UNL     1       2.502   3.015  20.020  0.00  0.00    +0.000 NA
ATOM     19  C   UNL     1       1.247   2.845  20.771  0.00  0.00    +0.000 C 
ATOM     20  C   UNL     1       3.645   2.308  20.623  0.00  0.00    +0.000 C 
ENDBRANCH  15  18
ENDBRANCH   4  15
BRANCH   1  22
ATOM     21  C   UNL     1       7.139   7.454  17.521  0.00  0.00    +0.000 C 
ATOM     22  O   UNL     1       5.904   7.506  16.803  0.00  0.00    +0.000 OA
ENDBRANCH   1  22
TORSDOF 4
ENDMDL
MODEL 8
REMARK VINA RESULT:      -6.9      1.470      1.664
REMARK  Name = 
REMARK  7 active torsions:
REMARK  status: ('A' for Active; 'I' for Inactive)
REMARK    1  A    between atoms: C_1  and  O_2
REMARK    2  A    between atoms: O_2  and  C_3
REMARK    3  A    between atoms: C_6  and  S_7
REMARK    4  A    between atoms: S_7  and  N_10
REMARK    5  A    between atoms: N_10  and  C_11
REMARK    6  A    between atoms: N_10  and  C_12
REMARK    7  A    between atoms: C_14  and  C_15
REMARK                            x       y       z     vdW  Elec       q    Type
REMARK                         _______ _______ _______ _____ _____    ______ ____
ROOT
ATOM      1  C   UNL     1       3.146   6.955  17.745  0.00  0.00    +0.000 A 
ATOM      2  C   UNL     1       2.020   6.437  18.408  0.00  0.00    +0.000 A 
ATOM      3  C   UNL     1       1.937   5.082  18.715  0.00  0.00    +0.000 A 
ATOM      4  C   UNL     1       2.961   4.228  18.310  0.00  0.00    +0.000 A 
ATOM      5  C   UNL     1       4.059   4.723  17.599  0.00  0.00    +0.000 A 
ATOM      6  C   UNL     1       4.163   6.094  17.296  0.00  0.00    +0.000 A 
ENDROOT
BRANCH   6   7
ATOM      7  C   UNL     1       5.381   6.564  16.534  0.00  0.00    +0.000 C 
ATOM      8  O   UNL     1       5.457   6.016  15.212  0.00  0.00    +0.000 OA
ATOM      9  C   UNL     1       6.730   5.574  15.013  0.00  0.00    +0.000 C 
ATOM     10  O   UNL     1       7.133   5.099  13.964  0.00  0.00    +0.000 OA
ATOM     11  N   UNL     1       7.473   5.737  16.120  0.00  0.00    +0.000 N 
ATOM     12  C   UNL     1       6.715   6.210  17.133  0.00  0.00    +0.000 C 
ATOM     13  O   UNL     1       7.082   6.365  18.285  0.00  0.00    +0.000 OA
ATOM     14  H   UNL     1       8.428   5.432  16.200  0.00  0.00    +0.000 HD
ENDBRANCH   6   7
BRANCH   4  15
ATOM     15  S   UNL     1       2.916   2.515  18.790  0.00  0.00    +0.000 S 
ATOM     16  O   UNL     1       1.520   2.142  18.904  0.00  0.00    +0.000 OA
ATOM     17  O   UNL     1       3.811   1.792  17.912  0.00  0.00    +0.000 OA
BRANCH  15  18
ATOM     18  N   UNL     1       3.586   2.537  20.352  0.00  0.00    +0.000 NA
ATOM     19  C   UNL     1       2.640   2.577  21.480  0.00  0.00    +0.000 C 
ATOM     20  C   UNL     1       4.737   1.647  20.585  0.00  0.00    +0.000 C 
ENDBRANCH  15  18
ENDBRANCH   4  15
BRANCH   1  22
ATOM     21  C   UNL     1       2.174   9.093  17.876  0.00  0.00    +0.000 C 
ATOM     22  O   UNL     1       3.305   8.298  17.511  0.00  0.00    +0.000 OA
ENDBRANCH   1  22
TORSDOF 4
ENDMDL
MODEL 9
REMARK VINA RESULT:      -6.9      2.254      5.424
REMARK  Name = 
REMARK  7 active torsions:
REMARK  status: ('A' for Active; 'I' for Inactive)
REMARK    1  A    between atoms: C_1  and  O_2
REMARK    2  A    between atoms: O_2  and  C_3
REMARK    3  A    between atoms: C_6  and  S_7
REMARK    4  A    between atoms: S_7  and  N_10
REMARK    5  A    between atoms: N_10  and  C_11
REMARK    6  A    between atoms: N_10  and  C_12
REMARK    7  A    between atoms: C_14  and  C_15
REMARK                            x       y       z     vdW  Elec       q    Type
REMARK                         _______ _______ _______ _____ _____    ______ ____
ROOT
ATOM      1  C   UNL     1       3.208   5.397  18.684  0.00  0.00    +0.000 A 
ATOM      2  C   UNL     1       3.585   6.548  17.971  0.00  0.00    +0.000 A 
ATOM      3  C   UNL     1       4.792   6.591  17.277  0.00  0.00    +0.000 A 
ATOM      4  C   UNL     1       5.653   5.498  17.343  0.00  0.00    +0.000 A 
ATOM      5  C   UNL     1       5.315   4.370  18.097  0.00  0.00    +0.000 A 
ATOM      6  C   UNL     1       4.090   4.307  18.790  0.00  0.00    +0.000 A 
ENDROOT
BRANCH   6   7
ATOM      7  C   UNL     1       3.782   3.055  19.578  0.00  0.00    +0.000 C 
ATOM      8  O   UNL     1       4.675   2.857  20.681  0.00  0.00    +0.000 OA
ATOM      9  C   UNL     1       5.078   1.556  20.668  0.00  0.00    +0.000 C 
ATOM     10  O   UNL     1       5.804   1.057  21.511  0.00  0.00    +0.000 OA
ATOM     11  N   UNL     1       4.566   0.906  19.610  0.00  0.00    +0.000 N 
ATOM     12  C   UNL     1       3.873   1.757  18.823  0.00  0.00    +0.000 C 
ATOM     13  O   UNL     1       3.377   1.484  17.742  0.00  0.00    +0.000 OA
ATOM     14  H   UNL     1       4.778  -0.051  19.389  0.00  0.00    +0.000 HD
ENDBRANCH   6   7
BRANCH   4  15
ATOM     15  S   UNL     1       7.148   5.500  16.376  0.00  0.00    +0.000 S 
ATOM     16  O   UNL     1       7.713   6.831  16.470  0.00  0.00    +0.000 OA
ATOM     17  O   UNL     1       7.917   4.335  16.758  0.00  0.00    +0.000 OA
BRANCH  15  18
ATOM     18  N   UNL     1       6.578   5.279  14.789  0.00  0.00    +0.000 NA
ATOM     19  C   UNL     1       7.594   5.163  13.729  0.00  0.00    +0.000 C 
ATOM     20  C   UNL     1       5.448   4.349  14.621  0.00  0.00    +0.000 C 
ENDBRANCH  15  18
ENDBRANCH   4  15
BRANCH   1  22
ATOM     21  C   UNL     1       1.867   6.040  20.507  0.00  0.00    +0.000 C 
ATOM     22  O   UNL     1       1.987   5.284  19.299  0.00  0.00    +0.000 OA
ENDBRANCH   1  22
TORSDOF 4
ENDMDL
