MODEL 1
REMARK VINA RESULT:      -8.2      0.000      0.000
REMARK  Name = 
REMARK  8 active torsions:
REMARK  status: ('A' for Active; 'I' for Inactive)
REMARK    1  A    between atoms: C_1  and  O_2
REMARK    2  A    between atoms: O_2  and  C_3
REMARK    3  A    between atoms: C_6  and  C_7
REMARK    4  A    between atoms: C_7  and  O_9
REMARK    5  A    between atoms: C_12  and  C_13
REMARK    6  A    between atoms: C_13  and  C_15
REMARK    7  A    between atoms: C_23  and  O_24
REMARK    8  A    between atoms: O_24  and  C_25
REMARK                            x       y       z     vdW  Elec       q    Type
REMARK                         _______ _______ _______ _____ _____    ______ ____
ROOT
ATOM      1  C   UNL     1       2.108   3.686  18.243  0.00  0.00    +0.000 A 
ATOM      2  C   UNL     1       2.224   5.074  18.098  0.00  0.00    +0.000 A 
ATOM      3  C   UNL     1       3.415   5.706  17.667  0.00  0.00    +0.000 A 
ATOM      4  C   UNL     1       3.583   7.115  17.621  0.00  0.00    +0.000 A 
ATOM      5  C   UNL     1       4.775   7.634  17.148  0.00  0.00    +0.000 A 
ATOM      6  N   UNL     1       5.795   6.877  16.715  0.00  0.00    +0.000 NA
ATOM      7  C   UNL     1       5.637   5.528  16.731  0.00  0.00    +0.000 A 
ATOM      8  C   UNL     1       4.490   4.879  17.238  0.00  0.00    +0.000 A 
ATOM      9  C   UNL     1       4.323   3.468  17.316  0.00  0.00    +0.000 A 
ATOM     10  C   UNL     1       3.150   2.873  17.801  0.00  0.00    +0.000 A 
ENDROOT
BRANCH   1  12
ATOM     11  C   UNL     1       0.984   3.125  20.235  0.00  0.00    +0.000 C 
ATOM     12  O   UNL     1       0.999   3.111  18.806  0.00  0.00    +0.000 OA
ENDBRANCH   1  12
BRANCH   4  13
ATOM     13  C   UNL     1       2.583   8.132  18.008  0.00  0.00    +0.000 C 
ATOM     14  O   UNL     1       2.232   9.011  17.238  0.00  0.00    +0.000 OA
BRANCH  13  15
ATOM     15  O   UNL     1       2.161   8.070  19.286  0.00  0.00    +0.000 OA
ATOM     16  H   UNL     1       1.505   7.374  19.482  0.00  0.00    +0.000 HD
ENDBRANCH  13  15
ENDBRANCH   4  13
BRANCH   7  17
ATOM     17  C   UNL     1       6.797   4.806  16.092  0.00  0.00    +0.000 C 
ATOM     18  O   UNL     1       7.751   4.394  16.744  0.00  0.00    +0.000 OA
BRANCH  17  19
ATOM     19  C   UNL     1       6.804   4.646  14.606  0.00  0.00    +0.000 A 
ATOM     20  C   UNL     1       7.685   5.375  13.794  0.00  0.00    +0.000 A 
ATOM     21  C   UNL     1       7.766   5.109  12.428  0.00  0.00    +0.000 A 
ATOM     22  C   UNL     1       6.945   4.137  11.861  0.00  0.00    +0.000 A 
ATOM     23  C   UNL     1       6.019   3.454  12.653  0.00  0.00    +0.000 A 
ATOM     24  C   UNL     1       5.940   3.713  14.022  0.00  0.00    +0.000 A 
ENDBRANCH  17  19
ENDBRANCH   7  17
BRANCH  10  25
ATOM     25  O   UNL     1       3.195   1.506  17.848  0.00  0.00    +0.000 OA
ATOM     26  C   UNL     1       3.993   0.938  18.881  0.00  0.00    +0.000 C 
ENDBRANCH  10  25
TORSDOF 6
ENDMDL
MODEL 2
REMARK VINA RESULT:      -8.0      2.854      5.323
REMARK  Name = 
REMARK  8 active torsions:
REMARK  status: ('A' for Active; 'I' for Inactive)
REMARK    1  A    between atoms: C_1  and  O_2
REMARK    2  A    between atoms: O_2  and  C_3
REMARK    3  A    between atoms: C_6  and  C_7
REMARK    4  A    between atoms: C_7  and  O_9
REMARK    5  A    between atoms: C_12  and  C_13
REMARK    6  A    between atoms: C_13  and  C_15
REMARK    7  A    between atoms: C_23  and  O_24
REMARK    8  A    between atoms: O_24  and  C_25
REMARK                            x       y       z     vdW  Elec       q    Type
REMARK                         _______ _______ _______ _____ _____    ______ ____
ROOT
ATOM      1  C   UNL     1       1.474   7.299  20.379  0.00  0.00    +0.000 A 
ATOM      2  C   UNL     1       1.657   5.957  20.736  0.00  0.00    +0.000 A 
ATOM      3  C   UNL     1       2.449   5.060  19.980  0.00  0.00    +0.000 A 
ATOM      4  C   UNL     1       2.555   3.674  20.267  0.00  0.00    +0.000 A 
ATOM      5  C   UNL     1       3.385   2.889  19.488  0.00  0.00    +0.000 A 
ATOM      6  N   UNL     1       4.116   3.365  18.468  0.00  0.00    +0.000 NA
ATOM      7  C   UNL     1       4.042   4.694  18.200  0.00  0.00    +0.000 A 
ATOM      8  C   UNL     1       3.193   5.588  18.889  0.00  0.00    +0.000 A 
ATOM      9  C   UNL     1       3.056   6.973  18.591  0.00  0.00    +0.000 A 
ATOM     10  C   UNL     1       2.220   7.824  19.325  0.00  0.00    +0.000 A 
ENDROOT
BRANCH   1  12
ATOM     11  C   UNL     1       1.162   8.912  22.067  0.00  0.00    +0.000 C 
ATOM     12  O   UNL     1       0.583   8.105  21.039  0.00  0.00    +0.000 OA
ENDBRANCH   1  12
BRANCH   4  13
ATOM     13  C   UNL     1       1.875   2.948  21.360  0.00  0.00    +0.000 C 
ATOM     14  O   UNL     1       2.488   2.530  22.329  0.00  0.00    +0.000 OA
BRANCH  13  15
ATOM     15  O   UNL     1       0.563   2.712  21.169  0.00  0.00    +0.000 OA
ATOM     16  H   UNL     1       0.221   1.883  21.554  0.00  0.00    +0.000 HD
ENDBRANCH  13  15
ENDBRANCH   4  13
BRANCH   7  17
ATOM     17  C   UNL     1       5.014   5.119  17.126  0.00  0.00    +0.000 C 
ATOM     18  O   UNL     1       4.881   4.782  15.954  0.00  0.00    +0.000 OA
BRANCH  17  19
ATOM     19  C   UNL     1       6.207   5.926  17.524  0.00  0.00    +0.000 A 
ATOM     20  C   UNL     1       6.479   7.170  16.937  0.00  0.00    +0.000 A 
ATOM     21  C   UNL     1       7.518   7.964  17.422  0.00  0.00    +0.000 A 
ATOM     22  C   UNL     1       8.310   7.504  18.473  0.00  0.00    +0.000 A 
ATOM     23  C   UNL     1       8.084   6.239  19.018  0.00  0.00    +0.000 A 
ATOM     24  C   UNL     1       7.041   5.444  18.540  0.00  0.00    +0.000 A 
ENDBRANCH  17  19
ENDBRANCH   7  17
BRANCH  10  25
ATOM     25  O   UNL     1       2.181   9.110  18.858  0.00  0.00    +0.000 OA
ATOM     26  C   UNL     1       1.226   9.380  17.838  0.00  0.00    +0.000 C 
ENDBRANCH  10  25
TORSDOF 6
ENDMDL
MODEL 3
REMARK VINA RESULT:      -7.8      0.171      1.170
REMARK  Name = 
REMARK  8 active torsions:
REMARK  status: ('A' for Active; 'I' for Inactive)
REMARK    1  A    between atoms: C_1  and  O_2
REMARK    2  A    between atoms: O_2  and  C_3
REMARK    3  A    between atoms: C_6  and  C_7
REMARK    4  A    between atoms: C_7  and  O_9
REMARK    5  A    between atoms: C_12  and  C_13
REMARK    6  A    between atoms: C_13  and  C_15
REMARK    7  A    between atoms: C_23  and  O_24
REMARK    8  A    between atoms: O_24  and  C_25
REMARK                            x       y       z     vdW  Elec       q    Type
REMARK                         _______ _______ _______ _____ _____    ______ ____
ROOT
ATOM      1  C   UNL     1       2.141   3.773  18.356  0.00  0.00    +0.000 A 
ATOM      2  C   UNL     1       2.278   5.156  18.180  0.00  0.00    +0.000 A 
ATOM      3  C   UNL     1       3.482   5.761  17.746  0.00  0.00    +0.000 A 
ATOM      4  C   UNL     1       3.670   7.165  17.668  0.00  0.00    +0.000 A 
ATOM      5  C   UNL     1       4.873   7.657  17.196  0.00  0.00    +0.000 A 
ATOM      6  N   UNL     1       5.887   6.876  16.791  0.00  0.00    +0.000 NA
ATOM      7  C   UNL     1       5.709   5.530  16.837  0.00  0.00    +0.000 A 
ATOM      8  C   UNL     1       4.549   4.909  17.347  0.00  0.00    +0.000 A 
ATOM      9  C   UNL     1       4.361   3.502  17.457  0.00  0.00    +0.000 A 
ATOM     10  C   UNL     1       3.176   2.935  17.943  0.00  0.00    +0.000 A 
ENDROOT
BRANCH   1  12
ATOM     11  C   UNL     1       1.044   3.163  20.349  0.00  0.00    +0.000 C 
ATOM     12  O   UNL     1       1.019   3.226  18.921  0.00  0.00    +0.000 OA
ENDBRANCH   1  12
BRANCH   4  13
ATOM     13  C   UNL     1       2.681   8.205  18.022  0.00  0.00    +0.000 C 
ATOM     14  O   UNL     1       2.128   8.220  19.109  0.00  0.00    +0.000 OA
BRANCH  13  15
ATOM     15  O   UNL     1       2.376   9.072  17.037  0.00  0.00    +0.000 OA
ATOM     16  H   UNL     1       1.624   8.820  16.468  0.00  0.00    +0.000 HD
ENDBRANCH  13  15
ENDBRANCH   4  13
BRANCH   7  17
ATOM     17  C   UNL     1       6.866   4.777  16.226  0.00  0.00    +0.000 C 
ATOM     18  O   UNL     1       7.829   4.407  16.890  0.00  0.00    +0.000 OA
BRANCH  17  19
ATOM     19  C   UNL     1       6.856   4.532  14.751  0.00  0.00    +0.000 A 
ATOM     20  C   UNL     1       5.944   3.644  14.163  0.00  0.00    +0.000 A 
ATOM     21  C   UNL     1       5.864   3.536  12.775  0.00  0.00    +0.000 A 
ATOM     22  C   UNL     1       6.715   4.292  11.970  0.00  0.00    +0.000 A 
ATOM     23  C   UNL     1       7.668   5.130  12.552  0.00  0.00    +0.000 A 
ATOM     24  C   UNL     1       7.747   5.245  13.942  0.00  0.00    +0.000 A 
ENDBRANCH  17  19
ENDBRANCH   7  17
BRANCH  10  25
ATOM     25  O   UNL     1       3.201   1.569  18.022  0.00  0.00    +0.000 OA
ATOM     26  C   UNL     1       4.048   1.012  19.023  0.00  0.00    +0.000 C 
ENDBRANCH  10  25
TORSDOF 6
ENDMDL
MODEL 4
REMARK VINA RESULT:      -7.4      0.927      1.124
REMARK  Name = 
REMARK  8 active torsions:
REMARK  status: ('A' for Active; 'I' for Inactive)
REMARK    1  A    between atoms: C_1  and  O_2
REMARK    2  A    between atoms: O_2  and  C_3
REMARK    3  A    between atoms: C_6  and  C_7
REMARK    4  A    between atoms: C_7  and  O_9
REMARK    5  A    between atoms: C_12  and  C_13
REMARK    6  A    between atoms: C_13  and  C_15
REMARK    7  A    between atoms: C_23  and  O_24
REMARK    8  A    between atoms: O_24  and  C_25
REMARK                            x       y       z     vdW  Elec       q    Type
REMARK                         _______ _______ _______ _____ _____    ______ ____
ROOT
ATOM      1  C   UNL     1       3.090   3.920  19.674  0.00  0.00    +0.000 A 
ATOM      2  C   UNL     1       2.901   5.197  19.131  0.00  0.00    +0.000 A 
ATOM      3  C   UNL     1       3.827   5.804  18.250  0.00  0.00    +0.000 A 
ATOM      4  C   UNL     1       3.704   7.137  17.779  0.00  0.00    +0.000 A 
ATOM      5  C   UNL     1       4.644   7.624  16.889  0.00  0.00    +0.000 A 
ATOM      6  N   UNL     1       5.677   6.901  16.429  0.00  0.00    +0.000 NA
ATOM      7  C   UNL     1       5.791   5.616  16.853  0.00  0.00    +0.000 A 
ATOM      8  C   UNL     1       4.926   5.021  17.798  0.00  0.00    +0.000 A 
ATOM      9  C   UNL     1       5.057   3.696  18.299  0.00  0.00    +0.000 A 
ATOM     10  C   UNL     1       4.153   3.143  19.216  0.00  0.00    +0.000 A 
ENDROOT
BRANCH   1  12
ATOM     11  C   UNL     1       0.892   3.814  20.513  0.00  0.00    +0.000 C 
ATOM     12  O   UNL     1       2.259   3.418  20.642  0.00  0.00    +0.000 OA
ENDBRANCH   1  12
BRANCH   4  13
ATOM     13  C   UNL     1       2.631   8.094  18.121  0.00  0.00    +0.000 C 
ATOM     14  O   UNL     1       2.075   8.072  19.206  0.00  0.00    +0.000 OA
BRANCH  13  15
ATOM     15  O   UNL     1       2.259   8.924  17.127  0.00  0.00    +0.000 OA
ATOM     16  H   UNL     1       2.268   9.875  17.343  0.00  0.00    +0.000 HD
ENDBRANCH  13  15
ENDBRANCH   4  13
BRANCH   7  17
ATOM     17  C   UNL     1       6.907   4.878  16.156  0.00  0.00    +0.000 C 
ATOM     18  O   UNL     1       7.912   4.499  16.749  0.00  0.00    +0.000 OA
BRANCH  17  19
ATOM     19  C   UNL     1       6.802   4.659  14.681  0.00  0.00    +0.000 A 
ATOM     20  C   UNL     1       7.691   5.270  13.784  0.00  0.00    +0.000 A 
ATOM     21  C   UNL     1       7.658   4.943  12.429  0.00  0.00    +0.000 A 
ATOM     22  C   UNL     1       6.718   4.029  11.959  0.00  0.00    +0.000 A 
ATOM     23  C   UNL     1       5.788   3.466  12.836  0.00  0.00    +0.000 A 
ATOM     24  C   UNL     1       5.822   3.786  14.195  0.00  0.00    +0.000 A 
ENDBRANCH  17  19
ENDBRANCH   7  17
BRANCH  10  25
ATOM     25  O   UNL     1       4.471   1.875  19.620  0.00  0.00    +0.000 OA
ATOM     26  C   UNL     1       4.001   0.815  18.795  0.00  0.00    +0.000 C 
ENDBRANCH  10  25
TORSDOF 6
ENDMDL
MODEL 5
REMARK VINA RESULT:      -6.7      2.563      6.463
REMARK  Name = 
REMARK  8 active torsions:
REMARK  status: ('A' for Active; 'I' for Inactive)
REMARK    1  A    between atoms: C_1  and  O_2
REMARK    2  A    between atoms: O_2  and  C_3
REMARK    3  A    between atoms: C_6  and  C_7
REMARK    4  A    between atoms: C_7  and  O_9
REMARK    5  A    between atoms: C_12  and  C_13
REMARK    6  A    between atoms: C_13  and  C_15
REMARK    7  A    between atoms: C_23  and  O_24
REMARK    8  A    between atoms: O_24  and  C_25
REMARK                            x       y       z     vdW  Elec       q    Type
REMARK                         _______ _______ _______ _____ _____    ______ ____
ROOT
ATOM      1  C   UNL     1       7.030   4.932  14.177  0.00  0.00    +0.000 A 
ATOM      2  C   UNL     1       7.298   5.627  15.364  0.00  0.00    +0.000 A 
ATOM      3  C   UNL     1       6.556   5.434  16.554  0.00  0.00    +0.000 A 
ATOM      4  C   UNL     1       6.743   6.207  17.729  0.00  0.00    +0.000 A 
ATOM      5  C   UNL     1       5.992   5.913  18.853  0.00  0.00    +0.000 A 
ATOM      6  N   UNL     1       5.089   4.921  18.905  0.00  0.00    +0.000 NA
ATOM      7  C   UNL     1       4.920   4.159  17.794  0.00  0.00    +0.000 A 
ATOM      8  C   UNL     1       5.588   4.391  16.572  0.00  0.00    +0.000 A 
ATOM      9  C   UNL     1       5.387   3.642  15.379  0.00  0.00    +0.000 A 
ATOM     10  C   UNL     1       6.099   3.895  14.199  0.00  0.00    +0.000 A 
ENDROOT
BRANCH   1  12
ATOM     11  C   UNL     1       8.892   5.952  13.158  0.00  0.00    +0.000 C 
ATOM     12  O   UNL     1       7.659   5.246  13.001  0.00  0.00    +0.000 OA
ENDBRANCH   1  12
BRANCH   4  13
ATOM     13  C   UNL     1       7.705   7.315  17.908  0.00  0.00    +0.000 C 
ATOM     14  O   UNL     1       7.769   8.242  17.117  0.00  0.00    +0.000 OA
BRANCH  13  15
ATOM     15  O   UNL     1       8.551   7.183  18.947  0.00  0.00    +0.000 OA
ATOM     16  H   UNL     1       8.899   6.285  19.100  0.00  0.00    +0.000 HD
ENDBRANCH  13  15
ENDBRANCH   4  13
BRANCH   7  17
ATOM     17  C   UNL     1       3.983   2.999  18.031  0.00  0.00    +0.000 C 
ATOM     18  O   UNL     1       3.953   2.021  17.291  0.00  0.00    +0.000 OA
BRANCH  17  19
ATOM     19  C   UNL     1       3.024   3.083  19.174  0.00  0.00    +0.000 A 
ATOM     20  C   UNL     1       1.722   3.574  19.003  0.00  0.00    +0.000 A 
ATOM     21  C   UNL     1       0.804   3.515  20.051  0.00  0.00    +0.000 A 
ATOM     22  C   UNL     1       1.192   2.993  21.283  0.00  0.00    +0.000 A 
ATOM     23  C   UNL     1       2.505   2.562  21.479  0.00  0.00    +0.000 A 
ATOM     24  C   UNL     1       3.426   2.614  20.430  0.00  0.00    +0.000 A 
ENDBRANCH  17  19
ENDBRANCH   7  17
BRANCH  10  25
ATOM     25  O   UNL     1       5.732   3.105  13.144  0.00  0.00    +0.000 OA
ATOM     26  C   UNL     1       4.754   3.646  12.263  0.00  0.00    +0.000 C 
ENDBRANCH  10  25
TORSDOF 6
ENDMDL
MODEL 6
REMARK VINA RESULT:      -6.7      2.370      7.300
REMARK  Name = 
REMARK  8 active torsions:
REMARK  status: ('A' for Active; 'I' for Inactive)
REMARK    1  A    between atoms: C_1  and  O_2
REMARK    2  A    between atoms: O_2  and  C_3
REMARK    3  A    between atoms: C_6  and  C_7
REMARK    4  A    between atoms: C_7  and  O_9
REMARK    5  A    between atoms: C_12  and  C_13
REMARK    6  A    between atoms: C_13  and  C_15
REMARK    7  A    between atoms: C_23  and  O_24
REMARK    8  A    between atoms: O_24  and  C_25
REMARK                            x       y       z     vdW  Elec       q    Type
REMARK                         _______ _______ _______ _____ _____    ______ ____
ROOT
ATOM      1  C   UNL     1       6.138   5.143  16.852  0.00  0.00    +0.000 A 
ATOM      2  C   UNL     1       5.084   4.306  17.242  0.00  0.00    +0.000 A 
ATOM      3  C   UNL     1       3.895   4.793  17.836  0.00  0.00    +0.000 A 
ATOM      4  C   UNL     1       2.867   3.952  18.335  0.00  0.00    +0.000 A 
ATOM      5  C   UNL     1       1.726   4.527  18.865  0.00  0.00    +0.000 A 
ATOM      6  N   UNL     1       1.523   5.853  18.928  0.00  0.00    +0.000 NA
ATOM      7  C   UNL     1       2.489   6.667  18.430  0.00  0.00    +0.000 A 
ATOM      8  C   UNL     1       3.718   6.202  17.913  0.00  0.00    +0.000 A 
ATOM      9  C   UNL     1       4.767   7.037  17.436  0.00  0.00    +0.000 A 
ATOM     10  C   UNL     1       5.958   6.524  16.905  0.00  0.00    +0.000 A 
ENDROOT
BRANCH   1  12
ATOM     11  C   UNL     1       7.445   4.491  15.005  0.00  0.00    +0.000 C 
ATOM     12  O   UNL     1       7.337   4.637  16.422  0.00  0.00    +0.000 OA
ENDBRANCH   1  12
BRANCH   4  13
ATOM     13  C   UNL     1       2.861   2.474  18.331  0.00  0.00    +0.000 C 
ATOM     14  O   UNL     1       3.539   1.828  19.113  0.00  0.00    +0.000 OA
BRANCH  13  15
ATOM     15  O   UNL     1       2.128   1.902  17.356  0.00  0.00    +0.000 OA
ATOM     16  H   UNL     1       1.721   1.043  17.579  0.00  0.00    +0.000 HD
ENDBRANCH  13  15
ENDBRANCH   4  13
BRANCH   7  17
ATOM     17  C   UNL     1       2.075   8.119  18.436  0.00  0.00    +0.000 C 
ATOM     18  O   UNL     1       2.325   8.874  17.502  0.00  0.00    +0.000 OA
BRANCH  17  19
ATOM     19  C   UNL     1       1.392   8.658  19.651  0.00  0.00    +0.000 A 
ATOM     20  C   UNL     1       1.696   8.182  20.935  0.00  0.00    +0.000 A 
ATOM     21  C   UNL     1       1.146   8.795  22.060  0.00  0.00    +0.000 A 
ATOM     22  C   UNL     1       0.266   9.864  21.907  0.00  0.00    +0.000 A 
ATOM     23  C   UNL     1      -0.090  10.301  20.630  0.00  0.00    +0.000 A 
ATOM     24  C   UNL     1       0.463   9.694  19.500  0.00  0.00    +0.000 A 
ENDBRANCH  17  19
ENDBRANCH   7  17
BRANCH  10  25
ATOM     25  O   UNL     1       6.868   7.480  16.546  0.00  0.00    +0.000 OA
ATOM     26  C   UNL     1       7.690   7.989  17.592  0.00  0.00    +0.000 C 
ENDBRANCH  10  25
TORSDOF 6
ENDMDL
MODEL 7
REMARK VINA RESULT:      -6.7      2.519      7.205
REMARK  Name = 
REMARK  8 active torsions:
REMARK  status: ('A' for Active; 'I' for Inactive)
REMARK    1  A    between atoms: C_1  and  O_2
REMARK    2  A    between atoms: O_2  and  C_3
REMARK    3  A    between atoms: C_6  and  C_7
REMARK    4  A    between atoms: C_7  and  O_9
REMARK    5  A    between atoms: C_12  and  C_13
REMARK    6  A    between atoms: C_13  and  C_15
REMARK    7  A    between atoms: C_23  and  O_24
REMARK    8  A    between atoms: O_24  and  C_25
REMARK                            x       y       z     vdW  Elec       q    Type
REMARK                         _______ _______ _______ _____ _____    ______ ____
ROOT
ATOM      1  C   UNL     1       6.349   5.164  17.105  0.00  0.00    +0.000 A 
ATOM      2  C   UNL     1       5.292   4.317  17.465  0.00  0.00    +0.000 A 
ATOM      3  C   UNL     1       4.045   4.798  17.932  0.00  0.00    +0.000 A 
ATOM      4  C   UNL     1       3.006   3.954  18.403  0.00  0.00    +0.000 A 
ATOM      5  C   UNL     1       1.810   4.521  18.803  0.00  0.00    +0.000 A 
ATOM      6  N   UNL     1       1.563   5.840  18.765  0.00  0.00    +0.000 NA
ATOM      7  C   UNL     1       2.542   6.655  18.292  0.00  0.00    +0.000 A 
ATOM      8  C   UNL     1       3.821   6.202  17.903  0.00  0.00    +0.000 A 
ATOM      9  C   UNL     1       4.880   7.042  17.457  0.00  0.00    +0.000 A 
ATOM     10  C   UNL     1       6.124   6.538  17.054  0.00  0.00    +0.000 A 
ENDROOT
BRANCH   1  12
ATOM     11  C   UNL     1       8.390   4.338  17.941  0.00  0.00    +0.000 C 
ATOM     12  O   UNL     1       7.593   4.674  16.804  0.00  0.00    +0.000 OA
ENDBRANCH   1  12
BRANCH   4  13
ATOM     13  C   UNL     1       3.045   2.479  18.494  0.00  0.00    +0.000 C 
ATOM     14  O   UNL     1       3.734   1.906  19.321  0.00  0.00    +0.000 OA
BRANCH  13  15
ATOM     15  O   UNL     1       2.339   1.824  17.552  0.00  0.00    +0.000 OA
ATOM     16  H   UNL     1       2.644   0.920  17.345  0.00  0.00    +0.000 HD
ENDBRANCH  13  15
ENDBRANCH   4  13
BRANCH   7  17
ATOM     17  C   UNL     1       2.086   8.089  18.173  0.00  0.00    +0.000 C 
ATOM     18  O   UNL     1       2.272   8.751  17.157  0.00  0.00    +0.000 OA
BRANCH  17  19
ATOM     19  C   UNL     1       1.440   8.731  19.358  0.00  0.00    +0.000 A 
ATOM     20  C   UNL     1       0.584   9.833  19.218  0.00  0.00    +0.000 A 
ATOM     21  C   UNL     1      -0.112  10.327  20.321  0.00  0.00    +0.000 A 
ATOM     22  C   UNL     1       0.070   9.744  21.573  0.00  0.00    +0.000 A 
ATOM     23  C   UNL     1       0.971   8.689  21.731  0.00  0.00    +0.000 A 
ATOM     24  C   UNL     1       1.664   8.187  20.627  0.00  0.00    +0.000 A 
ENDBRANCH  17  19
ENDBRANCH   7  17
BRANCH  10  25
ATOM     25  O   UNL     1       7.032   7.501  16.707  0.00  0.00    +0.000 OA
ATOM     26  C   UNL     1       7.803   8.051  17.770  0.00  0.00    +0.000 C 
ENDBRANCH  10  25
TORSDOF 6
ENDMDL
MODEL 8
REMARK VINA RESULT:      -6.6      2.336      6.407
REMARK  Name = 
REMARK  8 active torsions:
REMARK  status: ('A' for Active; 'I' for Inactive)
REMARK    1  A    between atoms: C_1  and  O_2
REMARK    2  A    between atoms: O_2  and  C_3
REMARK    3  A    between atoms: C_6  and  C_7
REMARK    4  A    between atoms: C_7  and  O_9
REMARK    5  A    between atoms: C_12  and  C_13
REMARK    6  A    between atoms: C_13  and  C_15
REMARK    7  A    between atoms: C_23  and  O_24
REMARK    8  A    between atoms: O_24  and  C_25
REMARK                            x       y       z     vdW  Elec       q    Type
REMARK                         _______ _______ _______ _____ _____    ______ ____
ROOT
ATOM      1  C   UNL     1       7.192   4.744  14.178  0.00  0.00    +0.000 A 
ATOM      2  C   UNL     1       7.352   5.485  15.357  0.00  0.00    +0.000 A 
ATOM      3  C   UNL     1       6.366   5.540  16.371  0.00  0.00    +0.000 A 
ATOM      4  C   UNL     1       6.466   6.371  17.517  0.00  0.00    +0.000 A 
ATOM      5  C   UNL     1       5.465   6.324  18.470  0.00  0.00    +0.000 A 
ATOM      6  N   UNL     1       4.392   5.521  18.382  0.00  0.00    +0.000 NA
ATOM      7  C   UNL     1       4.298   4.704  17.301  0.00  0.00    +0.000 A 
ATOM      8  C   UNL     1       5.228   4.697  16.238  0.00  0.00    +0.000 A 
ATOM      9  C   UNL     1       5.123   3.891  15.071  0.00  0.00    +0.000 A 
ATOM     10  C   UNL     1       6.089   3.901  14.057  0.00  0.00    +0.000 A 
ENDROOT
BRANCH   1  12
ATOM     11  C   UNL     1       7.796   5.845  12.186  0.00  0.00    +0.000 C 
ATOM     12  O   UNL     1       8.091   4.829  13.147  0.00  0.00    +0.000 OA
ENDBRANCH   1  12
BRANCH   4  13
ATOM     13  C   UNL     1       7.572   7.297  17.838  0.00  0.00    +0.000 C 
ATOM     14  O   UNL     1       7.793   8.289  17.163  0.00  0.00    +0.000 OA
BRANCH  13  15
ATOM     15  O   UNL     1       8.360   6.923  18.864  0.00  0.00    +0.000 OA
ATOM     16  H   UNL     1       9.153   6.408  18.624  0.00  0.00    +0.000 HD
ENDBRANCH  13  15
ENDBRANCH   4  13
BRANCH   7  17
ATOM     17  C   UNL     1       3.123   3.761  17.395  0.00  0.00    +0.000 C 
ATOM     18  O   UNL     1       2.558   3.320  16.400  0.00  0.00    +0.000 OA
BRANCH  17  19
ATOM     19  C   UNL     1       2.602   3.406  18.751  0.00  0.00    +0.000 A 
ATOM     20  C   UNL     1       3.394   2.721  19.683  0.00  0.00    +0.000 A 
ATOM     21  C   UNL     1       2.935   2.524  20.985  0.00  0.00    +0.000 A 
ATOM     22  C   UNL     1       1.671   2.981  21.351  0.00  0.00    +0.000 A 
ATOM     23  C   UNL     1       0.852   3.606  20.409  0.00  0.00    +0.000 A 
ATOM     24  C   UNL     1       1.311   3.812  19.106  0.00  0.00    +0.000 A 
ENDBRANCH  17  19
ENDBRANCH   7  17
BRANCH  10  25
ATOM     25  O   UNL     1       5.790   3.097  12.991  0.00  0.00    +0.000 OA
ATOM     26  C   UNL     1       4.791   3.580  12.099  0.00  0.00    +0.000 C 
ENDBRANCH  10  25
TORSDOF 6
ENDMDL
MODEL 9
REMARK VINA RESULT:      -6.6      5.416      8.643
REMARK  Name = 
REMARK  8 active torsions:
REMARK  status: ('A' for Active; 'I' for Inactive)
REMARK    1  A    between atoms: C_1  and  O_2
REMARK    2  A    between atoms: O_2  and  C_3
REMARK    3  A    between atoms: C_6  and  C_7
REMARK    4  A    between atoms: C_7  and  O_9
REMARK    5  A    between atoms: C_12  and  C_13
REMARK    6  A    between atoms: C_13  and  C_15
REMARK    7  A    between atoms: C_23  and  O_24
REMARK    8  A    between atoms: O_24  and  C_25
REMARK                            x       y       z     vdW  Elec       q    Type
REMARK                         _______ _______ _______ _____ _____    ______ ____
ROOT
ATOM      1  C   UNL     1      -3.530  11.040  17.725  0.00  0.00    +0.000 A 
ATOM      2  C   UNL     1      -3.039  11.738  18.836  0.00  0.00    +0.000 A 
ATOM      3  C   UNL     1      -1.746  11.523  19.371  0.00  0.00    +0.000 A 
ATOM      4  C   UNL     1      -1.276  12.140  20.559  0.00  0.00    +0.000 A 
ATOM      5  C   UNL     1       0.019  11.892  20.977  0.00  0.00    +0.000 A 
ATOM      6  N   UNL     1       0.875  11.099  20.314  0.00  0.00    +0.000 NA
ATOM      7  C   UNL     1       0.444  10.522  19.162  0.00  0.00    +0.000 A 
ATOM      8  C   UNL     1      -0.869  10.657  18.660  0.00  0.00    +0.000 A 
ATOM      9  C   UNL     1      -1.360  10.020  17.487  0.00  0.00    +0.000 A 
ATOM     10  C   UNL     1      -2.665  10.210  17.014  0.00  0.00    +0.000 A 
ENDROOT
BRANCH   1  12
ATOM     11  C   UNL     1      -5.792  11.072  18.380  0.00  0.00    +0.000 C 
ATOM     12  O   UNL     1      -4.835  11.155  17.322  0.00  0.00    +0.000 OA
ENDBRANCH   1  12
BRANCH   4  13
ATOM     13  C   UNL     1      -2.029  13.075  21.421  0.00  0.00    +0.000 C 
ATOM     14  O   UNL     1      -1.887  14.283  21.333  0.00  0.00    +0.000 OA
BRANCH  13  15
ATOM     15  O   UNL     1      -2.808  12.499  22.356  0.00  0.00    +0.000 OA
ATOM     16  H   UNL     1      -3.040  11.564  22.199  0.00  0.00    +0.000 HD
ENDBRANCH  13  15
ENDBRANCH   4  13
BRANCH   7  17
ATOM     17  C   UNL     1       1.544   9.773  18.449  0.00  0.00    +0.000 C 
ATOM     18  O   UNL     1       2.133  10.243  17.481  0.00  0.00    +0.000 OA
BRANCH  17  19
ATOM     19  C   UNL     1       1.876   8.391  18.909  0.00  0.00    +0.000 A 
ATOM     20  C   UNL     1       1.629   7.977  20.226  0.00  0.00    +0.000 A 
ATOM     21  C   UNL     1       1.820   6.645  20.592  0.00  0.00    +0.000 A 
ATOM     22  C   UNL     1       2.289   5.729  19.654  0.00  0.00    +0.000 A 
ATOM     23  C   UNL     1       2.599   6.148  18.359  0.00  0.00    +0.000 A 
ATOM     24  C   UNL     1       2.402   7.480  17.986  0.00  0.00    +0.000 A 
ENDBRANCH  17  19
ENDBRANCH   7  17
BRANCH  10  25
ATOM     25  O   UNL     1      -2.970   9.475  15.901  0.00  0.00    +0.000 OA
ATOM     26  C   UNL     1      -2.980  10.180  14.665  0.00  0.00    +0.000 C 
ENDBRANCH  10  25
TORSDOF 6
ENDMDL
