MODEL 1
REMARK VINA RESULT:      -8.8      0.000      0.000
REMARK  Name = 
REMARK  6 active torsions:
REMARK  status: ('A' for Active; 'I' for Inactive)
REMARK    1  A    between atoms: C_1  and  C_2
REMARK    2  A    between atoms: C_7  and  C_8
REMARK    3  A    between atoms: C_10  and  C_11
REMARK    4  A    between atoms: N_16  and  C_17
REMARK    5  A    between atoms: C_20  and  S_21
REMARK    6  A    between atoms: S_21  and  C_22
REMARK                            x       y       z     vdW  Elec       q    Type
REMARK                         _______ _______ _______ _____ _____    ______ ____
ROOT
ATOM      1  C   UNL     1       3.828   5.036  18.927  0.00  0.00    +0.000 A 
ATOM      2  N   UNL     1       4.968   4.477  18.567  0.00  0.00    +0.000 NA
ATOM      3  C   UNL     1       5.662   5.381  17.798  0.00  0.00    +0.000 A 
ATOM      4  C   UNL     1       4.897   6.520  17.660  0.00  0.00    +0.000 A 
ATOM      5  N   UNL     1       3.760   6.363  18.441  0.00  0.00    +0.000 N 
ENDROOT
BRANCH   1  12
ATOM      6  C   UNL     1       1.280   3.965  17.722  0.00  0.00    +0.000 C 
ATOM      7  C   UNL     1       1.685   3.711  19.152  0.00  0.00    +0.000 A 
ATOM      8  C   UNL     1       0.890   2.868  19.935  0.00  0.00    +0.000 A 
ATOM      9  C   UNL     1       1.217   2.681  21.269  0.00  0.00    +0.000 A 
ATOM     10  N   UNL     1       2.225   3.327  21.883  0.00  0.00    +0.000 NA
ATOM     11  C   UNL     1       2.970   4.155  21.111  0.00  0.00    +0.000 A 
ATOM     12  C   UNL     1       2.825   4.307  19.731  0.00  0.00    +0.000 A 
ENDBRANCH   1  12
BRANCH   5  13
ATOM     13  C   UNL     1       2.770   7.388  18.648  0.00  0.00    +0.000 A 
ATOM     14  C   UNL     1       2.134   7.532  19.898  0.00  0.00    +0.000 A 
ATOM     15  C   UNL     1       1.259   8.603  20.141  0.00  0.00    +0.000 A 
ATOM     16  C   UNL     1       1.034   9.551  19.145  0.00  0.00    +0.000 A 
ATOM     17  C   UNL     1       1.594   9.384  17.882  0.00  0.00    +0.000 A 
ATOM     18  C   UNL     1       2.414   8.281  17.629  0.00  0.00    +0.000 A 
BRANCH  16  19
ATOM     19  S   UNL     1      -0.030  10.944  19.429  0.00  0.00    +0.000 S 
ATOM     20  C   UNL     1      -1.313  10.772  18.213  0.00  0.00    +0.000 C 
ATOM     21  O   UNL     1      -0.618  10.760  20.741  0.00  0.00    +0.000 OA
ATOM     22  O   UNL     1       0.725  12.142  19.110  0.00  0.00    +0.000 OA
ENDBRANCH  16  19
ENDBRANCH   5  13
BRANCH   3  23
ATOM     23  C   UNL     1       7.029   5.093  17.246  0.00  0.00    +0.000 C 
ATOM     24  F   UNL     1       7.892   4.612  18.177  0.00  0.00    +0.000 F 
ATOM     25  F   UNL     1       6.982   4.179  16.240  0.00  0.00    +0.000 F 
ATOM     26  F   UNL     1       7.602   6.212  16.725  0.00  0.00    +0.000 F 
ENDBRANCH   3  23
TORSDOF 4
ENDMDL
MODEL 2
REMARK VINA RESULT:      -8.7      0.695      1.178
REMARK  Name = 
REMARK  6 active torsions:
REMARK  status: ('A' for Active; 'I' for Inactive)
REMARK    1  A    between atoms: C_1  and  C_2
REMARK    2  A    between atoms: C_7  and  C_8
REMARK    3  A    between atoms: C_10  and  C_11
REMARK    4  A    between atoms: N_16  and  C_17
REMARK    5  A    between atoms: C_20  and  S_21
REMARK    6  A    between atoms: S_21  and  C_22
REMARK                            x       y       z     vdW  Elec       q    Type
REMARK                         _______ _______ _______ _____ _____    ______ ____
ROOT
ATOM      1  C   UNL     1       3.819   5.048  18.917  0.00  0.00    +0.000 A 
ATOM      2  N   UNL     1       4.956   4.489  18.548  0.00  0.00    +0.000 NA
ATOM      3  C   UNL     1       5.645   5.395  17.777  0.00  0.00    +0.000 A 
ATOM      4  C   UNL     1       4.881   6.534  17.647  0.00  0.00    +0.000 A 
ATOM      5  N   UNL     1       3.749   6.375  18.435  0.00  0.00    +0.000 N 
ENDROOT
BRANCH   1  12
ATOM      6  C   UNL     1       1.272   3.961  17.721  0.00  0.00    +0.000 C 
ATOM      7  C   UNL     1       1.682   3.713  19.151  0.00  0.00    +0.000 A 
ATOM      8  C   UNL     1       0.893   2.870  19.939  0.00  0.00    +0.000 A 
ATOM      9  C   UNL     1       1.224   2.689  21.273  0.00  0.00    +0.000 A 
ATOM     10  N   UNL     1       2.230   3.341  21.882  0.00  0.00    +0.000 NA
ATOM     11  C   UNL     1       2.970   4.170  21.106  0.00  0.00    +0.000 A 
ATOM     12  C   UNL     1       2.821   4.317  19.725  0.00  0.00    +0.000 A 
ENDBRANCH   1  12
BRANCH   5  13
ATOM     13  C   UNL     1       2.761   7.401  18.653  0.00  0.00    +0.000 A 
ATOM     14  C   UNL     1       2.132   7.541  19.906  0.00  0.00    +0.000 A 
ATOM     15  C   UNL     1       1.260   8.611  20.159  0.00  0.00    +0.000 A 
ATOM     16  C   UNL     1       1.030   9.564  19.168  0.00  0.00    +0.000 A 
ATOM     17  C   UNL     1       1.583   9.401  17.902  0.00  0.00    +0.000 A 
ATOM     18  C   UNL     1       2.400   8.298  17.640  0.00  0.00    +0.000 A 
BRANCH  16  19
ATOM     19  S   UNL     1      -0.031  10.956  19.464  0.00  0.00    +0.000 S 
ATOM     20  C   UNL     1      -0.428  10.848  21.191  0.00  0.00    +0.000 C 
ATOM     21  O   UNL     1       0.772  12.146  19.254  0.00  0.00    +0.000 OA
ATOM     22  O   UNL     1      -1.254  10.740  18.714  0.00  0.00    +0.000 OA
ENDBRANCH  16  19
ENDBRANCH   5  13
BRANCH   3  23
ATOM     23  C   UNL     1       7.008   5.107  17.215  0.00  0.00    +0.000 C 
ATOM     24  F   UNL     1       6.993   4.193  16.212  0.00  0.00    +0.000 F 
ATOM     25  F   UNL     1       7.594   6.229  16.718  0.00  0.00    +0.000 F 
ATOM     26  F   UNL     1       7.850   4.623  18.170  0.00  0.00    +0.000 F 
ENDBRANCH   3  23
TORSDOF 4
ENDMDL
MODEL 3
REMARK VINA RESULT:      -8.7      0.721      1.110
REMARK  Name = 
REMARK  6 active torsions:
REMARK  status: ('A' for Active; 'I' for Inactive)
REMARK    1  A    between atoms: C_1  and  C_2
REMARK    2  A    between atoms: C_7  and  C_8
REMARK    3  A    between atoms: C_10  and  C_11
REMARK    4  A    between atoms: N_16  and  C_17
REMARK    5  A    between atoms: C_20  and  S_21
REMARK    6  A    between atoms: S_21  and  C_22
REMARK                            x       y       z     vdW  Elec       q    Type
REMARK                         _______ _______ _______ _____ _____    ______ ____
ROOT
ATOM      1  C   UNL     1       3.813   5.027  18.903  0.00  0.00    +0.000 A 
ATOM      2  N   UNL     1       4.945   4.462  18.527  0.00  0.00    +0.000 NA
ATOM      3  C   UNL     1       5.634   5.364  17.752  0.00  0.00    +0.000 A 
ATOM      4  C   UNL     1       4.875   6.507  17.626  0.00  0.00    +0.000 A 
ATOM      5  N   UNL     1       3.747   6.354  18.421  0.00  0.00    +0.000 N 
ENDROOT
BRANCH   1  12
ATOM      6  C   UNL     1       1.254   3.953  17.723  0.00  0.00    +0.000 C 
ATOM      7  C   UNL     1       1.671   3.703  19.150  0.00  0.00    +0.000 A 
ATOM      8  C   UNL     1       0.882   2.864  19.944  0.00  0.00    +0.000 A 
ATOM      9  C   UNL     1       1.221   2.682  21.275  0.00  0.00    +0.000 A 
ATOM     10  N   UNL     1       2.234   3.329  21.878  0.00  0.00    +0.000 NA
ATOM     11  C   UNL     1       2.973   4.154  21.097  0.00  0.00    +0.000 A 
ATOM     12  C   UNL     1       2.817   4.301  19.718  0.00  0.00    +0.000 A 
ENDBRANCH   1  12
BRANCH   5  13
ATOM     13  C   UNL     1       2.766   7.385  18.644  0.00  0.00    +0.000 A 
ATOM     14  C   UNL     1       2.130   7.515  19.895  0.00  0.00    +0.000 A 
ATOM     15  C   UNL     1       1.265   8.589  20.154  0.00  0.00    +0.000 A 
ATOM     16  C   UNL     1       1.049   9.555  19.173  0.00  0.00    +0.000 A 
ATOM     17  C   UNL     1       1.609   9.404  17.909  0.00  0.00    +0.000 A 
ATOM     18  C   UNL     1       2.418   8.297  17.639  0.00  0.00    +0.000 A 
BRANCH  16  19
ATOM     19  S   UNL     1      -0.003  10.953  19.479  0.00  0.00    +0.000 S 
ATOM     20  C   UNL     1       0.933  12.344  18.896  0.00  0.00    +0.000 C 
ATOM     21  O   UNL     1      -1.165  10.796  18.625  0.00  0.00    +0.000 OA
ATOM     22  O   UNL     1      -0.146  11.085  20.917  0.00  0.00    +0.000 OA
ENDBRANCH  16  19
ENDBRANCH   5  13
BRANCH   3  23
ATOM     23  C   UNL     1       6.993   5.069  17.181  0.00  0.00    +0.000 C 
ATOM     24  F   UNL     1       7.611   6.165  16.673  0.00  0.00    +0.000 F 
ATOM     25  F   UNL     1       7.827   4.543  18.118  0.00  0.00    +0.000 F 
ATOM     26  F   UNL     1       6.922   4.158  16.171  0.00  0.00    +0.000 F 
ENDBRANCH   3  23
TORSDOF 4
ENDMDL
MODEL 4
REMARK VINA RESULT:      -8.6      0.750      1.298
REMARK  Name = 
REMARK  6 active torsions:
REMARK  status: ('A' for Active; 'I' for Inactive)
REMARK    1  A    between atoms: C_1  and  C_2
REMARK    2  A    between atoms: C_7  and  C_8
REMARK    3  A    between atoms: C_10  and  C_11
REMARK    4  A    between atoms: N_16  and  C_17
REMARK    5  A    between atoms: C_20  and  S_21
REMARK    6  A    between atoms: S_21  and  C_22
REMARK                            x       y       z     vdW  Elec       q    Type
REMARK                         _______ _______ _______ _____ _____    ______ ____
ROOT
ATOM      1  C   UNL     1       3.817   4.965  18.812  0.00  0.00    +0.000 A 
ATOM      2  N   UNL     1       4.896   4.343  18.375  0.00  0.00    +0.000 NA
ATOM      3  C   UNL     1       5.604   5.220  17.588  0.00  0.00    +0.000 A 
ATOM      4  C   UNL     1       4.910   6.409  17.518  0.00  0.00    +0.000 A 
ATOM      5  N   UNL     1       3.810   6.305  18.359  0.00  0.00    +0.000 N 
ENDROOT
BRANCH   1  12
ATOM      6  C   UNL     1       1.217   3.928  17.690  0.00  0.00    +0.000 C 
ATOM      7  C   UNL     1       1.647   3.700  19.117  0.00  0.00    +0.000 A 
ATOM      8  C   UNL     1       0.850   2.898  19.939  0.00  0.00    +0.000 A 
ATOM      9  C   UNL     1       1.202   2.737  21.270  0.00  0.00    +0.000 A 
ATOM     10  N   UNL     1       2.238   3.372  21.845  0.00  0.00    +0.000 NA
ATOM     11  C   UNL     1       2.986   4.162  21.036  0.00  0.00    +0.000 A 
ATOM     12  C   UNL     1       2.815   4.282  19.656  0.00  0.00    +0.000 A 
ENDBRANCH   1  12
BRANCH   5  13
ATOM     13  C   UNL     1       2.903   7.387  18.646  0.00  0.00    +0.000 A 
ATOM     14  C   UNL     1       2.595   8.348  17.663  0.00  0.00    +0.000 A 
ATOM     15  C   UNL     1       1.622   9.332  17.899  0.00  0.00    +0.000 A 
ATOM     16  C   UNL     1       0.931   9.346  19.109  0.00  0.00    +0.000 A 
ATOM     17  C   UNL     1       1.274   8.452  20.119  0.00  0.00    +0.000 A 
ATOM     18  C   UNL     1       2.288   7.516  19.898  0.00  0.00    +0.000 A 
BRANCH  16  19
ATOM     19  S   UNL     1      -0.338  10.546  19.427  0.00  0.00    +0.000 S 
ATOM     20  C   UNL     1       0.437  12.107  19.084  0.00  0.00    +0.000 C 
ATOM     21  O   UNL     1      -1.378  10.327  18.440  0.00  0.00    +0.000 OA
ATOM     22  O   UNL     1      -0.635  10.502  20.847  0.00  0.00    +0.000 OA
ENDBRANCH  16  19
ENDBRANCH   5  13
BRANCH   3  23
ATOM     23  C   UNL     1       6.916   4.858  16.952  0.00  0.00    +0.000 C 
ATOM     24  F   UNL     1       7.832   4.393  17.840  0.00  0.00    +0.000 F 
ATOM     25  F   UNL     1       6.765   3.898  16.001  0.00  0.00    +0.000 F 
ATOM     26  F   UNL     1       7.483   5.930  16.333  0.00  0.00    +0.000 F 
ENDBRANCH   3  23
TORSDOF 4
ENDMDL
MODEL 5
REMARK VINA RESULT:      -8.6      0.348      1.256
REMARK  Name = 
REMARK  6 active torsions:
REMARK  status: ('A' for Active; 'I' for Inactive)
REMARK    1  A    between atoms: C_1  and  C_2
REMARK    2  A    between atoms: C_7  and  C_8
REMARK    3  A    between atoms: C_10  and  C_11
REMARK    4  A    between atoms: N_16  and  C_17
REMARK    5  A    between atoms: C_20  and  S_21
REMARK    6  A    between atoms: S_21  and  C_22
REMARK                            x       y       z     vdW  Elec       q    Type
REMARK                         _______ _______ _______ _____ _____    ______ ____
ROOT
ATOM      1  C   UNL     1       3.798   4.944  18.752  0.00  0.00    +0.000 A 
ATOM      2  N   UNL     1       4.853   4.297  18.292  0.00  0.00    +0.000 NA
ATOM      3  C   UNL     1       5.558   5.154  17.481  0.00  0.00    +0.000 A 
ATOM      4  C   UNL     1       4.887   6.357  17.421  0.00  0.00    +0.000 A 
ATOM      5  N   UNL     1       3.807   6.281  18.290  0.00  0.00    +0.000 N 
ENDROOT
BRANCH   1  12
ATOM      6  C   UNL     1       1.154   3.945  17.700  0.00  0.00    +0.000 C 
ATOM      7  C   UNL     1       1.613   3.722  19.118  0.00  0.00    +0.000 A 
ATOM      8  C   UNL     1       0.821   2.942  19.966  0.00  0.00    +0.000 A 
ATOM      9  C   UNL     1       1.201   2.787  21.290  0.00  0.00    +0.000 A 
ATOM     10  N   UNL     1       2.262   3.408  21.835  0.00  0.00    +0.000 NA
ATOM     11  C   UNL     1       3.005   4.176  21.002  0.00  0.00    +0.000 A 
ATOM     12  C   UNL     1       2.804   4.288  19.624  0.00  0.00    +0.000 A 
ENDBRANCH   1  12
BRANCH   5  13
ATOM     13  C   UNL     1       2.930   7.383  18.592  0.00  0.00    +0.000 A 
ATOM     14  C   UNL     1       2.672   8.383  17.633  0.00  0.00    +0.000 A 
ATOM     15  C   UNL     1       1.727   9.390  17.879  0.00  0.00    +0.000 A 
ATOM     16  C   UNL     1       1.014   9.391  19.077  0.00  0.00    +0.000 A 
ATOM     17  C   UNL     1       1.308   8.457  20.065  0.00  0.00    +0.000 A 
ATOM     18  C   UNL     1       2.295   7.496  19.836  0.00  0.00    +0.000 A 
BRANCH  16  19
ATOM     19  S   UNL     1      -0.222  10.623  19.406  0.00  0.00    +0.000 S 
ATOM     20  C   UNL     1      -1.534  10.245  18.272  0.00  0.00    +0.000 C 
ATOM     21  O   UNL     1      -0.701  10.384  20.754  0.00  0.00    +0.000 OA
ATOM     22  O   UNL     1       0.333  11.910  19.029  0.00  0.00    +0.000 OA
ENDBRANCH  16  19
ENDBRANCH   5  13
BRANCH   3  23
ATOM     23  C   UNL     1       6.847   4.761  16.816  0.00  0.00    +0.000 C 
ATOM     24  F   UNL     1       7.447   5.787  16.161  0.00  0.00    +0.000 F 
ATOM     25  F   UNL     1       7.749   4.282  17.713  0.00  0.00    +0.000 F 
ATOM     26  F   UNL     1       6.653   3.774  15.898  0.00  0.00    +0.000 F 
ENDBRANCH   3  23
TORSDOF 4
ENDMDL
MODEL 6
REMARK VINA RESULT:      -8.3      1.167      1.632
REMARK  Name = 
REMARK  6 active torsions:
REMARK  status: ('A' for Active; 'I' for Inactive)
REMARK    1  A    between atoms: C_1  and  C_2
REMARK    2  A    between atoms: C_7  and  C_8
REMARK    3  A    between atoms: C_10  and  C_11
REMARK    4  A    between atoms: N_16  and  C_17
REMARK    5  A    between atoms: C_20  and  S_21
REMARK    6  A    between atoms: S_21  and  C_22
REMARK                            x       y       z     vdW  Elec       q    Type
REMARK                         _______ _______ _______ _____ _____    ______ ____
ROOT
ATOM      1  C   UNL     1       3.795   4.672  18.121  0.00  0.00    +0.000 A 
ATOM      2  N   UNL     1       4.736   4.019  17.464  0.00  0.00    +0.000 NA
ATOM      3  C   UNL     1       5.358   4.906  16.618  0.00  0.00    +0.000 A 
ATOM      4  C   UNL     1       4.749   6.136  16.742  0.00  0.00    +0.000 A 
ATOM      5  N   UNL     1       3.805   6.039  17.757  0.00  0.00    +0.000 N 
ENDROOT
BRANCH   1  12
ATOM      6  C   UNL     1       0.919   4.032  17.476  0.00  0.00    +0.000 C 
ATOM      7  C   UNL     1       1.595   3.593  18.751  0.00  0.00    +0.000 A 
ATOM      8  C   UNL     1       0.888   2.778  19.640  0.00  0.00    +0.000 A 
ATOM      9  C   UNL     1       1.476   2.425  20.844  0.00  0.00    +0.000 A 
ATOM     10  N   UNL     1       2.674   2.884  21.247  0.00  0.00    +0.000 NA
ATOM     11  C   UNL     1       3.334   3.690  20.380  0.00  0.00    +0.000 A 
ATOM     12  C   UNL     1       2.907   3.992  19.085  0.00  0.00    +0.000 A 
ENDBRANCH   1  12
BRANCH   5  13
ATOM     13  C   UNL     1       3.040   7.149  18.263  0.00  0.00    +0.000 A 
ATOM     14  C   UNL     1       2.748   8.256  17.441  0.00  0.00    +0.000 A 
ATOM     15  C   UNL     1       1.903   9.283  17.891  0.00  0.00    +0.000 A 
ATOM     16  C   UNL     1       1.324   9.197  19.156  0.00  0.00    +0.000 A 
ATOM     17  C   UNL     1       1.660   8.150  20.008  0.00  0.00    +0.000 A 
ATOM     18  C   UNL     1       2.552   7.165  19.576  0.00  0.00    +0.000 A 
BRANCH  16  19
ATOM     19  S   UNL     1       0.215  10.454  19.743  0.00  0.00    +0.000 S 
ATOM     20  C   UNL     1      -0.217   9.927  21.382  0.00  0.00    +0.000 C 
ATOM     21  O   UNL     1       0.986  11.678  19.845  0.00  0.00    +0.000 OA
ATOM     22  O   UNL     1      -0.983  10.393  18.927  0.00  0.00    +0.000 OA
ENDBRANCH  16  19
ENDBRANCH   5  13
BRANCH   3  23
ATOM     23  C   UNL     1       6.513   4.512  15.740  0.00  0.00    +0.000 C 
ATOM     24  F   UNL     1       7.671   4.335  16.425  0.00  0.00    +0.000 F 
ATOM     25  F   UNL     1       6.265   3.352  15.076  0.00  0.00    +0.000 F 
ATOM     26  F   UNL     1       6.761   5.456  14.791  0.00  0.00    +0.000 F 
ENDBRANCH   3  23
TORSDOF 4
ENDMDL
MODEL 7
REMARK VINA RESULT:      -8.2      1.464      2.008
REMARK  Name = 
REMARK  6 active torsions:
REMARK  status: ('A' for Active; 'I' for Inactive)
REMARK    1  A    between atoms: C_1  and  C_2
REMARK    2  A    between atoms: C_7  and  C_8
REMARK    3  A    between atoms: C_10  and  C_11
REMARK    4  A    between atoms: N_16  and  C_17
REMARK    5  A    between atoms: C_20  and  S_21
REMARK    6  A    between atoms: S_21  and  C_22
REMARK                            x       y       z     vdW  Elec       q    Type
REMARK                         _______ _______ _______ _____ _____    ______ ____
ROOT
ATOM      1  C   UNL     1       3.801   4.859  17.830  0.00  0.00    +0.000 A 
ATOM      2  N   UNL     1       4.923   4.443  17.273  0.00  0.00    +0.000 NA
ATOM      3  C   UNL     1       5.659   5.549  16.920  0.00  0.00    +0.000 A 
ATOM      4  C   UNL     1       4.940   6.679  17.246  0.00  0.00    +0.000 A 
ATOM      5  N   UNL     1       3.789   6.271  17.906  0.00  0.00    +0.000 N 
ENDROOT
BRANCH   1  12
ATOM      6  C   UNL     1       4.337   2.796  19.964  0.00  0.00    +0.000 C 
ATOM      7  C   UNL     1       2.975   3.018  19.357  0.00  0.00    +0.000 A 
ATOM      8  C   UNL     1       1.888   2.298  19.863  0.00  0.00    +0.000 A 
ATOM      9  C   UNL     1       0.645   2.446  19.268  0.00  0.00    +0.000 A 
ATOM     10  N   UNL     1       0.433   3.196  18.171  0.00  0.00    +0.000 NA
ATOM     11  C   UNL     1       1.503   3.869  17.684  0.00  0.00    +0.000 A 
ATOM     12  C   UNL     1       2.763   3.911  18.285  0.00  0.00    +0.000 A 
ENDBRANCH   1  12
BRANCH   5  13
ATOM     13  C   UNL     1       2.836   7.169  18.507  0.00  0.00    +0.000 A 
ATOM     14  C   UNL     1       2.401   6.975  19.833  0.00  0.00    +0.000 A 
ATOM     15  C   UNL     1       1.567   7.914  20.461  0.00  0.00    +0.000 A 
ATOM     16  C   UNL     1       1.184   9.065  19.776  0.00  0.00    +0.000 A 
ATOM     17  C   UNL     1       1.543   9.237  18.443  0.00  0.00    +0.000 A 
ATOM     18  C   UNL     1       2.320   8.266  17.806  0.00  0.00    +0.000 A 
BRANCH  16  19
ATOM     19  S   UNL     1       0.167  10.297  20.552  0.00  0.00    +0.000 S 
ATOM     20  C   UNL     1      -0.299   9.570  22.103  0.00  0.00    +0.000 C 
ATOM     21  O   UNL     1       1.023  11.436  20.822  0.00  0.00    +0.000 OA
ATOM     22  O   UNL     1      -1.034  10.440  19.751  0.00  0.00    +0.000 OA
ENDBRANCH  16  19
ENDBRANCH   5  13
BRANCH   3  23
ATOM     23  C   UNL     1       7.020   5.448  16.292  0.00  0.00    +0.000 C 
ATOM     24  F   UNL     1       7.799   6.535  16.524  0.00  0.00    +0.000 F 
ATOM     25  F   UNL     1       7.705   4.366  16.750  0.00  0.00    +0.000 F 
ATOM     26  F   UNL     1       6.937   5.310  14.940  0.00  0.00    +0.000 F 
ENDBRANCH   3  23
TORSDOF 4
ENDMDL
MODEL 8
REMARK VINA RESULT:      -8.2      1.348      1.901
REMARK  Name = 
REMARK  6 active torsions:
REMARK  status: ('A' for Active; 'I' for Inactive)
REMARK    1  A    between atoms: C_1  and  C_2
REMARK    2  A    between atoms: C_7  and  C_8
REMARK    3  A    between atoms: C_10  and  C_11
REMARK    4  A    between atoms: N_16  and  C_17
REMARK    5  A    between atoms: C_20  and  S_21
REMARK    6  A    between atoms: S_21  and  C_22
REMARK                            x       y       z     vdW  Elec       q    Type
REMARK                         _______ _______ _______ _____ _____    ______ ____
ROOT
ATOM      1  C   UNL     1       3.826   4.850  17.831  0.00  0.00    +0.000 A 
ATOM      2  N   UNL     1       4.954   4.437  17.283  0.00  0.00    +0.000 NA
ATOM      3  C   UNL     1       5.692   5.545  16.941  0.00  0.00    +0.000 A 
ATOM      4  C   UNL     1       4.969   6.673  17.263  0.00  0.00    +0.000 A 
ATOM      5  N   UNL     1       3.812   6.262  17.911  0.00  0.00    +0.000 N 
ENDROOT
BRANCH   1  12
ATOM      6  C   UNL     1       4.359   2.747  19.926  0.00  0.00    +0.000 C 
ATOM      7  C   UNL     1       2.996   2.987  19.328  0.00  0.00    +0.000 A 
ATOM      8  C   UNL     1       1.907   2.264  19.826  0.00  0.00    +0.000 A 
ATOM      9  C   UNL     1       0.663   2.430  19.238  0.00  0.00    +0.000 A 
ATOM     10  N   UNL     1       0.450   3.200  18.156  0.00  0.00    +0.000 NA
ATOM     11  C   UNL     1       1.523   3.875  17.676  0.00  0.00    +0.000 A 
ATOM     12  C   UNL     1       2.784   3.901  18.273  0.00  0.00    +0.000 A 
ENDBRANCH   1  12
BRANCH   5  13
ATOM     13  C   UNL     1       2.852   7.157  18.505  0.00  0.00    +0.000 A 
ATOM     14  C   UNL     1       2.414   6.966  19.830  0.00  0.00    +0.000 A 
ATOM     15  C   UNL     1       1.573   7.903  20.452  0.00  0.00    +0.000 A 
ATOM     16  C   UNL     1       1.187   9.050  19.762  0.00  0.00    +0.000 A 
ATOM     17  C   UNL     1       1.549   9.219  18.429  0.00  0.00    +0.000 A 
ATOM     18  C   UNL     1       2.334   8.250  17.798  0.00  0.00    +0.000 A 
BRANCH  16  19
ATOM     19  S   UNL     1       0.161  10.280  20.529  0.00  0.00    +0.000 S 
ATOM     20  C   UNL     1      -1.061  10.664  19.300  0.00  0.00    +0.000 C 
ATOM     21  O   UNL     1      -0.502   9.634  21.645  0.00  0.00    +0.000 OA
ATOM     22  O   UNL     1       0.975  11.464  20.730  0.00  0.00    +0.000 OA
ENDBRANCH  16  19
ENDBRANCH   5  13
BRANCH   3  23
ATOM     23  C   UNL     1       7.059   5.447  16.326  0.00  0.00    +0.000 C 
ATOM     24  F   UNL     1       7.032   5.284  14.979  0.00  0.00    +0.000 F 
ATOM     25  F   UNL     1       7.802   6.559  16.574  0.00  0.00    +0.000 F 
ATOM     26  F   UNL     1       7.759   4.394  16.831  0.00  0.00    +0.000 F 
ENDBRANCH   3  23
TORSDOF 4
ENDMDL
MODEL 9
REMARK VINA RESULT:      -8.2      1.562      2.296
REMARK  Name = 
REMARK  6 active torsions:
REMARK  status: ('A' for Active; 'I' for Inactive)
REMARK    1  A    between atoms: C_1  and  C_2
REMARK    2  A    between atoms: C_7  and  C_8
REMARK    3  A    between atoms: C_10  and  C_11
REMARK    4  A    between atoms: N_16  and  C_17
REMARK    5  A    between atoms: C_20  and  S_21
REMARK    6  A    between atoms: S_21  and  C_22
REMARK                            x       y       z     vdW  Elec       q    Type
REMARK                         _______ _______ _______ _____ _____    ______ ____
ROOT
ATOM      1  C   UNL     1       3.716   4.425  17.516  0.00  0.00    +0.000 A 
ATOM      2  N   UNL     1       4.660   3.867  16.782  0.00  0.00    +0.000 NA
ATOM      3  C   UNL     1       5.397   4.871  16.200  0.00  0.00    +0.000 A 
ATOM      4  C   UNL     1       4.857   6.084  16.569  0.00  0.00    +0.000 A 
ATOM      5  N   UNL     1       3.837   5.834  17.478  0.00  0.00    +0.000 N 
ENDROOT
BRANCH   1  12
ATOM      6  C   UNL     1       4.438   2.812  19.960  0.00  0.00    +0.000 C 
ATOM      7  C   UNL     1       3.026   2.947  19.450  0.00  0.00    +0.000 A 
ATOM      8  C   UNL     1       1.987   2.371  20.189  0.00  0.00    +0.000 A 
ATOM      9  C   UNL     1       0.694   2.432  19.694  0.00  0.00    +0.000 A 
ATOM     10  N   UNL     1       0.383   2.956  18.494  0.00  0.00    +0.000 NA
ATOM     11  C   UNL     1       1.407   3.489  17.785  0.00  0.00    +0.000 A 
ATOM     12  C   UNL     1       2.719   3.616  18.246  0.00  0.00    +0.000 A 
ENDBRANCH   1  12
BRANCH   5  13
ATOM     13  C   UNL     1       3.108   6.858  18.181  0.00  0.00    +0.000 A 
ATOM     14  C   UNL     1       2.733   8.051  17.531  0.00  0.00    +0.000 A 
ATOM     15  C   UNL     1       1.920   8.996  18.175  0.00  0.00    +0.000 A 
ATOM     16  C   UNL     1       1.454   8.744  19.464  0.00  0.00    +0.000 A 
ATOM     17  C   UNL     1       1.874   7.607  20.148  0.00  0.00    +0.000 A 
ATOM     18  C   UNL     1       2.735   6.702  19.522  0.00  0.00    +0.000 A 
BRANCH  16  19
ATOM     19  S   UNL     1       0.387   9.895  20.295  0.00  0.00    +0.000 S 
ATOM     20  C   UNL     1      -0.819  10.339  19.069  0.00  0.00    +0.000 C 
ATOM     21  O   UNL     1      -0.284   9.158  21.348  0.00  0.00    +0.000 OA
ATOM     22  O   UNL     1       1.171  11.078  20.595  0.00  0.00    +0.000 OA
ENDBRANCH  16  19
ENDBRANCH   5  13
BRANCH   3  23
ATOM     23  C   UNL     1       6.586   4.597  15.323  0.00  0.00    +0.000 C 
ATOM     24  F   UNL     1       6.849   5.600  14.447  0.00  0.00    +0.000 F 
ATOM     25  F   UNL     1       7.716   4.406  16.055  0.00  0.00    +0.000 F 
ATOM     26  F   UNL     1       6.410   3.469  14.582  0.00  0.00    +0.000 F 
ENDBRANCH   3  23
TORSDOF 4
ENDMDL
