MODEL 1
REMARK VINA RESULT:      -6.9      0.000      0.000
REMARK  Name = 
REMARK  2 active torsions:
REMARK  status: ('A' for Active; 'I' for Inactive)
REMARK    1  A    between atoms: S_2  and  C_4
REMARK    2  A    between atoms: S_2  and  N_9
REMARK                            x       y       z     vdW  Elec       q    Type
REMARK                         _______ _______ _______ _____ _____    ______ ____
ROOT
ATOM      1  N   UNL     1       3.437   5.008  18.852  0.00  0.00    +0.000 NA
ATOM      2  C   UNL     1       2.806   4.738  20.194  0.00  0.00    +0.000 C 
ATOM      3  C   UNL     1       1.909   5.965  20.488  0.00  0.00    +0.000 C 
ATOM      4  C   UNL     1       2.641   7.030  19.722  0.00  0.00    +0.000 C 
ATOM      5  C   UNL     1       2.860   6.275  18.406  0.00  0.00    +0.000 C 
ATOM      6  C   UNL     1       3.607   7.329  17.632  0.00  0.00    +0.000 C 
ATOM      7  C   UNL     1       2.671   8.552  17.904  0.00  0.00    +0.000 C 
ATOM      8  N   UNL     1       2.069   8.245  19.210  0.00  0.00    +0.000 N 
ATOM      9  C   UNL     1       1.081   8.960  19.796  0.00  0.00    +0.000 A 
ATOM     10  N   UNL     1       0.533   9.983  19.124  0.00  0.00    +0.000 NA
ATOM     11  C   UNL     1      -0.469  10.653  19.726  0.00  0.00    +0.000 A 
ATOM     12  C   UNL     1      -0.945  10.350  20.975  0.00  0.00    +0.000 A 
ATOM     13  C   UNL     1      -0.325   9.293  21.587  0.00  0.00    +0.000 A 
ATOM     14  N   UNL     1       0.672   8.591  21.021  0.00  0.00    +0.000 NA
ENDROOT
BRANCH   1  16
ATOM     15  O   UNL     1       2.313   3.751  16.969  0.00  0.00    +0.000 OA
ATOM     16  S   UNL     1       3.522   3.713  17.772  0.00  0.00    +0.000 S 
ATOM     17  O   UNL     1       3.900   2.526  18.504  0.00  0.00    +0.000 OA
BRANCH  16  18
ATOM     18  C   UNL     1       4.825   3.982  16.570  0.00  0.00    +0.000 A 
ATOM     19  C   UNL     1       4.860   3.784  15.200  0.00  0.00    +0.000 A 
ATOM     20  C   UNL     1       6.115   4.137  14.624  0.00  0.00    +0.000 A 
ATOM     21  C   UNL     1       7.000   4.597  15.571  0.00  0.00    +0.000 A 
ATOM     22  S   UNL     1       6.333   4.554  17.144  0.00  0.00    +0.000 S 
ENDBRANCH  16  18
ENDBRANCH   1  16
TORSDOF 2
ENDMDL
MODEL 2
REMARK VINA RESULT:      -6.5      1.509      2.446
REMARK  Name = 
REMARK  2 active torsions:
REMARK  status: ('A' for Active; 'I' for Inactive)
REMARK    1  A    between atoms: S_2  and  C_4
REMARK    2  A    between atoms: S_2  and  N_9
REMARK                            x       y       z     vdW  Elec       q    Type
REMARK                         _______ _______ _______ _____ _____    ______ ____
ROOT
ATOM      1  N   UNL     1       3.242   5.963  18.485  0.00  0.00    +0.000 NA
ATOM      2  C   UNL     1       3.380   6.912  17.321  0.00  0.00    +0.000 C 
ATOM      3  C   UNL     1       2.817   8.265  17.816  0.00  0.00    +0.000 C 
ATOM      4  C   UNL     1       1.824   7.792  18.839  0.00  0.00    +0.000 C 
ATOM      5  C   UNL     1       2.702   6.774  19.576  0.00  0.00    +0.000 C 
ATOM      6  C   UNL     1       1.712   6.280  20.598  0.00  0.00    +0.000 C 
ATOM      7  C   UNL     1       1.179   7.656  21.117  0.00  0.00    +0.000 C 
ATOM      8  N   UNL     1       1.342   8.550  19.961  0.00  0.00    +0.000 N 
ATOM      9  C   UNL     1       1.137   9.888  19.980  0.00  0.00    +0.000 A 
ATOM     10  N   UNL     1       0.842  10.483  21.145  0.00  0.00    +0.000 NA
ATOM     11  C   UNL     1       0.675  11.820  21.132  0.00  0.00    +0.000 A 
ATOM     12  C   UNL     1       0.784  12.590  20.002  0.00  0.00    +0.000 A 
ATOM     13  C   UNL     1       1.085  11.897  18.860  0.00  0.00    +0.000 A 
ATOM     14  N   UNL     1       1.269  10.566  18.828  0.00  0.00    +0.000 NA
ENDROOT
BRANCH   1  16
ATOM     15  O   UNL     1       3.983   3.638  19.143  0.00  0.00    +0.000 OA
ATOM     16  S   UNL     1       4.542   4.930  18.789  0.00  0.00    +0.000 S 
ATOM     17  O   UNL     1       5.476   5.608  19.659  0.00  0.00    +0.000 OA
BRANCH  16  18
ATOM     18  C   UNL     1       5.441   4.590  17.275  0.00  0.00    +0.000 A 
ATOM     19  C   UNL     1       5.108   3.832  16.165  0.00  0.00    +0.000 A 
ATOM     20  C   UNL     1       6.129   3.835  15.170  0.00  0.00    +0.000 A 
ATOM     21  C   UNL     1       7.210   4.597  15.550  0.00  0.00    +0.000 A 
ATOM     22  S   UNL     1       7.008   5.260  17.112  0.00  0.00    +0.000 S 
ENDBRANCH  16  18
ENDBRANCH   1  16
TORSDOF 2
ENDMDL
MODEL 3
REMARK VINA RESULT:      -6.5      4.581      7.530
REMARK  Name = 
REMARK  2 active torsions:
REMARK  status: ('A' for Active; 'I' for Inactive)
REMARK    1  A    between atoms: S_2  and  C_4
REMARK    2  A    between atoms: S_2  and  N_9
REMARK                            x       y       z     vdW  Elec       q    Type
REMARK                         _______ _______ _______ _____ _____    ______ ____
ROOT
ATOM      1  N   UNL     1       1.122  10.613  19.207  0.00  0.00    +0.000 NA
ATOM      2  C   UNL     1       1.814  10.358  17.892  0.00  0.00    +0.000 C 
ATOM      3  C   UNL     1       2.067   8.832  17.842  0.00  0.00    +0.000 C 
ATOM      4  C   UNL     1       2.173   8.523  19.308  0.00  0.00    +0.000 C 
ATOM      5  C   UNL     1       0.943   9.291  19.807  0.00  0.00    +0.000 C 
ATOM      6  C   UNL     1       1.044   9.000  21.281  0.00  0.00    +0.000 C 
ATOM      7  C   UNL     1       1.262   7.452  21.217  0.00  0.00    +0.000 C 
ATOM      8  N   UNL     1       1.923   7.247  19.921  0.00  0.00    +0.000 N 
ATOM      9  C   UNL     1       2.188   6.040  19.367  0.00  0.00    +0.000 A 
ATOM     10  N   UNL     1       1.753   4.932  19.986  0.00  0.00    +0.000 NA
ATOM     11  C   UNL     1       2.008   3.751  19.390  0.00  0.00    +0.000 A 
ATOM     12  C   UNL     1       2.685   3.626  18.205  0.00  0.00    +0.000 A 
ATOM     13  C   UNL     1       3.093   4.809  17.647  0.00  0.00    +0.000 A 
ATOM     14  N   UNL     1       2.854   6.010  18.202  0.00  0.00    +0.000 NA
ENDROOT
BRANCH   1  16
ATOM     15  O   UNL     1       0.227  12.823  18.372  0.00  0.00    +0.000 OA
ATOM     16  S   UNL     1      -0.172  11.696  19.195  0.00  0.00    +0.000 S 
ATOM     17  O   UNL     1      -0.631  11.882  20.552  0.00  0.00    +0.000 OA
BRANCH  16  18
ATOM     18  C   UNL     1      -1.562  11.003  18.299  0.00  0.00    +0.000 A 
ATOM     19  C   UNL     1      -1.626  10.007  17.339  0.00  0.00    +0.000 A 
ATOM     20  C   UNL     1      -2.955   9.762  16.887  0.00  0.00    +0.000 A 
ATOM     21  C   UNL     1      -3.867  10.577  17.516  0.00  0.00    +0.000 A 
ATOM     22  S   UNL     1      -3.114  11.657  18.605  0.00  0.00    +0.000 S 
ENDBRANCH  16  18
ENDBRANCH   1  16
TORSDOF 2
ENDMDL
MODEL 4
REMARK VINA RESULT:      -6.4      1.334      2.340
REMARK  Name = 
REMARK  2 active torsions:
REMARK  status: ('A' for Active; 'I' for Inactive)
REMARK    1  A    between atoms: S_2  and  C_4
REMARK    2  A    between atoms: S_2  and  N_9
REMARK                            x       y       z     vdW  Elec       q    Type
REMARK                         _______ _______ _______ _____ _____    ______ ____
ROOT
ATOM      1  N   UNL     1       3.694   5.634  18.239  0.00  0.00    +0.000 NA
ATOM      2  C   UNL     1       3.696   6.856  17.355  0.00  0.00    +0.000 C 
ATOM      3  C   UNL     1       2.954   7.952  18.156  0.00  0.00    +0.000 C 
ATOM      4  C   UNL     1       2.039   7.107  18.995  0.00  0.00    +0.000 C 
ATOM      5  C   UNL     1       3.051   6.063  19.480  0.00  0.00    +0.000 C 
ATOM      6  C   UNL     1       2.142   5.199  20.315  0.00  0.00    +0.000 C 
ATOM      7  C   UNL     1       1.427   6.315  21.145  0.00  0.00    +0.000 C 
ATOM      8  N   UNL     1       1.462   7.486  20.256  0.00  0.00    +0.000 N 
ATOM      9  C   UNL     1       1.075   8.736  20.603  0.00  0.00    +0.000 A 
ATOM     10  N   UNL     1       0.705   8.972  21.871  0.00  0.00    +0.000 NA
ATOM     11  C   UNL     1       0.356  10.234  22.188  0.00  0.00    +0.000 A 
ATOM     12  C   UNL     1       0.354  11.272  21.292  0.00  0.00    +0.000 A 
ATOM     13  C   UNL     1       0.744  10.937  20.023  0.00  0.00    +0.000 A 
ATOM     14  N   UNL     1       1.108   9.694  19.664  0.00  0.00    +0.000 NA
ENDROOT
BRANCH   1  16
ATOM     15  O   UNL     1       4.760   3.389  18.695  0.00  0.00    +0.000 OA
ATOM     16  S   UNL     1       5.124   4.741  18.315  0.00  0.00    +0.000 S 
ATOM     17  O   UNL     1       6.100   5.496  19.067  0.00  0.00    +0.000 OA
BRANCH  16  18
ATOM     18  C   UNL     1       5.823   4.534  16.676  0.00  0.00    +0.000 A 
ATOM     19  C   UNL     1       5.479   3.687  15.636  0.00  0.00    +0.000 A 
ATOM     20  C   UNL     1       6.308   3.858  14.489  0.00  0.00    +0.000 A 
ATOM     21  C   UNL     1       7.259   4.833  14.687  0.00  0.00    +0.000 A 
ATOM     22  S   UNL     1       7.176   5.496  16.260  0.00  0.00    +0.000 S 
ENDBRANCH  16  18
ENDBRANCH   1  16
TORSDOF 2
ENDMDL
MODEL 5
REMARK VINA RESULT:      -6.3      3.571      7.041
REMARK  Name = 
REMARK  2 active torsions:
REMARK  status: ('A' for Active; 'I' for Inactive)
REMARK    1  A    between atoms: S_2  and  C_4
REMARK    2  A    between atoms: S_2  and  N_9
REMARK                            x       y       z     vdW  Elec       q    Type
REMARK                         _______ _______ _______ _____ _____    ______ ____
ROOT
ATOM      1  N   UNL     1       1.127   7.405  20.230  0.00  0.00    +0.000 NA
ATOM      2  C   UNL     1       1.534   6.085  20.836  0.00  0.00    +0.000 C 
ATOM      3  C   UNL     1       2.864   5.701  20.144  0.00  0.00    +0.000 C 
ATOM      4  C   UNL     1       2.691   6.385  18.818  0.00  0.00    +0.000 C 
ATOM      5  C   UNL     1       2.211   7.755  19.313  0.00  0.00    +0.000 C 
ATOM      6  C   UNL     1       2.021   8.449  17.991  0.00  0.00    +0.000 C 
ATOM      7  C   UNL     1       3.384   8.085  17.317  0.00  0.00    +0.000 C 
ATOM      8  N   UNL     1       3.750   6.806  17.941  0.00  0.00    +0.000 N 
ATOM      9  C   UNL     1       4.930   6.166  17.767  0.00  0.00    +0.000 A 
ATOM     10  N   UNL     1       5.889   6.760  17.042  0.00  0.00    +0.000 NA
ATOM     11  C   UNL     1       7.062   6.109  16.915  0.00  0.00    +0.000 A 
ATOM     12  C   UNL     1       7.317   4.884  17.477  0.00  0.00    +0.000 A 
ATOM     13  C   UNL     1       6.281   4.354  18.198  0.00  0.00    +0.000 A 
ATOM     14  N   UNL     1       5.098   4.972  18.357  0.00  0.00    +0.000 NA
ENDROOT
BRANCH   1  16
ATOM     15  O   UNL     1       1.641   9.029  22.097  0.00  0.00    +0.000 OA
ATOM     16  S   UNL     1       0.526   8.578  21.285  0.00  0.00    +0.000 S 
ATOM     17  O   UNL     1      -0.688   8.078  21.887  0.00  0.00    +0.000 OA
BRANCH  16  18
ATOM     18  C   UNL     1       0.052  10.052  20.380  0.00  0.00    +0.000 A 
ATOM     19  C   UNL     1      -0.877  10.246  19.372  0.00  0.00    +0.000 A 
ATOM     20  C   UNL     1      -0.937  11.601  18.932  0.00  0.00    +0.000 A 
ATOM     21  C   UNL     1      -0.052  12.401  19.618  0.00  0.00    +0.000 A 
ATOM     22  S   UNL     1       0.871  11.510  20.747  0.00  0.00    +0.000 S 
ENDBRANCH  16  18
ENDBRANCH   1  16
TORSDOF 2
ENDMDL
MODEL 6
REMARK VINA RESULT:      -6.2      2.980      4.516
REMARK  Name = 
REMARK  2 active torsions:
REMARK  status: ('A' for Active; 'I' for Inactive)
REMARK    1  A    between atoms: S_2  and  C_4
REMARK    2  A    between atoms: S_2  and  N_9
REMARK                            x       y       z     vdW  Elec       q    Type
REMARK                         _______ _______ _______ _____ _____    ______ ____
ROOT
ATOM      1  N   UNL     1       1.974   7.229  18.677  0.00  0.00    +0.000 NA
ATOM      2  C   UNL     1       2.061   8.062  17.422  0.00  0.00    +0.000 C 
ATOM      3  C   UNL     1       1.926   9.532  17.886  0.00  0.00    +0.000 C 
ATOM      4  C   UNL     1       1.099   9.354  19.127  0.00  0.00    +0.000 C 
ATOM      5  C   UNL     1       1.872   8.196  19.769  0.00  0.00    +0.000 C 
ATOM      6  C   UNL     1       1.044   7.997  21.012  0.00  0.00    +0.000 C 
ATOM      7  C   UNL     1       0.949   9.483  21.490  0.00  0.00    +0.000 C 
ATOM      8  N   UNL     1       1.049  10.257  20.244  0.00  0.00    +0.000 N 
ATOM      9  C   UNL     1       1.149  11.605  20.174  0.00  0.00    +0.000 A 
ATOM     10  N   UNL     1       1.250  12.309  21.311  0.00  0.00    +0.000 NA
ATOM     11  C   UNL     1       1.379  13.645  21.202  0.00  0.00    +0.000 A 
ATOM     12  C   UNL     1       1.406  14.312  20.004  0.00  0.00    +0.000 A 
ATOM     13  C   UNL     1       1.296  13.514  18.897  0.00  0.00    +0.000 A 
ATOM     14  N   UNL     1       1.173  12.177  18.959  0.00  0.00    +0.000 NA
ENDROOT
BRANCH   1  16
ATOM     15  O   UNL     1       4.116   6.366  19.703  0.00  0.00    +0.000 OA
ATOM     16  S   UNL     1       3.052   5.938  18.814  0.00  0.00    +0.000 S 
ATOM     17  O   UNL     1       3.337   5.432  17.491  0.00  0.00    +0.000 OA
BRANCH  16  18
ATOM     18  C   UNL     1       2.293   4.578  19.705  0.00  0.00    +0.000 A 
ATOM     19  C   UNL     1       2.201   4.312  21.060  0.00  0.00    +0.000 A 
ATOM     20  C   UNL     1       1.496   3.105  21.338  0.00  0.00    +0.000 A 
ATOM     21  C   UNL     1       1.070   2.486  20.185  0.00  0.00    +0.000 A 
ATOM     22  S   UNL     1       1.559   3.335  18.786  0.00  0.00    +0.000 S 
ENDBRANCH  16  18
ENDBRANCH   1  16
TORSDOF 2
ENDMDL
MODEL 7
REMARK VINA RESULT:      -6.2      3.598      7.495
REMARK  Name = 
REMARK  2 active torsions:
REMARK  status: ('A' for Active; 'I' for Inactive)
REMARK    1  A    between atoms: S_2  and  C_4
REMARK    2  A    between atoms: S_2  and  N_9
REMARK                            x       y       z     vdW  Elec       q    Type
REMARK                         _______ _______ _______ _____ _____    ______ ____
ROOT
ATOM      1  N   UNL     1       4.193   5.779  18.174  0.00  0.00    +0.000 NA
ATOM      2  C   UNL     1       4.987   6.980  17.724  0.00  0.00    +0.000 C 
ATOM      3  C   UNL     1       5.628   6.576  16.375  0.00  0.00    +0.000 C 
ATOM      4  C   UNL     1       5.743   5.089  16.560  0.00  0.00    +0.000 C 
ATOM      5  C   UNL     1       4.335   4.802  17.094  0.00  0.00    +0.000 C 
ATOM      6  C   UNL     1       4.441   3.314  17.297  0.00  0.00    +0.000 C 
ATOM      7  C   UNL     1       5.053   2.915  15.914  0.00  0.00    +0.000 C 
ATOM      8  N   UNL     1       5.804   4.111  15.509  0.00  0.00    +0.000 N 
ATOM      9  C   UNL     1       6.397   4.284  14.304  0.00  0.00    +0.000 A 
ATOM     10  N   UNL     1       6.235   3.345  13.360  0.00  0.00    +0.000 NA
ATOM     11  C   UNL     1       6.814   3.565  12.163  0.00  0.00    +0.000 A 
ATOM     12  C   UNL     1       7.555   4.680  11.869  0.00  0.00    +0.000 A 
ATOM     13  C   UNL     1       7.668   5.583  12.892  0.00  0.00    +0.000 A 
ATOM     14  N   UNL     1       7.101   5.409  14.099  0.00  0.00    +0.000 NA
ENDROOT
BRANCH   1  16
ATOM     15  O   UNL     1       1.716   6.009  17.731  0.00  0.00    +0.000 OA
ATOM     16  S   UNL     1       2.665   6.072  18.827  0.00  0.00    +0.000 S 
ATOM     17  O   UNL     1       2.745   7.232  19.685  0.00  0.00    +0.000 OA
BRANCH  16  18
ATOM     18  C   UNL     1       2.164   4.714  19.886  0.00  0.00    +0.000 A 
ATOM     19  C   UNL     1       2.392   4.470  21.230  0.00  0.00    +0.000 A 
ATOM     20  C   UNL     1       1.800   3.254  21.678  0.00  0.00    +0.000 A 
ATOM     21  C   UNL     1       1.135   2.605  20.662  0.00  0.00    +0.000 A 
ATOM     22  S   UNL     1       1.270   3.439  19.176  0.00  0.00    +0.000 S 
ENDBRANCH  16  18
ENDBRANCH   1  16
TORSDOF 2
ENDMDL
MODEL 8
REMARK VINA RESULT:      -6.2      2.640      3.976
REMARK  Name = 
REMARK  2 active torsions:
REMARK  status: ('A' for Active; 'I' for Inactive)
REMARK    1  A    between atoms: S_2  and  C_4
REMARK    2  A    between atoms: S_2  and  N_9
REMARK                            x       y       z     vdW  Elec       q    Type
REMARK                         _______ _______ _______ _____ _____    ______ ____
ROOT
ATOM      1  N   UNL     1       2.156   7.271  18.607  0.00  0.00    +0.000 NA
ATOM      2  C   UNL     1       2.159   8.151  17.382  0.00  0.00    +0.000 C 
ATOM      3  C   UNL     1       1.888   9.585  17.897  0.00  0.00    +0.000 C 
ATOM      4  C   UNL     1       1.086   9.286  19.132  0.00  0.00    +0.000 C 
ATOM      5  C   UNL     1       1.967   8.185  19.733  0.00  0.00    +0.000 C 
ATOM      6  C   UNL     1       1.166   7.866  20.968  0.00  0.00    +0.000 C 
ATOM      7  C   UNL     1       0.932   9.319  21.498  0.00  0.00    +0.000 C 
ATOM      8  N   UNL     1       0.954  10.141  20.280  0.00  0.00    +0.000 N 
ATOM      9  C   UNL     1       0.927  11.495  20.256  0.00  0.00    +0.000 A 
ATOM     10  N   UNL     1       0.965  12.165  21.417  0.00  0.00    +0.000 NA
ATOM     11  C   UNL     1       0.967  13.511  21.354  0.00  0.00    +0.000 A 
ATOM     12  C   UNL     1       0.926  14.219  20.180  0.00  0.00    +0.000 A 
ATOM     13  C   UNL     1       0.887  13.452  19.047  0.00  0.00    +0.000 A 
ATOM     14  N   UNL     1       0.892  12.108  19.062  0.00  0.00    +0.000 NA
ENDROOT
BRANCH   1  16
ATOM     15  O   UNL     1       3.824   6.063  20.072  0.00  0.00    +0.000 OA
ATOM     16  S   UNL     1       3.351   6.083  18.700  0.00  0.00    +0.000 S 
ATOM     17  O   UNL     1       4.264   6.260  17.593  0.00  0.00    +0.000 OA
BRANCH  16  18
ATOM     18  C   UNL     1       2.634   4.453  18.486  0.00  0.00    +0.000 A 
ATOM     19  C   UNL     1       1.438   3.915  18.930  0.00  0.00    +0.000 A 
ATOM     20  C   UNL     1       1.258   2.561  18.524  0.00  0.00    +0.000 A 
ATOM     21  C   UNL     1       2.322   2.106  17.780  0.00  0.00    +0.000 A 
ATOM     22  S   UNL     1       3.543   3.291  17.618  0.00  0.00    +0.000 S 
ENDBRANCH  16  18
ENDBRANCH   1  16
TORSDOF 2
ENDMDL
MODEL 9
REMARK VINA RESULT:      -6.1      1.485      1.836
REMARK  Name = 
REMARK  2 active torsions:
REMARK  status: ('A' for Active; 'I' for Inactive)
REMARK    1  A    between atoms: S_2  and  C_4
REMARK    2  A    between atoms: S_2  and  N_9
REMARK                            x       y       z     vdW  Elec       q    Type
REMARK                         _______ _______ _______ _____ _____    ______ ____
ROOT
ATOM      1  N   UNL     1       2.574   6.460  19.362  0.00  0.00    +0.000 NA
ATOM      2  C   UNL     1       2.067   6.426  20.782  0.00  0.00    +0.000 C 
ATOM      3  C   UNL     1       1.175   7.681  20.938  0.00  0.00    +0.000 C 
ATOM      4  C   UNL     1       1.816   8.600  19.937  0.00  0.00    +0.000 C 
ATOM      5  C   UNL     1       1.934   7.628  18.757  0.00  0.00    +0.000 C 
ATOM      6  C   UNL     1       2.588   8.534  17.748  0.00  0.00    +0.000 C 
ATOM      7  C   UNL     1       1.655   9.781  17.888  0.00  0.00    +0.000 C 
ATOM      8  N   UNL     1       1.176   9.704  19.275  0.00  0.00    +0.000 N 
ATOM      9  C   UNL     1       0.228  10.505  19.815  0.00  0.00    +0.000 A 
ATOM     10  N   UNL     1      -0.397  11.393  19.028  0.00  0.00    +0.000 NA
ATOM     11  C   UNL     1      -1.356  12.153  19.592  0.00  0.00    +0.000 A 
ATOM     12  C   UNL     1      -1.714  12.070  20.913  0.00  0.00    +0.000 A 
ATOM     13  C   UNL     1      -1.022  11.139  21.640  0.00  0.00    +0.000 A 
ATOM     14  N   UNL     1      -0.064  10.354  21.117  0.00  0.00    +0.000 NA
ENDROOT
BRANCH   1  16
ATOM     15  O   UNL     1       1.427   4.996  17.651  0.00  0.00    +0.000 OA
ATOM     16  S   UNL     1       2.590   4.998  18.519  0.00  0.00    +0.000 S 
ATOM     17  O   UNL     1       2.826   3.926  19.460  0.00  0.00    +0.000 OA
BRANCH  16  18
ATOM     18  C   UNL     1       3.964   4.951  17.369  0.00  0.00    +0.000 A 
ATOM     19  C   UNL     1       4.670   5.967  16.747  0.00  0.00    +0.000 A 
ATOM     20  C   UNL     1       5.706   5.478  15.899  0.00  0.00    +0.000 A 
ATOM     21  C   UNL     1       5.761   4.103  15.900  0.00  0.00    +0.000 A 
ATOM     22  S   UNL     1       4.541   3.416  16.879  0.00  0.00    +0.000 S 
ENDBRANCH  16  18
ENDBRANCH   1  16
TORSDOF 2
ENDMDL
