MODEL 1
REMARK VINA RESULT:      -8.0      0.000      0.000
REMARK  Name = 
REMARK  5 active torsions:
REMARK  status: ('A' for Active; 'I' for Inactive)
REMARK    1  A    between atoms: C_1  and  C_2
REMARK    2  A    between atoms: C_5  and  C_6
REMARK    3  A    between atoms: C_12  and  C_13
REMARK    4  A    between atoms: C_13  and  C_15
REMARK    5  A    between atoms: N_24  and  C_25
REMARK                            x       y       z     vdW  Elec       q    Type
REMARK                         _______ _______ _______ _____ _____    ______ ____
ROOT
ATOM      1  C   UNL     1       2.631   7.022  18.848  0.00  0.00    +0.000 A 
ATOM      2  C   UNL     1       2.159   6.390  20.000  0.00  0.00    +0.000 A 
ATOM      3  C   UNL     1       1.354   7.052  20.931  0.00  0.00    +0.000 A 
ATOM      4  C   UNL     1       1.029   8.391  20.681  0.00  0.00    +0.000 A 
ATOM      5  C   UNL     1       1.479   9.083  19.555  0.00  0.00    +0.000 A 
ATOM      6  C   UNL     1       2.294   8.376  18.638  0.00  0.00    +0.000 A 
ATOM      7  C   UNL     1       0.977  10.435  19.624  0.00  0.00    +0.000 A 
ATOM      8  C   UNL     1       0.228  10.498  20.788  0.00  0.00    +0.000 A 
ATOM      9  N   UNL     1       0.268   9.276  21.412  0.00  0.00    +0.000 N 
ATOM     10  C   UNL     1      -0.397   8.953  22.655  0.00  0.00    +0.000 C 
ENDROOT
BRANCH   1  15
ATOM     11  C   UNL     1       5.939   4.097  15.073  0.00  0.00    +0.000 C 
ATOM     12  C   UNL     1       5.079   4.866  16.031  0.00  0.00    +0.000 A 
ATOM     13  C   UNL     1       5.201   6.252  16.157  0.00  0.00    +0.000 A 
ATOM     14  C   UNL     1       4.403   6.947  17.065  0.00  0.00    +0.000 A 
ATOM     15  C   UNL     1       3.462   6.284  17.870  0.00  0.00    +0.000 A 
ATOM     16  C   UNL     1       3.346   4.893  17.724  0.00  0.00    +0.000 A 
ATOM     17  C   UNL     1       4.145   4.190  16.822  0.00  0.00    +0.000 A 
ENDBRANCH   1  15
BRANCH   7  18
ATOM     18  C   UNL     1       1.220  11.524  18.669  0.00  0.00    +0.000 C 
ATOM     19  O   UNL     1       2.205  11.519  17.925  0.00  0.00    +0.000 OA
BRANCH  18  20
ATOM     20  C   UNL     1       0.291  12.753  18.562  0.00  0.00    +0.000 C 
ATOM     21  O   UNL     1      -0.754  12.632  17.916  0.00  0.00    +0.000 OA
ATOM     22  N   UNL     1       0.638  13.934  19.224  0.00  0.00    +0.000 N 
ATOM     23  C   UNL     1      -0.315  15.047  19.248  0.00  0.00    +0.000 C 
ATOM     24  C   UNL     1       0.284  16.287  18.590  0.00  0.00    +0.000 C 
ATOM     25  C   UNL     1       1.631  16.639  19.218  0.00  0.00    +0.000 C 
ATOM     26  C   UNL     1       2.574  15.434  19.214  0.00  0.00    +0.000 C 
ATOM     27  C   UNL     1       1.929  14.200  19.850  0.00  0.00    +0.000 C 
ENDBRANCH  18  20
ENDBRANCH   7  18
TORSDOF 3
ENDMDL
MODEL 2
REMARK VINA RESULT:      -7.9      0.399      1.008
REMARK  Name = 
REMARK  5 active torsions:
REMARK  status: ('A' for Active; 'I' for Inactive)
REMARK    1  A    between atoms: C_1  and  C_2
REMARK    2  A    between atoms: C_5  and  C_6
REMARK    3  A    between atoms: C_12  and  C_13
REMARK    4  A    between atoms: C_13  and  C_15
REMARK    5  A    between atoms: N_24  and  C_25
REMARK                            x       y       z     vdW  Elec       q    Type
REMARK                         _______ _______ _______ _____ _____    ______ ____
ROOT
ATOM      1  C   UNL     1       2.707   6.915  18.786  0.00  0.00    +0.000 A 
ATOM      2  C   UNL     1       2.208   6.290  19.931  0.00  0.00    +0.000 A 
ATOM      3  C   UNL     1       1.393   6.960  20.846  0.00  0.00    +0.000 A 
ATOM      4  C   UNL     1       1.084   8.302  20.588  0.00  0.00    +0.000 A 
ATOM      5  C   UNL     1       1.561   8.988  19.470  0.00  0.00    +0.000 A 
ATOM      6  C   UNL     1       2.386   8.271  18.569  0.00  0.00    +0.000 A 
ATOM      7  C   UNL     1       1.070  10.344  19.528  0.00  0.00    +0.000 A 
ATOM      8  C   UNL     1       0.302  10.416  20.678  0.00  0.00    +0.000 A 
ATOM      9  N   UNL     1       0.318   9.195  21.304  0.00  0.00    +0.000 N 
ATOM     10  C   UNL     1      -0.372   8.881  22.535  0.00  0.00    +0.000 C 
ENDROOT
BRANCH   1  15
ATOM     11  C   UNL     1       5.959   4.006  14.952  0.00  0.00    +0.000 C 
ATOM     12  C   UNL     1       5.126   4.743  15.958  0.00  0.00    +0.000 A 
ATOM     13  C   UNL     1       4.234   4.065  16.791  0.00  0.00    +0.000 A 
ATOM     14  C   UNL     1       3.457   4.771  17.709  0.00  0.00    +0.000 A 
ATOM     15  C   UNL     1       3.548   6.168  17.825  0.00  0.00    +0.000 A 
ATOM     16  C   UNL     1       4.457   6.832  16.986  0.00  0.00    +0.000 A 
ATOM     17  C   UNL     1       5.233   6.133  16.061  0.00  0.00    +0.000 A 
ENDBRANCH   1  15
BRANCH   7  18
ATOM     18  C   UNL     1       1.341  11.430  18.575  0.00  0.00    +0.000 C 
ATOM     19  O   UNL     1       2.221  11.327  17.717  0.00  0.00    +0.000 OA
BRANCH  18  20
ATOM     20  C   UNL     1       0.577  12.771  18.611  0.00  0.00    +0.000 C 
ATOM     21  O   UNL     1      -0.574  12.792  18.162  0.00  0.00    +0.000 OA
ATOM     22  N   UNL     1       1.186  13.893  19.179  0.00  0.00    +0.000 N 
ATOM     23  C   UNL     1       0.407  15.122  19.351  0.00  0.00    +0.000 C 
ATOM     24  C   UNL     1       1.036  16.275  18.575  0.00  0.00    +0.000 C 
ATOM     25  C   UNL     1       2.508  16.443  18.948  0.00  0.00    +0.000 C 
ATOM     26  C   UNL     1       3.269  15.124  18.800  0.00  0.00    +0.000 C 
ATOM     27  C   UNL     1       2.592  13.983  19.562  0.00  0.00    +0.000 C 
ENDBRANCH  18  20
ENDBRANCH   7  18
TORSDOF 3
ENDMDL
MODEL 3
REMARK VINA RESULT:      -7.9      3.561      7.714
REMARK  Name = 
REMARK  5 active torsions:
REMARK  status: ('A' for Active; 'I' for Inactive)
REMARK    1  A    between atoms: C_1  and  C_2
REMARK    2  A    between atoms: C_5  and  C_6
REMARK    3  A    between atoms: C_12  and  C_13
REMARK    4  A    between atoms: C_13  and  C_15
REMARK    5  A    between atoms: N_24  and  C_25
REMARK                            x       y       z     vdW  Elec       q    Type
REMARK                         _______ _______ _______ _____ _____    ______ ____
ROOT
ATOM      1  C   UNL     1       1.920   6.757  19.461  0.00  0.00    +0.000 A 
ATOM      2  C   UNL     1       1.373   5.800  20.319  0.00  0.00    +0.000 A 
ATOM      3  C   UNL     1       1.683   4.442  20.210  0.00  0.00    +0.000 A 
ATOM      4  C   UNL     1       2.570   4.052  19.197  0.00  0.00    +0.000 A 
ATOM      5  C   UNL     1       3.141   4.956  18.300  0.00  0.00    +0.000 A 
ATOM      6  C   UNL     1       2.797   6.323  18.445  0.00  0.00    +0.000 A 
ATOM      7  C   UNL     1       3.980   4.218  17.387  0.00  0.00    +0.000 A 
ATOM      8  C   UNL     1       3.890   2.893  17.782  0.00  0.00    +0.000 A 
ATOM      9  N   UNL     1       3.046   2.804  18.860  0.00  0.00    +0.000 N 
ATOM     10  C   UNL     1       2.704   1.582  19.553  0.00  0.00    +0.000 C 
ENDROOT
BRANCH   1  15
ATOM     11  C   UNL     1       0.538  12.364  20.088  0.00  0.00    +0.000 C 
ATOM     12  C   UNL     1       0.914  10.922  19.917  0.00  0.00    +0.000 A 
ATOM     13  C   UNL     1       1.327  10.427  18.678  0.00  0.00    +0.000 A 
ATOM     14  C   UNL     1       1.657   9.079  18.535  0.00  0.00    +0.000 A 
ATOM     15  C   UNL     1       1.589   8.190  19.621  0.00  0.00    +0.000 A 
ATOM     16  C   UNL     1       1.181   8.707  20.860  0.00  0.00    +0.000 A 
ATOM     17  C   UNL     1       0.844  10.052  21.009  0.00  0.00    +0.000 A 
ENDBRANCH   1  15
BRANCH   7  18
ATOM     18  C   UNL     1       4.756   4.755  16.260  0.00  0.00    +0.000 C 
ATOM     19  O   UNL     1       4.999   4.071  15.263  0.00  0.00    +0.000 OA
BRANCH  18  20
ATOM     20  C   UNL     1       5.346   6.182  16.269  0.00  0.00    +0.000 C 
ATOM     21  O   UNL     1       5.172   6.884  15.268  0.00  0.00    +0.000 OA
ATOM     22  N   UNL     1       6.014   6.641  17.407  0.00  0.00    +0.000 N 
ATOM     23  C   UNL     1       6.438   8.043  17.472  0.00  0.00    +0.000 C 
ATOM     24  C   UNL     1       7.953   8.142  17.629  0.00  0.00    +0.000 C 
ATOM     25  C   UNL     1       8.432   7.317  18.822  0.00  0.00    +0.000 C 
ATOM     26  C   UNL     1       7.924   5.876  18.736  0.00  0.00    +0.000 C 
ATOM     27  C   UNL     1       6.406   5.814  18.544  0.00  0.00    +0.000 C 
ENDBRANCH  18  20
ENDBRANCH   7  18
TORSDOF 3
ENDMDL
MODEL 4
REMARK VINA RESULT:      -7.8      1.170      2.028
REMARK  Name = 
REMARK  5 active torsions:
REMARK  status: ('A' for Active; 'I' for Inactive)
REMARK    1  A    between atoms: C_1  and  C_2
REMARK    2  A    between atoms: C_5  and  C_6
REMARK    3  A    between atoms: C_12  and  C_13
REMARK    4  A    between atoms: C_13  and  C_15
REMARK    5  A    between atoms: N_24  and  C_25
REMARK                            x       y       z     vdW  Elec       q    Type
REMARK                         _______ _______ _______ _____ _____    ______ ____
ROOT
ATOM      1  C   UNL     1       1.740   8.121  19.672  0.00  0.00    +0.000 A 
ATOM      2  C   UNL     1       1.310   7.724  20.941  0.00  0.00    +0.000 A 
ATOM      3  C   UNL     1       0.541   8.557  21.757  0.00  0.00    +0.000 A 
ATOM      4  C   UNL     1       0.207   9.827  21.268  0.00  0.00    +0.000 A 
ATOM      5  C   UNL     1       0.615  10.288  20.015  0.00  0.00    +0.000 A 
ATOM      6  C   UNL     1       1.395   9.412  19.221  0.00  0.00    +0.000 A 
ATOM      7  C   UNL     1       0.116  11.631  19.843  0.00  0.00    +0.000 A 
ATOM      8  C   UNL     1      -0.588  11.921  21.000  0.00  0.00    +0.000 A 
ATOM      9  N   UNL     1      -0.526  10.840  21.844  0.00  0.00    +0.000 N 
ATOM     10  C   UNL     1      -1.144  10.765  23.149  0.00  0.00    +0.000 C 
ENDROOT
BRANCH   1  15
ATOM     11  C   UNL     1       4.906   4.509  16.405  0.00  0.00    +0.000 C 
ATOM     12  C   UNL     1       4.081   5.452  17.230  0.00  0.00    +0.000 A 
ATOM     13  C   UNL     1       4.154   6.832  17.036  0.00  0.00    +0.000 A 
ATOM     14  C   UNL     1       3.391   7.693  17.825  0.00  0.00    +0.000 A 
ATOM     15  C   UNL     1       2.533   7.204  18.824  0.00  0.00    +0.000 A 
ATOM     16  C   UNL     1       2.465   5.813  18.999  0.00  0.00    +0.000 A 
ATOM     17  C   UNL     1       3.231   4.946  18.218  0.00  0.00    +0.000 A 
ENDBRANCH   1  15
BRANCH   7  18
ATOM     18  C   UNL     1       0.324  12.516  18.689  0.00  0.00    +0.000 C 
ATOM     19  O   UNL     1      -0.592  12.777  17.905  0.00  0.00    +0.000 OA
BRANCH  18  20
ATOM     20  C   UNL     1       1.699  13.140  18.362  0.00  0.00    +0.000 C 
ATOM     21  O   UNL     1       2.567  12.403  17.885  0.00  0.00    +0.000 OA
ATOM     22  N   UNL     1       1.901  14.506  18.576  0.00  0.00    +0.000 N 
ATOM     23  C   UNL     1       3.151  15.124  18.124  0.00  0.00    +0.000 C 
ATOM     24  C   UNL     1       3.909  15.733  19.300  0.00  0.00    +0.000 C 
ATOM     25  C   UNL     1       3.016  16.692  20.085  0.00  0.00    +0.000 C 
ATOM     26  C   UNL     1       1.705  16.018  20.492  0.00  0.00    +0.000 C 
ATOM     27  C   UNL     1       0.988  15.389  19.295  0.00  0.00    +0.000 C 
ENDBRANCH  18  20
ENDBRANCH   7  18
TORSDOF 3
ENDMDL
MODEL 5
REMARK VINA RESULT:      -7.8      3.485      7.681
REMARK  Name = 
REMARK  5 active torsions:
REMARK  status: ('A' for Active; 'I' for Inactive)
REMARK    1  A    between atoms: C_1  and  C_2
REMARK    2  A    between atoms: C_5  and  C_6
REMARK    3  A    between atoms: C_12  and  C_13
REMARK    4  A    between atoms: C_13  and  C_15
REMARK    5  A    between atoms: N_24  and  C_25
REMARK                            x       y       z     vdW  Elec       q    Type
REMARK                         _______ _______ _______ _____ _____    ______ ____
ROOT
ATOM      1  C   UNL     1       1.935   7.067  19.461  0.00  0.00    +0.000 A 
ATOM      2  C   UNL     1       1.411   6.225  20.445  0.00  0.00    +0.000 A 
ATOM      3  C   UNL     1       1.738   4.868  20.508  0.00  0.00    +0.000 A 
ATOM      4  C   UNL     1       2.616   4.359  19.542  0.00  0.00    +0.000 A 
ATOM      5  C   UNL     1       3.163   5.145  18.527  0.00  0.00    +0.000 A 
ATOM      6  C   UNL     1       2.804   6.515  18.498  0.00  0.00    +0.000 A 
ATOM      7  C   UNL     1       4.000   4.303  17.705  0.00  0.00    +0.000 A 
ATOM      8  C   UNL     1       3.933   3.041  18.271  0.00  0.00    +0.000 A 
ATOM      9  N   UNL     1       3.104   3.083  19.363  0.00  0.00    +0.000 N 
ATOM     10  C   UNL     1       2.787   1.958  20.214  0.00  0.00    +0.000 C 
ENDROOT
BRANCH   1  15
ATOM     11  C   UNL     1       0.649  12.731  19.378  0.00  0.00    +0.000 C 
ATOM     12  C   UNL     1       0.961  11.264  19.407  0.00  0.00    +0.000 A 
ATOM     13  C   UNL     1       0.721  10.499  20.550  0.00  0.00    +0.000 A 
ATOM     14  C   UNL     1       1.033   9.140  20.562  0.00  0.00    +0.000 A 
ATOM     15  C   UNL     1       1.587   8.505  19.438  0.00  0.00    +0.000 A 
ATOM     16  C   UNL     1       1.812   9.288  18.295  0.00  0.00    +0.000 A 
ATOM     17  C   UNL     1       1.509  10.650  18.278  0.00  0.00    +0.000 A 
ENDBRANCH   1  15
BRANCH   7  18
ATOM     18  C   UNL     1       4.754   4.697  16.507  0.00  0.00    +0.000 C 
ATOM     19  O   UNL     1       4.933   3.912  15.572  0.00  0.00    +0.000 OA
BRANCH  18  20
ATOM     20  C   UNL     1       5.401   6.092  16.359  0.00  0.00    +0.000 C 
ATOM     21  O   UNL     1       5.276   6.674  15.277  0.00  0.00    +0.000 OA
ATOM     22  N   UNL     1       6.062   6.661  17.451  0.00  0.00    +0.000 N 
ATOM     23  C   UNL     1       6.541   8.043  17.358  0.00  0.00    +0.000 C 
ATOM     24  C   UNL     1       8.054   8.105  17.541  0.00  0.00    +0.000 C 
ATOM     25  C   UNL     1       8.474   7.413  18.837  0.00  0.00    +0.000 C 
ATOM     26  C   UNL     1       7.910   5.992  18.911  0.00  0.00    +0.000 C 
ATOM     27  C   UNL     1       6.396   5.964  18.689  0.00  0.00    +0.000 C 
ENDBRANCH  18  20
ENDBRANCH   7  18
TORSDOF 3
ENDMDL
MODEL 6
REMARK VINA RESULT:      -7.8      1.052      1.936
REMARK  Name = 
REMARK  5 active torsions:
REMARK  status: ('A' for Active; 'I' for Inactive)
REMARK    1  A    between atoms: C_1  and  C_2
REMARK    2  A    between atoms: C_5  and  C_6
REMARK    3  A    between atoms: C_12  and  C_13
REMARK    4  A    between atoms: C_13  and  C_15
REMARK    5  A    between atoms: N_24  and  C_25
REMARK                            x       y       z     vdW  Elec       q    Type
REMARK                         _______ _______ _______ _____ _____    ______ ____
ROOT
ATOM      1  C   UNL     1       2.346   7.359  19.176  0.00  0.00    +0.000 A 
ATOM      2  C   UNL     1       1.981   6.772  20.390  0.00  0.00    +0.000 A 
ATOM      3  C   UNL     1       1.187   7.438  21.326  0.00  0.00    +0.000 A 
ATOM      4  C   UNL     1       0.760   8.736  21.017  0.00  0.00    +0.000 A 
ATOM      5  C   UNL     1       1.100   9.383  19.828  0.00  0.00    +0.000 A 
ATOM      6  C   UNL     1       1.908   8.673  18.908  0.00  0.00    +0.000 A 
ATOM      7  C   UNL     1       0.513  10.702  19.847  0.00  0.00    +0.000 A 
ATOM      8  C   UNL     1      -0.172  10.791  21.048  0.00  0.00    +0.000 A 
ATOM      9  N   UNL     1      -0.017   9.616  21.739  0.00  0.00    +0.000 N 
ATOM     10  C   UNL     1      -0.588   9.330  23.036  0.00  0.00    +0.000 C 
ENDROOT
BRANCH   1  15
ATOM     11  C   UNL     1       5.524   4.466  15.268  0.00  0.00    +0.000 C 
ATOM     12  C   UNL     1       4.710   5.199  16.292  0.00  0.00    +0.000 A 
ATOM     13  C   UNL     1       3.804   4.522  17.111  0.00  0.00    +0.000 A 
ATOM     14  C   UNL     1       3.044   5.224  18.047  0.00  0.00    +0.000 A 
ATOM     15  C   UNL     1       3.168   6.615  18.196  0.00  0.00    +0.000 A 
ATOM     16  C   UNL     1       4.091   7.277  17.370  0.00  0.00    +0.000 A 
ATOM     17  C   UNL     1       4.849   6.583  16.428  0.00  0.00    +0.000 A 
ENDBRANCH   1  15
BRANCH   7  18
ATOM     18  C   UNL     1       0.630  11.743  18.817  0.00  0.00    +0.000 C 
ATOM     19  O   UNL     1      -0.326  12.048  18.099  0.00  0.00    +0.000 OA
BRANCH  18  20
ATOM     20  C   UNL     1       1.955  12.487  18.539  0.00  0.00    +0.000 C 
ATOM     21  O   UNL     1       2.773  11.947  17.788  0.00  0.00    +0.000 OA
ATOM     22  N   UNL     1       2.166  13.746  19.107  0.00  0.00    +0.000 N 
ATOM     23  C   UNL     1       3.353  14.515  18.722  0.00  0.00    +0.000 C 
ATOM     24  C   UNL     1       4.229  14.802  19.937  0.00  0.00    +0.000 C 
ATOM     25  C   UNL     1       3.419  15.469  21.048  0.00  0.00    +0.000 C 
ATOM     26  C   UNL     1       2.166  14.656  21.380  0.00  0.00    +0.000 C 
ATOM     27  C   UNL     1       1.329  14.357  20.134  0.00  0.00    +0.000 C 
ENDBRANCH  18  20
ENDBRANCH   7  18
TORSDOF 3
ENDMDL
MODEL 7
REMARK VINA RESULT:      -7.7      4.589      7.315
REMARK  Name = 
REMARK  5 active torsions:
REMARK  status: ('A' for Active; 'I' for Inactive)
REMARK    1  A    between atoms: C_1  and  C_2
REMARK    2  A    between atoms: C_5  and  C_6
REMARK    3  A    between atoms: C_12  and  C_13
REMARK    4  A    between atoms: C_13  and  C_15
REMARK    5  A    between atoms: N_24  and  C_25
REMARK                            x       y       z     vdW  Elec       q    Type
REMARK                         _______ _______ _______ _____ _____    ______ ____
ROOT
ATOM      1  C   UNL     1      -4.134  11.907  19.250  0.00  0.00    +0.000 A 
ATOM      2  C   UNL     1      -5.473  11.984  19.642  0.00  0.00    +0.000 A 
ATOM      3  C   UNL     1      -5.853  12.509  20.880  0.00  0.00    +0.000 A 
ATOM      4  C   UNL     1      -4.842  12.961  21.738  0.00  0.00    +0.000 A 
ATOM      5  C   UNL     1      -3.487  12.901  21.411  0.00  0.00    +0.000 A 
ATOM      6  C   UNL     1      -3.145  12.359  20.148  0.00  0.00    +0.000 A 
ATOM      7  C   UNL     1      -2.730  13.428  22.521  0.00  0.00    +0.000 A 
ATOM      8  C   UNL     1      -3.667  13.799  23.472  0.00  0.00    +0.000 A 
ATOM      9  N   UNL     1      -4.922  13.515  22.997  0.00  0.00    +0.000 N 
ATOM     10  C   UNL     1      -6.157  13.764  23.706  0.00  0.00    +0.000 C 
ENDROOT
BRANCH   1  15
ATOM     11  C   UNL     1      -2.759   9.733  14.042  0.00  0.00    +0.000 C 
ATOM     12  C   UNL     1      -3.093  10.302  15.389  0.00  0.00    +0.000 A 
ATOM     13  C   UNL     1      -2.310  10.014  16.507  0.00  0.00    +0.000 A 
ATOM     14  C   UNL     1      -2.646  10.539  17.755  0.00  0.00    +0.000 A 
ATOM     15  C   UNL     1      -3.769  11.368  17.922  0.00  0.00    +0.000 A 
ATOM     16  C   UNL     1      -4.540  11.654  16.784  0.00  0.00    +0.000 A 
ATOM     17  C   UNL     1      -4.212  11.127  15.535  0.00  0.00    +0.000 A 
ENDBRANCH   1  15
BRANCH   7  18
ATOM     18  C   UNL     1      -1.268  13.534  22.630  0.00  0.00    +0.000 C 
ATOM     19  O   UNL     1      -0.716  13.718  23.718  0.00  0.00    +0.000 OA
BRANCH  18  20
ATOM     20  C   UNL     1      -0.340  13.464  21.398  0.00  0.00    +0.000 C 
ATOM     21  O   UNL     1      -0.180  14.495  20.737  0.00  0.00    +0.000 OA
ATOM     22  N   UNL     1       0.312  12.265  21.097  0.00  0.00    +0.000 N 
ATOM     23  C   UNL     1       1.308  12.242  20.022  0.00  0.00    +0.000 C 
ATOM     24  C   UNL     1       0.897  11.262  18.927  0.00  0.00    +0.000 C 
ATOM     25  C   UNL     1       0.615   9.879  19.511  0.00  0.00    +0.000 C 
ATOM     26  C   UNL     1      -0.391   9.961  20.660  0.00  0.00    +0.000 C 
ATOM     27  C   UNL     1       0.034  10.977  21.723  0.00  0.00    +0.000 C 
ENDBRANCH  18  20
ENDBRANCH   7  18
TORSDOF 3
ENDMDL
MODEL 8
REMARK VINA RESULT:      -7.7      1.669      2.995
REMARK  Name = 
REMARK  5 active torsions:
REMARK  status: ('A' for Active; 'I' for Inactive)
REMARK    1  A    between atoms: C_1  and  C_2
REMARK    2  A    between atoms: C_5  and  C_6
REMARK    3  A    between atoms: C_12  and  C_13
REMARK    4  A    between atoms: C_13  and  C_15
REMARK    5  A    between atoms: N_24  and  C_25
REMARK                            x       y       z     vdW  Elec       q    Type
REMARK                         _______ _______ _______ _____ _____    ______ ____
ROOT
ATOM      1  C   UNL     1       0.886   9.151  20.355  0.00  0.00    +0.000 A 
ATOM      2  C   UNL     1       0.393   8.858  21.629  0.00  0.00    +0.000 A 
ATOM      3  C   UNL     1      -0.427   9.747  22.328  0.00  0.00    +0.000 A 
ATOM      4  C   UNL     1      -0.747  10.965  21.714  0.00  0.00    +0.000 A 
ATOM      5  C   UNL     1      -0.276  11.322  20.449  0.00  0.00    +0.000 A 
ATOM      6  C   UNL     1       0.554  10.393  19.776  0.00  0.00    +0.000 A 
ATOM      7  C   UNL     1      -0.778  12.639  20.135  0.00  0.00    +0.000 A 
ATOM      8  C   UNL     1      -1.546  13.017  21.224  0.00  0.00    +0.000 A 
ATOM      9  N   UNL     1      -1.519  12.015  22.161  0.00  0.00    +0.000 N 
ATOM     10  C   UNL     1      -2.205  12.043  23.433  0.00  0.00    +0.000 C 
ENDROOT
BRANCH   1  15
ATOM     11  C   UNL     1       4.273   5.344  17.565  0.00  0.00    +0.000 C 
ATOM     12  C   UNL     1       3.385   6.328  18.268  0.00  0.00    +0.000 A 
ATOM     13  C   UNL     1       3.021   7.532  17.661  0.00  0.00    +0.000 A 
ATOM     14  C   UNL     1       2.208   8.440  18.337  0.00  0.00    +0.000 A 
ATOM     15  C   UNL     1       1.732   8.175  19.633  0.00  0.00    +0.000 A 
ATOM     16  C   UNL     1       2.101   6.956  20.223  0.00  0.00    +0.000 A 
ATOM     17  C   UNL     1       2.919   6.045  19.554  0.00  0.00    +0.000 A 
ENDBRANCH   1  15
BRANCH   7  18
ATOM     18  C   UNL     1      -0.517  13.424  18.921  0.00  0.00    +0.000 C 
ATOM     19  O   UNL     1      -0.798  12.990  17.801  0.00  0.00    +0.000 OA
BRANCH  18  20
ATOM     20  C   UNL     1       0.157  14.813  18.964  0.00  0.00    +0.000 C 
ATOM     21  O   UNL     1      -0.562  15.808  18.824  0.00  0.00    +0.000 OA
ATOM     22  N   UNL     1       1.532  14.902  19.197  0.00  0.00    +0.000 N 
ATOM     23  C   UNL     1       2.143  16.220  19.389  0.00  0.00    +0.000 C 
ATOM     24  C   UNL     1       3.204  16.485  18.327  0.00  0.00    +0.000 C 
ATOM     25  C   UNL     1       4.228  15.352  18.286  0.00  0.00    +0.000 C 
ATOM     26  C   UNL     1       3.542  13.993  18.134  0.00  0.00    +0.000 C 
ATOM     27  C   UNL     1       2.460  13.776  19.194  0.00  0.00    +0.000 C 
ENDBRANCH  18  20
ENDBRANCH   7  18
TORSDOF 3
ENDMDL
MODEL 9
REMARK VINA RESULT:      -7.7      5.844      8.591
REMARK  Name = 
REMARK  5 active torsions:
REMARK  status: ('A' for Active; 'I' for Inactive)
REMARK    1  A    between atoms: C_1  and  C_2
REMARK    2  A    between atoms: C_5  and  C_6
REMARK    3  A    between atoms: C_12  and  C_13
REMARK    4  A    between atoms: C_13  and  C_15
REMARK    5  A    between atoms: N_24  and  C_25
REMARK                            x       y       z     vdW  Elec       q    Type
REMARK                         _______ _______ _______ _____ _____    ______ ____
ROOT
ATOM      1  C   UNL     1      -2.131  12.548  22.889  0.00  0.00    +0.000 A 
ATOM      2  C   UNL     1      -1.549  13.702  23.421  0.00  0.00    +0.000 A 
ATOM      3  C   UNL     1      -2.317  14.764  23.904  0.00  0.00    +0.000 A 
ATOM      4  C   UNL     1      -3.712  14.647  23.838  0.00  0.00    +0.000 A 
ATOM      5  C   UNL     1      -4.354  13.528  23.307  0.00  0.00    +0.000 A 
ATOM      6  C   UNL     1      -3.538  12.475  22.826  0.00  0.00    +0.000 A 
ATOM      7  C   UNL     1      -5.779  13.749  23.376  0.00  0.00    +0.000 A 
ATOM      8  C   UNL     1      -5.937  14.994  23.962  0.00  0.00    +0.000 A 
ATOM      9  N   UNL     1      -4.700  15.522  24.231  0.00  0.00    +0.000 N 
ATOM     10  C   UNL     1      -4.459  16.808  24.846  0.00  0.00    +0.000 C 
ENDROOT
BRANCH   1  15
ATOM     11  C   UNL     1       1.247   8.196  21.045  0.00  0.00    +0.000 C 
ATOM     12  C   UNL     1       0.361   9.317  21.504  0.00  0.00    +0.000 A 
ATOM     13  C   UNL     1       0.025  10.367  20.646  0.00  0.00    +0.000 A 
ATOM     14  C   UNL     1      -0.786  11.408  21.097  0.00  0.00    +0.000 A 
ATOM     15  C   UNL     1      -1.287  11.432  22.409  0.00  0.00    +0.000 A 
ATOM     16  C   UNL     1      -0.946  10.364  23.254  0.00  0.00    +0.000 A 
ATOM     17  C   UNL     1      -0.130   9.322  22.812  0.00  0.00    +0.000 A 
ENDBRANCH   1  15
BRANCH   7  18
ATOM     18  C   UNL     1      -6.842  12.849  22.907  0.00  0.00    +0.000 C 
ATOM     19  O   UNL     1      -7.703  12.415  23.677  0.00  0.00    +0.000 OA
BRANCH  18  20
ATOM     20  C   UNL     1      -6.927  12.361  21.445  0.00  0.00    +0.000 C 
ATOM     21  O   UNL     1      -6.634  11.184  21.212  0.00  0.00    +0.000 OA
ATOM     22  N   UNL     1      -7.365  13.241  20.452  0.00  0.00    +0.000 N 
ATOM     23  C   UNL     1      -7.591  12.735  19.095  0.00  0.00    +0.000 C 
ATOM     24  C   UNL     1      -6.693  13.456  18.093  0.00  0.00    +0.000 C 
ATOM     25  C   UNL     1      -6.861  14.970  18.202  0.00  0.00    +0.000 C 
ATOM     26  C   UNL     1      -6.666  15.444  19.644  0.00  0.00    +0.000 C 
ATOM     27  C   UNL     1      -7.555  14.678  20.625  0.00  0.00    +0.000 C 
ENDBRANCH  18  20
ENDBRANCH   7  18
TORSDOF 3
ENDMDL
