MODEL 1
REMARK VINA RESULT:     -10.0      0.000      0.000
REMARK  Name = 
REMARK  7 active torsions:
REMARK  status: ('A' for Active; 'I' for Inactive)
REMARK    1  A    between atoms: C_1  and  C_2
REMARK    2  A    between atoms: C_2  and  N_3
REMARK    3  A    between atoms: C_2  and  C_27
REMARK    4  A    between atoms: C_4  and  C_6
REMARK    5  A    between atoms: C_9  and  C_10
REMARK    6  A    between atoms: C_12  and  C_13
REMARK    7  A    between atoms: C_22  and  N_23
REMARK                            x       y       z     vdW  Elec       q    Type
REMARK                         _______ _______ _______ _____ _____    ______ ____
ROOT
ATOM      1  C   UNL     1       3.720   6.288  18.429  0.00  0.00    +0.000 A 
ATOM      2  C   UNL     1       3.620   7.396  17.584  0.00  0.00    +0.000 A 
ATOM      3  C   UNL     1       2.685   8.397  17.851  0.00  0.00    +0.000 A 
ATOM      4  C   UNL     1       1.790   8.313  18.935  0.00  0.00    +0.000 A 
ATOM      5  C   UNL     1       1.899   7.184  19.760  0.00  0.00    +0.000 A 
ATOM      6  C   UNL     1       2.855   6.199  19.516  0.00  0.00    +0.000 A 
ATOM      7  F   UNL     1       2.906   5.161  20.356  0.00  0.00    +0.000 F 
ENDROOT
BRANCH   4   8
ATOM      8  C   UNL     1       0.801   9.383  19.220  0.00  0.00    +0.000 A 
ATOM      9  C   UNL     1      -0.098   9.796  18.214  0.00  0.00    +0.000 A 
ATOM     10  C   UNL     1      -1.086  10.749  18.463  0.00  0.00    +0.000 A 
ATOM     11  C   UNL     1      -1.116  11.286  19.741  0.00  0.00    +0.000 A 
ATOM     12  N   UNL     1      -0.257  10.960  20.728  0.00  0.00    +0.000 NA
ATOM     13  C   UNL     1       0.681  10.033  20.466  0.00  0.00    +0.000 A 
BRANCH  10  14
ATOM     14  C   UNL     1      -2.088  11.139  17.394  0.00  0.00    +0.000 C 
ATOM     15  C   UNL     1      -2.264  10.013  16.372  0.00  0.00    +0.000 C 
ATOM     16  C   UNL     1      -3.225  10.463  15.291  0.00  0.00    +0.000 C 
ATOM     17  N   UNL     1      -4.463  10.949  15.846  0.00  0.00    +0.000 N 
ATOM     18  C   UNL     1      -4.585  11.606  17.035  0.00  0.00    +0.000 C 
ATOM     19  O   UNL     1      -5.650  12.145  17.328  0.00  0.00    +0.000 OA
ATOM     20  C   UNL     1      -3.430  11.547  18.010  0.00  0.00    +0.000 C 
ATOM     21  H   UNL     1      -5.269  11.052  15.239  0.00  0.00    +0.000 HD
ENDBRANCH  10  14
BRANCH  13  22
ATOM     22  N   UNL     1       1.485   9.722  21.560  0.00  0.00    +0.000 N 
ATOM     23  H   UNL     1       0.934   9.822  22.405  0.00  0.00    +0.000 HD
ATOM     24  H   UNL     1       2.347  10.255  21.577  0.00  0.00    +0.000 HD
ENDBRANCH  13  22
ENDBRANCH   4   8
BRANCH   1  26
ATOM     25  N   UNL     1       5.264   5.238  16.867  0.00  0.00    +0.000 N 
ATOM     26  C   UNL     1       4.745   5.262  18.135  0.00  0.00    +0.000 C 
ATOM     27  O   UNL     1       5.083   4.467  19.010  0.00  0.00    +0.000 OA
ATOM     28  H   UNL     1       4.897   5.878  16.172  0.00  0.00    +0.000 HD
BRANCH  25  30
ATOM     29  C   UNL     1       7.611   4.555  17.204  0.00  0.00    +0.000 C 
ATOM     30  C   UNL     1       6.296   4.301  16.464  0.00  0.00    +0.000 C 
BRANCH  30  31
ATOM     31  C   UNL     1       6.485   4.378  14.963  0.00  0.00    +0.000 A 
ATOM     32  C   UNL     1       7.546   5.127  14.434  0.00  0.00    +0.000 A 
ATOM     33  C   UNL     1       7.781   5.149  13.057  0.00  0.00    +0.000 A 
ATOM     34  C   UNL     1       6.956   4.429  12.195  0.00  0.00    +0.000 A 
ATOM     35  C   UNL     1       5.886   3.704  12.708  0.00  0.00    +0.000 A 
ATOM     36 CL   UNL     1       4.866   2.812  11.648  0.00  0.00    +0.000 Cl
ATOM     37  C   UNL     1       5.643   3.678  14.081  0.00  0.00    +0.000 A 
ENDBRANCH  30  31
ENDBRANCH  25  30
ENDBRANCH   1  26
TORSDOF 6
ENDMDL
MODEL 2
REMARK VINA RESULT:      -9.8      0.850      1.190
REMARK  Name = 
REMARK  7 active torsions:
REMARK  status: ('A' for Active; 'I' for Inactive)
REMARK    1  A    between atoms: C_1  and  C_2
REMARK    2  A    between atoms: C_2  and  N_3
REMARK    3  A    between atoms: C_2  and  C_27
REMARK    4  A    between atoms: C_4  and  C_6
REMARK    5  A    between atoms: C_9  and  C_10
REMARK    6  A    between atoms: C_12  and  C_13
REMARK    7  A    between atoms: C_22  and  N_23
REMARK                            x       y       z     vdW  Elec       q    Type
REMARK                         _______ _______ _______ _____ _____    ______ ____
ROOT
ATOM      1  C   UNL     1       3.593   6.320  18.369  0.00  0.00    +0.000 A 
ATOM      2  C   UNL     1       2.830   6.253  19.537  0.00  0.00    +0.000 A 
ATOM      3  C   UNL     1       1.910   7.261  19.829  0.00  0.00    +0.000 A 
ATOM      4  C   UNL     1       1.748   8.387  19.000  0.00  0.00    +0.000 A 
ATOM      5  C   UNL     1       2.537   8.439  17.842  0.00  0.00    +0.000 A 
ATOM      6  C   UNL     1       3.432   7.418  17.529  0.00  0.00    +0.000 A 
ATOM      7  F   UNL     1       4.137   7.533  16.400  0.00  0.00    +0.000 F 
ENDROOT
BRANCH   4   8
ATOM      8  C   UNL     1       0.763   9.455  19.311  0.00  0.00    +0.000 A 
ATOM      9  C   UNL     1      -0.141   9.888  18.318  0.00  0.00    +0.000 A 
ATOM     10  C   UNL     1      -1.125  10.839  18.592  0.00  0.00    +0.000 A 
ATOM     11  C   UNL     1      -1.146  11.352  19.879  0.00  0.00    +0.000 A 
ATOM     12  N   UNL     1      -0.281  11.006  20.855  0.00  0.00    +0.000 NA
ATOM     13  C   UNL     1       0.653  10.081  20.569  0.00  0.00    +0.000 A 
BRANCH  10  14
ATOM     14  C   UNL     1      -2.133  11.251  17.536  0.00  0.00    +0.000 C 
ATOM     15  C   UNL     1      -2.232  10.194  16.433  0.00  0.00    +0.000 C 
ATOM     16  C   UNL     1      -3.202  10.669  15.370  0.00  0.00    +0.000 C 
ATOM     17  N   UNL     1      -4.472  11.046  15.938  0.00  0.00    +0.000 N 
ATOM     18  C   UNL     1      -4.647  11.606  17.168  0.00  0.00    +0.000 C 
ATOM     19  O   UNL     1      -5.744  12.064  17.481  0.00  0.00    +0.000 OA
ATOM     20  C   UNL     1      -3.503  11.539  18.156  0.00  0.00    +0.000 C 
ATOM     21  H   UNL     1      -5.275  11.149  15.326  0.00  0.00    +0.000 HD
ENDBRANCH  10  14
BRANCH  13  22
ATOM     22  N   UNL     1       1.463   9.748  21.653  0.00  0.00    +0.000 N 
ATOM     23  H   UNL     1       1.983  10.573  21.933  0.00  0.00    +0.000 HD
ATOM     24  H   UNL     1       2.053   8.945  21.469  0.00  0.00    +0.000 HD
ENDBRANCH  13  22
ENDBRANCH   4   8
BRANCH   1  26
ATOM     25  N   UNL     1       5.307   5.333  16.949  0.00  0.00    +0.000 N 
ATOM     26  C   UNL     1       4.535   5.217  18.075  0.00  0.00    +0.000 C 
ATOM     27  O   UNL     1       4.586   4.240  18.822  0.00  0.00    +0.000 OA
ATOM     28  H   UNL     1       5.172   6.131  16.340  0.00  0.00    +0.000 HD
BRANCH  25  30
ATOM     29  C   UNL     1       7.600   4.510  17.338  0.00  0.00    +0.000 C 
ATOM     30  C   UNL     1       6.289   4.334  16.569  0.00  0.00    +0.000 C 
BRANCH  30  31
ATOM     31  C   UNL     1       6.515   4.396  15.072  0.00  0.00    +0.000 A 
ATOM     32  C   UNL     1       7.559   5.179  14.559  0.00  0.00    +0.000 A 
ATOM     33  C   UNL     1       7.830   5.190  13.189  0.00  0.00    +0.000 A 
ATOM     34  C   UNL     1       7.057   4.425  12.318  0.00  0.00    +0.000 A 
ATOM     35  C   UNL     1       6.003   3.665  12.814  0.00  0.00    +0.000 A 
ATOM     36 CL   UNL     1       5.049   2.718  11.742  0.00  0.00    +0.000 Cl
ATOM     37  C   UNL     1       5.726   3.650  14.180  0.00  0.00    +0.000 A 
ENDBRANCH  30  31
ENDBRANCH  25  30
ENDBRANCH   1  26
TORSDOF 6
ENDMDL
MODEL 3
REMARK VINA RESULT:      -9.6      0.954      1.271
REMARK  Name = 
REMARK  7 active torsions:
REMARK  status: ('A' for Active; 'I' for Inactive)
REMARK    1  A    between atoms: C_1  and  C_2
REMARK    2  A    between atoms: C_2  and  N_3
REMARK    3  A    between atoms: C_2  and  C_27
REMARK    4  A    between atoms: C_4  and  C_6
REMARK    5  A    between atoms: C_9  and  C_10
REMARK    6  A    between atoms: C_12  and  C_13
REMARK    7  A    between atoms: C_22  and  N_23
REMARK                            x       y       z     vdW  Elec       q    Type
REMARK                         _______ _______ _______ _____ _____    ______ ____
ROOT
ATOM      1  C   UNL     1       3.491   6.274  18.609  0.00  0.00    +0.000 A 
ATOM      2  C   UNL     1       3.437   7.351  17.721  0.00  0.00    +0.000 A 
ATOM      3  C   UNL     1       2.523   8.384  17.931  0.00  0.00    +0.000 A 
ATOM      4  C   UNL     1       1.604   8.363  18.998  0.00  0.00    +0.000 A 
ATOM      5  C   UNL     1       1.668   7.264  19.866  0.00  0.00    +0.000 A 
ATOM      6  C   UNL     1       2.603   6.247  19.680  0.00  0.00    +0.000 A 
ATOM      7  F   UNL     1       2.611   5.241  20.559  0.00  0.00    +0.000 F 
ENDROOT
BRANCH   4   8
ATOM      8  C   UNL     1       0.637   9.467  19.222  0.00  0.00    +0.000 A 
ATOM      9  C   UNL     1      -0.243   9.852  18.188  0.00  0.00    +0.000 A 
ATOM     10  C   UNL     1      -1.211  10.838  18.382  0.00  0.00    +0.000 A 
ATOM     11  C   UNL     1      -1.242  11.434  19.633  0.00  0.00    +0.000 A 
ATOM     12  N   UNL     1      -0.400  11.136  20.644  0.00  0.00    +0.000 NA
ATOM     13  C   UNL     1       0.519  10.177  20.435  0.00  0.00    +0.000 A 
BRANCH  10  14
ATOM     14  C   UNL     1      -2.193  11.200  17.285  0.00  0.00    +0.000 C 
ATOM     15  C   UNL     1      -2.309  10.069  16.259  0.00  0.00    +0.000 C 
ATOM     16  C   UNL     1      -3.252  10.492  15.151  0.00  0.00    +0.000 C 
ATOM     17  N   UNL     1      -4.518  10.944  15.671  0.00  0.00    +0.000 N 
ATOM     18  C   UNL     1      -4.691  11.597  16.856  0.00  0.00    +0.000 C 
ATOM     19  O   UNL     1      -5.778  12.107  17.118  0.00  0.00    +0.000 OA
ATOM     20  C   UNL     1      -3.562  11.571  17.862  0.00  0.00    +0.000 C 
ATOM     21  H   UNL     1      -5.309  11.025  15.042  0.00  0.00    +0.000 HD
ENDBRANCH  10  14
BRANCH  13  22
ATOM     22  N   UNL     1       1.305   9.899  21.552  0.00  0.00    +0.000 N 
ATOM     23  H   UNL     1       1.003  10.494  22.315  0.00  0.00    +0.000 HD
ATOM     24  H   UNL     1       2.298   9.966  21.359  0.00  0.00    +0.000 HD
ENDBRANCH  13  22
ENDBRANCH   4   8
BRANCH   1  26
ATOM     25  N   UNL     1       5.220   5.277  17.213  0.00  0.00    +0.000 N 
ATOM     26  C   UNL     1       4.496   5.212  18.374  0.00  0.00    +0.000 C 
ATOM     27  O   UNL     1       4.638   4.312  19.201  0.00  0.00    +0.000 OA
ATOM     28  H   UNL     1       5.011   6.007  16.543  0.00  0.00    +0.000 HD
BRANCH  25  30
ATOM     29  C   UNL     1       7.563   4.617  17.617  0.00  0.00    +0.000 C 
ATOM     30  C   UNL     1       6.254   4.315  16.884  0.00  0.00    +0.000 C 
BRANCH  30  31
ATOM     31  C   UNL     1       6.458   4.291  15.382  0.00  0.00    +0.000 A 
ATOM     32  C   UNL     1       5.600   3.530  14.576  0.00  0.00    +0.000 A 
ATOM     33  C   UNL     1       5.726   3.555  13.185  0.00  0.00    +0.000 A 
ATOM     34  C   UNL     1       6.713   4.336  12.587  0.00  0.00    +0.000 A 
ATOM     35  C   UNL     1       7.586   5.075  13.379  0.00  0.00    +0.000 A 
ATOM     36 CL   UNL     1       8.804   6.041  12.644  0.00  0.00    +0.000 Cl
ATOM     37  C   UNL     1       7.468   5.054  14.768  0.00  0.00    +0.000 A 
ENDBRANCH  30  31
ENDBRANCH  25  30
ENDBRANCH   1  26
TORSDOF 6
ENDMDL
MODEL 4
REMARK VINA RESULT:      -9.3      3.166      9.952
REMARK  Name = 
REMARK  7 active torsions:
REMARK  status: ('A' for Active; 'I' for Inactive)
REMARK    1  A    between atoms: C_1  and  C_2
REMARK    2  A    between atoms: C_2  and  N_3
REMARK    3  A    between atoms: C_2  and  C_27
REMARK    4  A    between atoms: C_4  and  C_6
REMARK    5  A    between atoms: C_9  and  C_10
REMARK    6  A    between atoms: C_12  and  C_13
REMARK    7  A    between atoms: C_22  and  N_23
REMARK                            x       y       z     vdW  Elec       q    Type
REMARK                         _______ _______ _______ _____ _____    ______ ____
ROOT
ATOM      1  C   UNL     1       1.380   9.444  18.973  0.00  0.00    +0.000 A 
ATOM      2  C   UNL     1       2.018   9.148  17.766  0.00  0.00    +0.000 A 
ATOM      3  C   UNL     1       2.696   7.938  17.613  0.00  0.00    +0.000 A 
ATOM      4  C   UNL     1       2.803   7.004  18.661  0.00  0.00    +0.000 A 
ATOM      5  C   UNL     1       2.168   7.331  19.868  0.00  0.00    +0.000 A 
ATOM      6  C   UNL     1       1.460   8.523  20.014  0.00  0.00    +0.000 A 
ATOM      7  F   UNL     1       0.870   8.756  21.189  0.00  0.00    +0.000 F 
ENDROOT
BRANCH   4   8
ATOM      8  C   UNL     1       3.521   5.715  18.492  0.00  0.00    +0.000 A 
ATOM      9  C   UNL     1       4.202   5.441  17.287  0.00  0.00    +0.000 A 
ATOM     10  C   UNL     1       4.944   4.272  17.117  0.00  0.00    +0.000 A 
ATOM     11  C   UNL     1       4.951   3.386  18.183  0.00  0.00    +0.000 A 
ATOM     12  N   UNL     1       4.286   3.575  19.340  0.00  0.00    +0.000 NA
ATOM     13  C   UNL     1       3.584   4.714  19.484  0.00  0.00    +0.000 A 
BRANCH  10  14
ATOM     14  C   UNL     1       5.724   4.017  15.842  0.00  0.00    +0.000 C 
ATOM     15  C   UNL     1       4.785   3.911  14.638  0.00  0.00    +0.000 C 
ATOM     16  C   UNL     1       5.596   3.597  13.397  0.00  0.00    +0.000 C 
ATOM     17  N   UNL     1       6.678   4.532  13.216  0.00  0.00    +0.000 N 
ATOM     18  C   UNL     1       7.376   5.129  14.224  0.00  0.00    +0.000 C 
ATOM     19  O   UNL     1       8.399   5.759  13.968  0.00  0.00    +0.000 OA
ATOM     20  C   UNL     1       6.796   5.089  15.620  0.00  0.00    +0.000 C 
ATOM     21  H   UNL     1       7.140   4.583  12.315  0.00  0.00    +0.000 HD
ENDBRANCH  10  14
BRANCH  13  22
ATOM     22  N   UNL     1       2.977   4.846  20.731  0.00  0.00    +0.000 N 
ATOM     23  H   UNL     1       3.652   5.237  21.379  0.00  0.00    +0.000 HD
ATOM     24  H   UNL     1       2.561   3.982  21.058  0.00  0.00    +0.000 HD
ENDBRANCH  13  22
ENDBRANCH   4   8
BRANCH   1  26
ATOM     25  N   UNL     1      -0.719  10.651  19.231  0.00  0.00    +0.000 N 
ATOM     26  C   UNL     1       0.642  10.721  19.089  0.00  0.00    +0.000 C 
ATOM     27  O   UNL     1       1.253  11.788  19.038  0.00  0.00    +0.000 OA
ATOM     28  H   UNL     1      -1.171   9.745  19.200  0.00  0.00    +0.000 HD
BRANCH  25  30
ATOM     29  C   UNL     1      -1.895  12.091  20.853  0.00  0.00    +0.000 C 
ATOM     30  C   UNL     1      -1.550  11.830  19.385  0.00  0.00    +0.000 C 
BRANCH  30  31
ATOM     31  C   UNL     1      -2.802  11.676  18.545  0.00  0.00    +0.000 A 
ATOM     32  C   UNL     1      -4.034  12.122  19.045  0.00  0.00    +0.000 A 
ATOM     33  C   UNL     1      -5.184  12.056  18.256  0.00  0.00    +0.000 A 
ATOM     34  C   UNL     1      -5.118  11.538  16.964  0.00  0.00    +0.000 A 
ATOM     35  C   UNL     1      -3.905  11.069  16.469  0.00  0.00    +0.000 A 
ATOM     36 CL   UNL     1      -3.819  10.432  14.874  0.00  0.00    +0.000 Cl
ATOM     37  C   UNL     1      -2.752  11.130  17.250  0.00  0.00    +0.000 A 
ENDBRANCH  30  31
ENDBRANCH  25  30
ENDBRANCH   1  26
TORSDOF 6
ENDMDL
MODEL 5
REMARK VINA RESULT:      -9.3      2.212      3.332
REMARK  Name = 
REMARK  7 active torsions:
REMARK  status: ('A' for Active; 'I' for Inactive)
REMARK    1  A    between atoms: C_1  and  C_2
REMARK    2  A    between atoms: C_2  and  N_3
REMARK    3  A    between atoms: C_2  and  C_27
REMARK    4  A    between atoms: C_4  and  C_6
REMARK    5  A    between atoms: C_9  and  C_10
REMARK    6  A    between atoms: C_12  and  C_13
REMARK    7  A    between atoms: C_22  and  N_23
REMARK                            x       y       z     vdW  Elec       q    Type
REMARK                         _______ _______ _______ _____ _____    ______ ____
ROOT
ATOM      1  C   UNL     1       5.037   5.280  16.260  0.00  0.00    +0.000 A 
ATOM      2  C   UNL     1       5.175   6.664  16.391  0.00  0.00    +0.000 A 
ATOM      3  C   UNL     1       4.326   7.374  17.241  0.00  0.00    +0.000 A 
ATOM      4  C   UNL     1       3.286   6.746  17.953  0.00  0.00    +0.000 A 
ATOM      5  C   UNL     1       3.158   5.358  17.793  0.00  0.00    +0.000 A 
ATOM      6  C   UNL     1       4.026   4.641  16.972  0.00  0.00    +0.000 A 
ATOM      7  F   UNL     1       3.849   3.320  16.883  0.00  0.00    +0.000 F 
ENDROOT
BRANCH   4   8
ATOM      8  C   UNL     1       2.388   7.503  18.861  0.00  0.00    +0.000 A 
ATOM      9  C   UNL     1       1.801   8.710  18.424  0.00  0.00    +0.000 A 
ATOM     10  C   UNL     1       0.899   9.414  19.223  0.00  0.00    +0.000 A 
ATOM     11  C   UNL     1       0.634   8.879  20.473  0.00  0.00    +0.000 A 
ATOM     12  N   UNL     1       1.196   7.753  20.958  0.00  0.00    +0.000 NA
ATOM     13  C   UNL     1       2.056   7.088  20.167  0.00  0.00    +0.000 A 
BRANCH  10  14
ATOM     14  C   UNL     1       0.226  10.677  18.720  0.00  0.00    +0.000 C 
ATOM     15  C   UNL     1      -1.182  10.375  18.198  0.00  0.00    +0.000 C 
ATOM     16  C   UNL     1      -1.796  11.648  17.652  0.00  0.00    +0.000 C 
ATOM     17  N   UNL     1      -1.744  12.721  18.612  0.00  0.00    +0.000 N 
ATOM     18  C   UNL     1      -0.750  12.908  19.526  0.00  0.00    +0.000 C 
ATOM     19  O   UNL     1      -0.700  13.954  20.169  0.00  0.00    +0.000 OA
ATOM     20  C   UNL     1       0.199  11.762  19.800  0.00  0.00    +0.000 C 
ATOM     21  H   UNL     1      -2.325  13.540  18.469  0.00  0.00    +0.000 HD
ENDBRANCH  10  14
BRANCH  13  22
ATOM     22  N   UNL     1       2.542   5.909  20.731  0.00  0.00    +0.000 N 
ATOM     23  H   UNL     1       3.297   5.561  20.151  0.00  0.00    +0.000 HD
ATOM     24  H   UNL     1       1.814   5.225  20.896  0.00  0.00    +0.000 HD
ENDBRANCH  13  22
ENDBRANCH   4   8
BRANCH   1  26
ATOM     25  N   UNL     1       6.401   5.201  14.245  0.00  0.00    +0.000 N 
ATOM     26  C   UNL     1       5.976   4.555  15.376  0.00  0.00    +0.000 C 
ATOM     27  O   UNL     1       6.330   3.413  15.665  0.00  0.00    +0.000 OA
ATOM     28  H   UNL     1       6.024   6.116  14.030  0.00  0.00    +0.000 HD
BRANCH  25  30
ATOM     29  C   UNL     1       8.083   5.675  12.503  0.00  0.00    +0.000 C 
ATOM     30  C   UNL     1       7.345   4.609  13.316  0.00  0.00    +0.000 C 
BRANCH  30  31
ATOM     31  C   UNL     1       6.615   3.636  12.412  0.00  0.00    +0.000 A 
ATOM     32  C   UNL     1       7.298   2.528  11.889  0.00  0.00    +0.000 A 
ATOM     33  C   UNL     1       6.623   1.581  11.115  0.00  0.00    +0.000 A 
ATOM     34  C   UNL     1       5.264   1.733  10.851  0.00  0.00    +0.000 A 
ATOM     35  C   UNL     1       4.584   2.842  11.344  0.00  0.00    +0.000 A 
ATOM     36 CL   UNL     1       2.905   3.033  11.022  0.00  0.00    +0.000 Cl
ATOM     37  C   UNL     1       5.250   3.793  12.116  0.00  0.00    +0.000 A 
ENDBRANCH  30  31
ENDBRANCH  25  30
ENDBRANCH   1  26
TORSDOF 6
ENDMDL
MODEL 6
REMARK VINA RESULT:      -9.2      2.770      3.604
REMARK  Name = 
REMARK  7 active torsions:
REMARK  status: ('A' for Active; 'I' for Inactive)
REMARK    1  A    between atoms: C_1  and  C_2
REMARK    2  A    between atoms: C_2  and  N_3
REMARK    3  A    between atoms: C_2  and  C_27
REMARK    4  A    between atoms: C_4  and  C_6
REMARK    5  A    between atoms: C_9  and  C_10
REMARK    6  A    between atoms: C_12  and  C_13
REMARK    7  A    between atoms: C_22  and  N_23
REMARK                            x       y       z     vdW  Elec       q    Type
REMARK                         _______ _______ _______ _____ _____    ______ ____
ROOT
ATOM      1  C   UNL     1       2.281   7.441  19.049  0.00  0.00    +0.000 A 
ATOM      2  C   UNL     1       2.315   8.242  17.906  0.00  0.00    +0.000 A 
ATOM      3  C   UNL     1       1.745   9.516  17.928  0.00  0.00    +0.000 A 
ATOM      4  C   UNL     1       1.086  10.019  19.066  0.00  0.00    +0.000 A 
ATOM      5  C   UNL     1       1.051   9.190  20.196  0.00  0.00    +0.000 A 
ATOM      6  C   UNL     1       1.649   7.931  20.189  0.00  0.00    +0.000 A 
ATOM      7  F   UNL     1       1.587   7.206  21.309  0.00  0.00    +0.000 F 
ENDROOT
BRANCH   4   8
ATOM      8  C   UNL     1       0.486  11.378  19.088  0.00  0.00    +0.000 A 
ATOM      9  C   UNL     1      -0.751  11.590  19.732  0.00  0.00    +0.000 A 
ATOM     10  C   UNL     1      -1.312  12.864  19.833  0.00  0.00    +0.000 A 
ATOM     11  C   UNL     1      -0.603  13.899  19.244  0.00  0.00    +0.000 A 
ATOM     12  N   UNL     1       0.561  13.748  18.580  0.00  0.00    +0.000 NA
ATOM     13  C   UNL     1       1.086  12.512  18.503  0.00  0.00    +0.000 A 
BRANCH  10  14
ATOM     14  C   UNL     1      -2.611  13.091  20.583  0.00  0.00    +0.000 C 
ATOM     15  C   UNL     1      -3.791  12.465  19.836  0.00  0.00    +0.000 C 
ATOM     16  C   UNL     1      -5.074  12.765  20.585  0.00  0.00    +0.000 C 
ATOM     17  N   UNL     1      -4.986  12.378  21.970  0.00  0.00    +0.000 N 
ATOM     18  C   UNL     1      -3.853  12.425  22.727  0.00  0.00    +0.000 C 
ATOM     19  O   UNL     1      -3.923  12.255  23.942  0.00  0.00    +0.000 OA
ATOM     20  C   UNL     1      -2.523  12.570  22.021  0.00  0.00    +0.000 C 
ATOM     21  H   UNL     1      -5.837  12.300  22.515  0.00  0.00    +0.000 HD
ENDBRANCH  10  14
BRANCH  13  22
ATOM     22  N   UNL     1       2.315  12.464  17.848  0.00  0.00    +0.000 N 
ATOM     23  H   UNL     1       2.977  11.976  18.439  0.00  0.00    +0.000 HD
ATOM     24  H   UNL     1       2.638  13.378  17.553  0.00  0.00    +0.000 HD
ENDBRANCH  13  22
ENDBRANCH   4   8
BRANCH   1  26
ATOM     25  N   UNL     1       2.780   5.383  17.847  0.00  0.00    +0.000 N 
ATOM     26  C   UNL     1       2.924   6.109  19.000  0.00  0.00    +0.000 C 
ATOM     27  O   UNL     1       3.543   5.692  19.978  0.00  0.00    +0.000 OA
ATOM     28  H   UNL     1       2.204   5.754  17.101  0.00  0.00    +0.000 HD
BRANCH  25  30
ATOM     29  C   UNL     1       3.454   3.297  18.979  0.00  0.00    +0.000 C 
ATOM     30  C   UNL     1       3.388   4.078  17.665  0.00  0.00    +0.000 C 
BRANCH  30  31
ATOM     31  C   UNL     1       4.765   4.247  17.056  0.00  0.00    +0.000 A 
ATOM     32  C   UNL     1       5.867   4.495  17.887  0.00  0.00    +0.000 A 
ATOM     33  C   UNL     1       7.154   4.579  17.351  0.00  0.00    +0.000 A 
ATOM     34  C   UNL     1       7.353   4.423  15.981  0.00  0.00    +0.000 A 
ATOM     35  C   UNL     1       6.262   4.203  15.145  0.00  0.00    +0.000 A 
ATOM     36 CL   UNL     1       6.504   4.008  13.453  0.00  0.00    +0.000 Cl
ATOM     37  C   UNL     1       4.975   4.119  15.671  0.00  0.00    +0.000 A 
ENDBRANCH  30  31
ENDBRANCH  25  30
ENDBRANCH   1  26
TORSDOF 6
ENDMDL
MODEL 7
REMARK VINA RESULT:      -9.1      3.800     10.511
REMARK  Name = 
REMARK  7 active torsions:
REMARK  status: ('A' for Active; 'I' for Inactive)
REMARK    1  A    between atoms: C_1  and  C_2
REMARK    2  A    between atoms: C_2  and  N_3
REMARK    3  A    between atoms: C_2  and  C_27
REMARK    4  A    between atoms: C_4  and  C_6
REMARK    5  A    between atoms: C_9  and  C_10
REMARK    6  A    between atoms: C_12  and  C_13
REMARK    7  A    between atoms: C_22  and  N_23
REMARK                            x       y       z     vdW  Elec       q    Type
REMARK                         _______ _______ _______ _____ _____    ______ ____
ROOT
ATOM      1  C   UNL     1       0.760   9.807  20.605  0.00  0.00    +0.000 A 
ATOM      2  C   UNL     1       0.927   8.787  21.545  0.00  0.00    +0.000 A 
ATOM      3  C   UNL     1       1.484   7.567  21.161  0.00  0.00    +0.000 A 
ATOM      4  C   UNL     1       1.851   7.300  19.828  0.00  0.00    +0.000 A 
ATOM      5  C   UNL     1       1.659   8.333  18.900  0.00  0.00    +0.000 A 
ATOM      6  C   UNL     1       1.135   9.566  19.286  0.00  0.00    +0.000 A 
ATOM      7  F   UNL     1       0.997  10.505  18.346  0.00  0.00    +0.000 F 
ENDROOT
BRANCH   4   8
ATOM      8  C   UNL     1       2.449   6.002  19.424  0.00  0.00    +0.000 A 
ATOM      9  C   UNL     1       3.627   5.982  18.648  0.00  0.00    +0.000 A 
ATOM     10  C   UNL     1       4.257   4.785  18.307  0.00  0.00    +0.000 A 
ATOM     11  C   UNL     1       3.648   3.620  18.749  0.00  0.00    +0.000 A 
ATOM     12  N   UNL     1       2.501   3.578  19.457  0.00  0.00    +0.000 NA
ATOM     13  C   UNL     1       1.918   4.746  19.780  0.00  0.00    +0.000 A 
BRANCH  10  14
ATOM     14  C   UNL     1       5.557   4.776  17.526  0.00  0.00    +0.000 C 
ATOM     15  C   UNL     1       5.331   4.286  16.093  0.00  0.00    +0.000 C 
ATOM     16  C   UNL     1       6.659   4.236  15.366  0.00  0.00    +0.000 C 
ATOM     17  N   UNL     1       7.362   5.491  15.452  0.00  0.00    +0.000 N 
ATOM     18  C   UNL     1       7.320   6.342  16.516  0.00  0.00    +0.000 C 
ATOM     19  O   UNL     1       8.101   7.289  16.571  0.00  0.00    +0.000 OA
ATOM     20  C   UNL     1       6.227   6.154  17.544  0.00  0.00    +0.000 C 
ATOM     21  H   UNL     1       8.135   5.668  14.819  0.00  0.00    +0.000 HD
ENDBRANCH  10  14
BRANCH  13  22
ATOM     22  N   UNL     1       0.770   4.604  20.559  0.00  0.00    +0.000 N 
ATOM     23  H   UNL     1       0.692   3.634  20.845  0.00  0.00    +0.000 HD
ATOM     24  H   UNL     1      -0.061   4.955  20.099  0.00  0.00    +0.000 HD
ENDBRANCH  13  22
ENDBRANCH   4   8
BRANCH   1  26
ATOM     25  N   UNL     1      -1.166  11.238  21.022  0.00  0.00    +0.000 N 
ATOM     26  C   UNL     1       0.197  11.100  21.054  0.00  0.00    +0.000 C 
ATOM     27  O   UNL     1       0.951  12.001  21.420  0.00  0.00    +0.000 OA
ATOM     28  H   UNL     1      -1.728  10.482  20.649  0.00  0.00    +0.000 HD
BRANCH  25  30
ATOM     29  C   UNL     1      -2.019  12.464  22.985  0.00  0.00    +0.000 C 
ATOM     30  C   UNL     1      -1.839  12.444  21.466  0.00  0.00    +0.000 C 
BRANCH  30  31
ATOM     31  C   UNL     1      -3.170  12.567  20.752  0.00  0.00    +0.000 A 
ATOM     32  C   UNL     1      -4.236  13.228  21.379  0.00  0.00    +0.000 A 
ATOM     33  C   UNL     1      -5.446  13.417  20.707  0.00  0.00    +0.000 A 
ATOM     34  C   UNL     1      -5.606  12.942  19.407  0.00  0.00    +0.000 A 
ATOM     35  C   UNL     1      -4.563  12.262  18.787  0.00  0.00    +0.000 A 
ATOM     36 CL   UNL     1      -4.755  11.676  17.181  0.00  0.00    +0.000 Cl
ATOM     37  C   UNL     1      -3.352  12.068  19.450  0.00  0.00    +0.000 A 
ENDBRANCH  30  31
ENDBRANCH  25  30
ENDBRANCH   1  26
TORSDOF 6
ENDMDL
MODEL 8
REMARK VINA RESULT:      -9.1      3.670     10.400
REMARK  Name = 
REMARK  7 active torsions:
REMARK  status: ('A' for Active; 'I' for Inactive)
REMARK    1  A    between atoms: C_1  and  C_2
REMARK    2  A    between atoms: C_2  and  N_3
REMARK    3  A    between atoms: C_2  and  C_27
REMARK    4  A    between atoms: C_4  and  C_6
REMARK    5  A    between atoms: C_9  and  C_10
REMARK    6  A    between atoms: C_12  and  C_13
REMARK    7  A    between atoms: C_22  and  N_23
REMARK                            x       y       z     vdW  Elec       q    Type
REMARK                         _______ _______ _______ _____ _____    ______ ____
ROOT
ATOM      1  C   UNL     1       0.803   9.776  20.597  0.00  0.00    +0.000 A 
ATOM      2  C   UNL     1       1.158   9.557  19.263  0.00  0.00    +0.000 A 
ATOM      3  C   UNL     1       1.686   8.326  18.874  0.00  0.00    +0.000 A 
ATOM      4  C   UNL     1       1.922   7.289  19.796  0.00  0.00    +0.000 A 
ATOM      5  C   UNL     1       1.573   7.538  21.131  0.00  0.00    +0.000 A 
ATOM      6  C   UNL     1       1.013   8.754  21.519  0.00  0.00    +0.000 A 
ATOM      7  F   UNL     1       0.693   8.910  22.806  0.00  0.00    +0.000 F 
ENDROOT
BRANCH   4   8
ATOM      8  C   UNL     1       2.479   5.978  19.377  0.00  0.00    +0.000 A 
ATOM      9  C   UNL     1       3.638   5.930  18.574  0.00  0.00    +0.000 A 
ATOM     10  C   UNL     1       4.230   4.718  18.216  0.00  0.00    +0.000 A 
ATOM     11  C   UNL     1       3.602   3.568  18.669  0.00  0.00    +0.000 A 
ATOM     12  N   UNL     1       2.471   3.553  19.404  0.00  0.00    +0.000 NA
ATOM     13  C   UNL     1       1.924   4.734  19.742  0.00  0.00    +0.000 A 
BRANCH  10  14
ATOM     14  C   UNL     1       5.511   4.679  17.406  0.00  0.00    +0.000 C 
ATOM     15  C   UNL     1       5.234   4.246  15.964  0.00  0.00    +0.000 C 
ATOM     16  C   UNL     1       6.543   4.162  15.206  0.00  0.00    +0.000 C 
ATOM     17  N   UNL     1       7.302   5.383  15.315  0.00  0.00    +0.000 N 
ATOM     18  C   UNL     1       7.320   6.200  16.407  0.00  0.00    +0.000 C 
ATOM     19  O   UNL     1       8.142   7.111  16.474  0.00  0.00    +0.000 OA
ATOM     20  C   UNL     1       6.241   6.025  17.452  0.00  0.00    +0.000 C 
ATOM     21  H   UNL     1       8.067   5.547  14.671  0.00  0.00    +0.000 HD
ENDBRANCH  10  14
BRANCH  13  22
ATOM     22  N   UNL     1       0.792   4.619  20.547  0.00  0.00    +0.000 N 
ATOM     23  H   UNL     1       0.966   3.911  21.251  0.00  0.00    +0.000 HD
ATOM     24  H   UNL     1      -0.053   4.454  20.012  0.00  0.00    +0.000 HD
ENDBRANCH  13  22
ENDBRANCH   4   8
BRANCH   1  26
ATOM     25  N   UNL     1      -1.146  11.208  20.874  0.00  0.00    +0.000 N 
ATOM     26  C   UNL     1       0.215  11.082  20.968  0.00  0.00    +0.000 C 
ATOM     27  O   UNL     1       0.948  12.003  21.327  0.00  0.00    +0.000 OA
ATOM     28  H   UNL     1      -1.688  10.433  20.511  0.00  0.00    +0.000 HD
BRANCH  25  30
ATOM     29  C   UNL     1      -2.041  12.534  22.753  0.00  0.00    +0.000 C 
ATOM     30  C   UNL     1      -1.844  12.427  21.239  0.00  0.00    +0.000 C 
BRANCH  30  31
ATOM     31  C   UNL     1      -3.170  12.484  20.507  0.00  0.00    +0.000 A 
ATOM     32  C   UNL     1      -4.270  13.110  21.110  0.00  0.00    +0.000 A 
ATOM     33  C   UNL     1      -5.478  13.238  20.421  0.00  0.00    +0.000 A 
ATOM     34  C   UNL     1      -5.601  12.738  19.126  0.00  0.00    +0.000 A 
ATOM     35  C   UNL     1      -4.522  12.093  18.529  0.00  0.00    +0.000 A 
ATOM     36 CL   UNL     1      -4.669  11.477  16.929  0.00  0.00    +0.000 Cl
ATOM     37  C   UNL     1      -3.314  11.960  19.210  0.00  0.00    +0.000 A 
ENDBRANCH  30  31
ENDBRANCH  25  30
ENDBRANCH   1  26
TORSDOF 6
ENDMDL
MODEL 9
REMARK VINA RESULT:      -9.1      0.794      1.178
REMARK  Name = 
REMARK  7 active torsions:
REMARK  status: ('A' for Active; 'I' for Inactive)
REMARK    1  A    between atoms: C_1  and  C_2
REMARK    2  A    between atoms: C_2  and  N_3
REMARK    3  A    between atoms: C_2  and  C_27
REMARK    4  A    between atoms: C_4  and  C_6
REMARK    5  A    between atoms: C_9  and  C_10
REMARK    6  A    between atoms: C_12  and  C_13
REMARK    7  A    between atoms: C_22  and  N_23
REMARK                            x       y       z     vdW  Elec       q    Type
REMARK                         _______ _______ _______ _____ _____    ______ ____
ROOT
ATOM      1  C   UNL     1       3.621   6.190  18.446  0.00  0.00    +0.000 A 
ATOM      2  C   UNL     1       3.439   7.234  17.535  0.00  0.00    +0.000 A 
ATOM      3  C   UNL     1       2.504   8.236  17.798  0.00  0.00    +0.000 A 
ATOM      4  C   UNL     1       1.688   8.213  18.946  0.00  0.00    +0.000 A 
ATOM      5  C   UNL     1       1.879   7.147  19.837  0.00  0.00    +0.000 A 
ATOM      6  C   UNL     1       2.836   6.163  19.595  0.00  0.00    +0.000 A 
ATOM      7  F   UNL     1       2.968   5.188  20.498  0.00  0.00    +0.000 F 
ENDROOT
BRANCH   4   8
ATOM      8  C   UNL     1       0.699   9.284  19.226  0.00  0.00    +0.000 A 
ATOM      9  C   UNL     1      -0.445   9.416  18.409  0.00  0.00    +0.000 A 
ATOM     10  C   UNL     1      -1.430  10.366  18.681  0.00  0.00    +0.000 A 
ATOM     11  C   UNL     1      -1.211  11.186  19.777  0.00  0.00    +0.000 A 
ATOM     12  N   UNL     1      -0.119  11.132  20.566  0.00  0.00    +0.000 NA
ATOM     13  C   UNL     1       0.813  10.204  20.289  0.00  0.00    +0.000 A 
BRANCH  10  14
ATOM     14  C   UNL     1      -2.686  10.457  17.835  0.00  0.00    +0.000 C 
ATOM     15  C   UNL     1      -3.492  11.710  18.187  0.00  0.00    +0.000 C 
ATOM     16  C   UNL     1      -4.765  11.734  17.365  0.00  0.00    +0.000 C 
ATOM     17  N   UNL     1      -4.493  11.589  15.957  0.00  0.00    +0.000 N 
ATOM     18  C   UNL     1      -3.478  10.849  15.426  0.00  0.00    +0.000 C 
ATOM     19  O   UNL     1      -3.446  10.635  14.216  0.00  0.00    +0.000 OA
ATOM     20  C   UNL     1      -2.355  10.410  16.340  0.00  0.00    +0.000 C 
ATOM     21  H   UNL     1      -5.217  11.826  15.288  0.00  0.00    +0.000 HD
ENDBRANCH  10  14
BRANCH  13  22
ATOM     22  N   UNL     1       1.876  10.187  21.191  0.00  0.00    +0.000 N 
ATOM     23  H   UNL     1       2.148   9.224  21.352  0.00  0.00    +0.000 HD
ATOM     24  H   UNL     1       1.674  10.696  22.043  0.00  0.00    +0.000 HD
ENDBRANCH  13  22
ENDBRANCH   4   8
BRANCH   1  26
ATOM     25  N   UNL     1       5.313   5.265  16.958  0.00  0.00    +0.000 N 
ATOM     26  C   UNL     1       4.645   5.163  18.151  0.00  0.00    +0.000 C 
ATOM     27  O   UNL     1       4.853   4.257  18.957  0.00  0.00    +0.000 OA
ATOM     28  H   UNL     1       5.051   5.997  16.309  0.00  0.00    +0.000 HD
BRANCH  25  30
ATOM     29  C   UNL     1       7.663   4.609  17.322  0.00  0.00    +0.000 C 
ATOM     30  C   UNL     1       6.359   4.339  16.568  0.00  0.00    +0.000 C 
BRANCH  30  31
ATOM     31  C   UNL     1       6.564   4.416  15.069  0.00  0.00    +0.000 A 
ATOM     32  C   UNL     1       7.579   5.232  14.548  0.00  0.00    +0.000 A 
ATOM     33  C   UNL     1       7.832   5.258  13.174  0.00  0.00    +0.000 A 
ATOM     34  C   UNL     1       7.070   4.476  12.308  0.00  0.00    +0.000 A 
ATOM     35  C   UNL     1       6.044   3.684  12.813  0.00  0.00    +0.000 A 
ATOM     36 CL   UNL     1       5.104   2.716  11.747  0.00  0.00    +0.000 Cl
ATOM     37  C   UNL     1       5.785   3.653  14.182  0.00  0.00    +0.000 A 
ENDBRANCH  30  31
ENDBRANCH  25  30
ENDBRANCH   1  26
TORSDOF 6
ENDMDL
