MODEL 1
REMARK VINA RESULT:      -6.1      0.000      0.000
REMARK  Name = 
REMARK  3 active torsions:
REMARK  status: ('A' for Active; 'I' for Inactive)
REMARK    1  A    between atoms: C_2  and  C_3
REMARK    2  A    between atoms: C_3  and  C_4
REMARK    3  A    between atoms: C_3  and  N_10
REMARK                            x       y       z     vdW  Elec       q    Type
REMARK                         _______ _______ _______ _____ _____    ______ ____
ROOT
ATOM      1  C   UNL     1       3.734   5.967  18.379  0.00  0.00    +0.000 C 
ENDROOT
BRANCH   1   2
ATOM      2  C   UNL     1       2.716   4.918  18.903  0.00  0.00    +0.000 A 
ATOM      3  C   UNL     1       2.035   4.026  18.036  0.00  0.00    +0.000 A 
ATOM      4  C   UNL     1       1.087   3.119  18.508  0.00  0.00    +0.000 A 
ATOM      5  C   UNL     1       0.792   3.073  19.862  0.00  0.00    +0.000 A 
ATOM      6  C   UNL     1       1.446   3.935  20.741  0.00  0.00    +0.000 A 
ATOM      7  C   UNL     1       2.399   4.851  20.268  0.00  0.00    +0.000 A 
ENDBRANCH   1   2
BRANCH   1   8
ATOM      8  N   UNL     1       4.587   5.482  17.264  0.00  0.00    +0.000 NA
ATOM      9  C   UNL     1       5.564   4.446  17.681  0.00  0.00    +0.000 C 
ATOM     10  C   UNL     1       6.924   4.967  18.190  0.00  0.00    +0.000 C 
ATOM     11  O   UNL     1       7.514   5.866  17.248  0.00  0.00    +0.000 OA
ATOM     12  C   UNL     1       6.649   6.980  17.004  0.00  0.00    +0.000 C 
ATOM     13  C   UNL     1       5.282   6.517  16.469  0.00  0.00    +0.000 C 
ENDBRANCH   1   8
BRANCH   1  15
ATOM     14  N   UNL     1       2.356   8.317  17.824  0.00  0.00    +0.000 NA
ATOM     15  C   UNL     1       2.981   7.252  18.076  0.00  0.00    +0.000 C 
ENDBRANCH   1  15
TORSDOF 3
ENDMDL
MODEL 2
REMARK VINA RESULT:      -6.1      0.100      1.246
REMARK  Name = 
REMARK  3 active torsions:
REMARK  status: ('A' for Active; 'I' for Inactive)
REMARK    1  A    between atoms: C_2  and  C_3
REMARK    2  A    between atoms: C_3  and  C_4
REMARK    3  A    between atoms: C_3  and  N_10
REMARK                            x       y       z     vdW  Elec       q    Type
REMARK                         _______ _______ _______ _____ _____    ______ ____
ROOT
ATOM      1  C   UNL     1       3.767   6.007  18.402  0.00  0.00    +0.000 C 
ENDROOT
BRANCH   1   2
ATOM      2  C   UNL     1       2.706   4.996  18.916  0.00  0.00    +0.000 A 
ATOM      3  C   UNL     1       2.370   4.883  20.289  0.00  0.00    +0.000 A 
ATOM      4  C   UNL     1       1.452   3.941  20.749  0.00  0.00    +0.000 A 
ATOM      5  C   UNL     1       0.837   3.083  19.850  0.00  0.00    +0.000 A 
ATOM      6  C   UNL     1       1.144   3.169  18.493  0.00  0.00    +0.000 A 
ATOM      7  C   UNL     1       2.070   4.116  18.027  0.00  0.00    +0.000 A 
ENDBRANCH   1   2
BRANCH   1   8
ATOM      8  N   UNL     1       4.647   5.473  17.330  0.00  0.00    +0.000 NA
ATOM      9  C   UNL     1       5.646   4.495  17.824  0.00  0.00    +0.000 C 
ATOM     10  C   UNL     1       6.986   5.085  18.311  0.00  0.00    +0.000 C 
ATOM     11  O   UNL     1       7.562   5.936  17.318  0.00  0.00    +0.000 OA
ATOM     12  C   UNL     1       6.670   7.007  16.993  0.00  0.00    +0.000 C 
ATOM     13  C   UNL     1       5.322   6.473  16.476  0.00  0.00    +0.000 C 
ENDBRANCH   1   8
BRANCH   1  15
ATOM     14  N   UNL     1       2.469   8.375  17.742  0.00  0.00    +0.000 NA
ATOM     15  C   UNL     1       3.057   7.302  18.041  0.00  0.00    +0.000 C 
ENDBRANCH   1  15
TORSDOF 3
ENDMDL
MODEL 3
REMARK VINA RESULT:      -6.1      1.658      2.461
REMARK  Name = 
REMARK  3 active torsions:
REMARK  status: ('A' for Active; 'I' for Inactive)
REMARK    1  A    between atoms: C_2  and  C_3
REMARK    2  A    between atoms: C_3  and  C_4
REMARK    3  A    between atoms: C_3  and  N_10
REMARK                            x       y       z     vdW  Elec       q    Type
REMARK                         _______ _______ _______ _____ _____    ______ ____
ROOT
ATOM      1  C   UNL     1       4.643   4.102  18.133  0.00  0.00    +0.000 C 
ENDROOT
BRANCH   1   2
ATOM      2  C   UNL     1       3.294   4.090  18.903  0.00  0.00    +0.000 A 
ATOM      3  C   UNL     1       3.014   5.003  19.951  0.00  0.00    +0.000 A 
ATOM      4  C   UNL     1       1.821   4.956  20.670  0.00  0.00    +0.000 A 
ATOM      5  C   UNL     1       0.868   3.996  20.362  0.00  0.00    +0.000 A 
ATOM      6  C   UNL     1       1.113   3.085  19.335  0.00  0.00    +0.000 A 
ATOM      7  C   UNL     1       2.315   3.129  18.611  0.00  0.00    +0.000 A 
ENDBRANCH   1   2
BRANCH   1   8
ATOM      8  N   UNL     1       4.572   4.742  16.794  0.00  0.00    +0.000 NA
ATOM      9  C   UNL     1       5.448   4.094  15.787  0.00  0.00    +0.000 C 
ATOM     10  C   UNL     1       6.895   4.623  15.709  0.00  0.00    +0.000 C 
ATOM     11  O   UNL     1       6.913   6.044  15.553  0.00  0.00    +0.000 OA
ATOM     12  C   UNL     1       6.240   6.680  16.644  0.00  0.00    +0.000 C 
ATOM     13  C   UNL     1       4.780   6.205  16.753  0.00  0.00    +0.000 C 
ENDBRANCH   1   8
BRANCH   1  15
ATOM     14  N   UNL     1       6.593   5.165  19.806  0.00  0.00    +0.000 NA
ATOM     15  C   UNL     1       5.709   4.683  19.047  0.00  0.00    +0.000 C 
ENDBRANCH   1  15
TORSDOF 3
ENDMDL
MODEL 4
REMARK VINA RESULT:      -6.1      1.673      2.216
REMARK  Name = 
REMARK  3 active torsions:
REMARK  status: ('A' for Active; 'I' for Inactive)
REMARK    1  A    between atoms: C_2  and  C_3
REMARK    2  A    between atoms: C_3  and  C_4
REMARK    3  A    between atoms: C_3  and  N_10
REMARK                            x       y       z     vdW  Elec       q    Type
REMARK                         _______ _______ _______ _____ _____    ______ ____
ROOT
ATOM      1  C   UNL     1       4.708   4.093  18.202  0.00  0.00    +0.000 C 
ENDROOT
BRANCH   1   2
ATOM      2  C   UNL     1       3.378   4.057  19.004  0.00  0.00    +0.000 A 
ATOM      3  C   UNL     1       2.394   3.057  18.793  0.00  0.00    +0.000 A 
ATOM      4  C   UNL     1       1.183   3.058  19.482  0.00  0.00    +0.000 A 
ATOM      5  C   UNL     1       0.917   4.056  20.407  0.00  0.00    +0.000 A 
ATOM      6  C   UNL     1       1.864   5.052  20.639  0.00  0.00    +0.000 A 
ATOM      7  C   UNL     1       3.085   5.055  19.945  0.00  0.00    +0.000 A 
ENDBRANCH   1   2
BRANCH   1   8
ATOM      8  N   UNL     1       4.587   4.703  16.853  0.00  0.00    +0.000 NA
ATOM      9  C   UNL     1       5.458   4.062  15.839  0.00  0.00    +0.000 C 
ATOM     10  C   UNL     1       6.887   4.633  15.717  0.00  0.00    +0.000 C 
ATOM     11  O   UNL     1       6.858   6.050  15.533  0.00  0.00    +0.000 OA
ATOM     12  C   UNL     1       6.191   6.687  16.628  0.00  0.00    +0.000 C 
ATOM     13  C   UNL     1       4.749   6.171  16.779  0.00  0.00    +0.000 C 
ENDBRANCH   1   8
BRANCH   1  15
ATOM     14  N   UNL     1       6.663   5.246  19.808  0.00  0.00    +0.000 NA
ATOM     15  C   UNL     1       5.777   4.723  19.080  0.00  0.00    +0.000 C 
ENDBRANCH   1  15
TORSDOF 3
ENDMDL
MODEL 5
REMARK VINA RESULT:      -6.0      2.718      5.373
REMARK  Name = 
REMARK  3 active torsions:
REMARK  status: ('A' for Active; 'I' for Inactive)
REMARK    1  A    between atoms: C_2  and  C_3
REMARK    2  A    between atoms: C_3  and  C_4
REMARK    3  A    between atoms: C_3  and  N_10
REMARK                            x       y       z     vdW  Elec       q    Type
REMARK                         _______ _______ _______ _____ _____    ______ ____
ROOT
ATOM      1  C   UNL     1       3.923   4.764  19.046  0.00  0.00    +0.000 C 
ENDROOT
BRANCH   1   2
ATOM      2  C   UNL     1       4.498   4.985  17.620  0.00  0.00    +0.000 A 
ATOM      3  C   UNL     1       4.964   3.913  16.817  0.00  0.00    +0.000 A 
ATOM      4  C   UNL     1       5.523   4.122  15.558  0.00  0.00    +0.000 A 
ATOM      5  C   UNL     1       5.632   5.412  15.059  0.00  0.00    +0.000 A 
ATOM      6  C   UNL     1       5.182   6.488  15.822  0.00  0.00    +0.000 A 
ATOM      7  C   UNL     1       4.620   6.279  17.092  0.00  0.00    +0.000 A 
ENDBRANCH   1   2
BRANCH   1   8
ATOM      8  N   UNL     1       2.459   4.992  19.152  0.00  0.00    +0.000 NA
ATOM      9  C   UNL     1       1.959   4.951  20.547  0.00  0.00    +0.000 C 
ATOM     10  C   UNL     1       1.548   3.561  21.077  0.00  0.00    +0.000 C 
ATOM     11  O   UNL     1       0.622   2.928  20.191  0.00  0.00    +0.000 OA
ATOM     12  C   UNL     1       1.193   2.782  18.886  0.00  0.00    +0.000 C 
ATOM     13  C   UNL     1       1.599   4.145  18.299  0.00  0.00    +0.000 C 
ENDBRANCH   1   8
BRANCH   1  15
ATOM     14  N   UNL     1       4.760   2.271  19.946  0.00  0.00    +0.000 NA
ATOM     15  C   UNL     1       4.381   3.401  19.538  0.00  0.00    +0.000 C 
ENDBRANCH   1  15
TORSDOF 3
ENDMDL
MODEL 6
REMARK VINA RESULT:      -6.0      2.713      5.421
REMARK  Name = 
REMARK  3 active torsions:
REMARK  status: ('A' for Active; 'I' for Inactive)
REMARK    1  A    between atoms: C_2  and  C_3
REMARK    2  A    between atoms: C_3  and  C_4
REMARK    3  A    between atoms: C_3  and  N_10
REMARK                            x       y       z     vdW  Elec       q    Type
REMARK                         _______ _______ _______ _____ _____    ______ ____
ROOT
ATOM      1  C   UNL     1       3.849   4.766  19.074  0.00  0.00    +0.000 C 
ENDROOT
BRANCH   1   2
ATOM      2  C   UNL     1       4.500   5.016  17.686  0.00  0.00    +0.000 A 
ATOM      3  C   UNL     1       4.599   6.312  17.118  0.00  0.00    +0.000 A 
ATOM      4  C   UNL     1       5.141   6.523  15.852  0.00  0.00    +0.000 A 
ATOM      5  C   UNL     1       5.605   5.446  15.112  0.00  0.00    +0.000 A 
ATOM      6  C   UNL     1       5.524   4.159  15.643  0.00  0.00    +0.000 A 
ATOM      7  C   UNL     1       4.976   3.943  16.918  0.00  0.00    +0.000 A 
ENDBRANCH   1   2
BRANCH   1   8
ATOM      8  N   UNL     1       2.377   4.965  19.098  0.00  0.00    +0.000 NA
ATOM      9  C   UNL     1       1.787   4.812  20.450  0.00  0.00    +0.000 C 
ATOM     10  C   UNL     1       1.370   3.381  20.847  0.00  0.00    +0.000 C 
ATOM     11  O   UNL     1       0.517   2.802  19.857  0.00  0.00    +0.000 OA
ATOM     12  C   UNL     1       1.174   2.762  18.586  0.00  0.00    +0.000 C 
ATOM     13  C   UNL     1       1.591   4.172  18.129  0.00  0.00    +0.000 C 
ENDBRANCH   1   8
BRANCH   1  15
ATOM     14  N   UNL     1       4.684   2.279  19.993  0.00  0.00    +0.000 NA
ATOM     15  C   UNL     1       4.305   3.407  19.576  0.00  0.00    +0.000 C 
ENDBRANCH   1  15
TORSDOF 3
ENDMDL
MODEL 7
REMARK VINA RESULT:      -6.0      1.978      2.584
REMARK  Name = 
REMARK  3 active torsions:
REMARK  status: ('A' for Active; 'I' for Inactive)
REMARK    1  A    between atoms: C_2  and  C_3
REMARK    2  A    between atoms: C_3  and  C_4
REMARK    3  A    between atoms: C_3  and  N_10
REMARK                            x       y       z     vdW  Elec       q    Type
REMARK                         _______ _______ _______ _____ _____    ______ ____
ROOT
ATOM      1  C   UNL     1       4.928   4.016  17.627  0.00  0.00    +0.000 C 
ENDROOT
BRANCH   1   2
ATOM      2  C   UNL     1       3.515   3.555  18.078  0.00  0.00    +0.000 A 
ATOM      3  C   UNL     1       3.297   2.317  18.735  0.00  0.00    +0.000 A 
ATOM      4  C   UNL     1       2.020   1.888  19.094  0.00  0.00    +0.000 A 
ATOM      5  C   UNL     1       0.921   2.683  18.809  0.00  0.00    +0.000 A 
ATOM      6  C   UNL     1       1.102   3.906  18.165  0.00  0.00    +0.000 A 
ATOM      7  C   UNL     1       2.387   4.341  17.801  0.00  0.00    +0.000 A 
ENDBRANCH   1   2
BRANCH   1   8
ATOM      8  N   UNL     1       4.924   4.935  16.461  0.00  0.00    +0.000 NA
ATOM      9  C   UNL     1       5.442   4.311  15.219  0.00  0.00    +0.000 C 
ATOM     10  C   UNL     1       6.966   4.409  14.999  0.00  0.00    +0.000 C 
ATOM     11  O   UNL     1       7.414   5.762  15.107  0.00  0.00    +0.000 OA
ATOM     12  C   UNL     1       7.092   6.298  16.395  0.00  0.00    +0.000 C 
ATOM     13  C   UNL     1       5.576   6.248  16.657  0.00  0.00    +0.000 C 
ENDBRANCH   1   8
BRANCH   1  15
ATOM     14  N   UNL     1       6.275   4.998  19.853  0.00  0.00    +0.000 NA
ATOM     15  C   UNL     1       5.664   4.553  18.844  0.00  0.00    +0.000 C 
ENDBRANCH   1  15
TORSDOF 3
ENDMDL
MODEL 8
REMARK VINA RESULT:      -6.0      1.995      2.568
REMARK  Name = 
REMARK  3 active torsions:
REMARK  status: ('A' for Active; 'I' for Inactive)
REMARK    1  A    between atoms: C_2  and  C_3
REMARK    2  A    between atoms: C_3  and  C_4
REMARK    3  A    between atoms: C_3  and  N_10
REMARK                            x       y       z     vdW  Elec       q    Type
REMARK                         _______ _______ _______ _____ _____    ______ ____
ROOT
ATOM      1  C   UNL     1       4.910   4.018  17.575  0.00  0.00    +0.000 C 
ENDROOT
BRANCH   1   2
ATOM      2  C   UNL     1       3.493   3.521  17.971  0.00  0.00    +0.000 A 
ATOM      3  C   UNL     1       2.336   4.326  17.807  0.00  0.00    +0.000 A 
ATOM      4  C   UNL     1       1.074   3.893  18.208  0.00  0.00    +0.000 A 
ATOM      5  C   UNL     1       0.926   2.640  18.784  0.00  0.00    +0.000 A 
ATOM      6  C   UNL     1       2.043   1.824  18.958  0.00  0.00    +0.000 A 
ATOM      7  C   UNL     1       3.317   2.259  18.556  0.00  0.00    +0.000 A 
ENDBRANCH   1   2
BRANCH   1   8
ATOM      8  N   UNL     1       4.925   4.962  16.428  0.00  0.00    +0.000 NA
ATOM      9  C   UNL     1       5.420   4.350  15.171  0.00  0.00    +0.000 C 
ATOM     10  C   UNL     1       6.945   4.412  14.944  0.00  0.00    +0.000 C 
ATOM     11  O   UNL     1       7.429   5.750  15.078  0.00  0.00    +0.000 OA
ATOM     12  C   UNL     1       7.127   6.268  16.378  0.00  0.00    +0.000 C 
ATOM     13  C   UNL     1       5.612   6.252  16.648  0.00  0.00    +0.000 C 
ENDBRANCH   1   8
BRANCH   1  15
ATOM     14  N   UNL     1       6.168   4.977  19.861  0.00  0.00    +0.000 NA
ATOM     15  C   UNL     1       5.598   4.542  18.825  0.00  0.00    +0.000 C 
ENDBRANCH   1  15
TORSDOF 3
ENDMDL
MODEL 9
REMARK VINA RESULT:      -6.0      2.438      5.161
REMARK  Name = 
REMARK  3 active torsions:
REMARK  status: ('A' for Active; 'I' for Inactive)
REMARK    1  A    between atoms: C_2  and  C_3
REMARK    2  A    between atoms: C_3  and  C_4
REMARK    3  A    between atoms: C_3  and  N_10
REMARK                            x       y       z     vdW  Elec       q    Type
REMARK                         _______ _______ _______ _____ _____    ______ ____
ROOT
ATOM      1  C   UNL     1       3.607   5.212  18.698  0.00  0.00    +0.000 C 
ENDROOT
BRANCH   1   2
ATOM      2  C   UNL     1       5.063   5.693  18.453  0.00  0.00    +0.000 A 
ATOM      3  C   UNL     1       6.141   5.295  19.285  0.00  0.00    +0.000 A 
ATOM      4  C   UNL     1       7.438   5.767  19.088  0.00  0.00    +0.000 A 
ATOM      5  C   UNL     1       7.699   6.651  18.052  0.00  0.00    +0.000 A 
ATOM      6  C   UNL     1       6.662   7.060  17.215  0.00  0.00    +0.000 A 
ATOM      7  C   UNL     1       5.354   6.587  17.412  0.00  0.00    +0.000 A 
ENDBRANCH   1   2
BRANCH   1   8
ATOM      8  N   UNL     1       3.507   3.917  19.418  0.00  0.00    +0.000 NA
ATOM      9  C   UNL     1       3.631   2.739  18.527  0.00  0.00    +0.000 C 
ATOM     10  C   UNL     1       2.318   2.226  17.898  0.00  0.00    +0.000 C 
ATOM     11  O   UNL     1       1.324   1.999  18.900  0.00  0.00    +0.000 OA
ATOM     12  C   UNL     1       1.057   3.202  19.628  0.00  0.00    +0.000 C 
ATOM     13  C   UNL     1       2.332   3.744  20.299  0.00  0.00    +0.000 C 
ENDBRANCH   1   8
BRANCH   1  15
ATOM     14  N   UNL     1       2.190   7.291  19.881  0.00  0.00    +0.000 NA
ATOM     15  C   UNL     1       2.832   6.349  19.345  0.00  0.00    +0.000 C 
ENDBRANCH   1  15
TORSDOF 3
ENDMDL
