MODEL 1
REMARK VINA RESULT:      -6.9      0.000      0.000
REMARK  Name = 
REMARK  15 active torsions:
REMARK  status: ('A' for Active; 'I' for Inactive)
REMARK    1  A    between atoms: C_1  and  C_2
REMARK    2  A    between atoms: C_2  and  C_3
REMARK    3  A    between atoms: C_3  and  C_4
REMARK    4  A    between atoms: C_4  and  C_5
REMARK    5  A    between atoms: C_5  and  C_6
REMARK    6  A    between atoms: C_6  and  C_7
REMARK    7  A    between atoms: C_7  and  C_8
REMARK    8  A    between atoms: C_8  and  C_9
REMARK    9  A    between atoms: C_9  and  C_10
REMARK   10  A    between atoms: C_10  and  C_11
REMARK   11  A    between atoms: C_11  and  N_12
REMARK   12  A    between atoms: C_13  and  C_15
REMARK   13  A    between atoms: C_16  and  C_17
REMARK   14  A    between atoms: C_20  and  O_21
REMARK   15  A    between atoms: C_22  and  O_23
REMARK                            x       y       z     vdW  Elec       q    Type
REMARK                         _______ _______ _______ _____ _____    ______ ____
ROOT
ATOM      1  N   UNL     1       7.600   6.167  18.555  0.00  0.00    +0.000 N 
ATOM      2  C   UNL     1       7.600   7.277  17.742  0.00  0.00    +0.000 C 
ATOM      3  O   UNL     1       6.994   7.353  16.681  0.00  0.00    +0.000 OA
ATOM      4  H   UNL     1       8.087   6.184  19.440  0.00  0.00    +0.000 HD
ENDROOT
BRANCH   2   5
ATOM      5  C   UNL     1       8.412   8.390  18.290  0.00  0.00    +0.000 C 
ATOM      6  C   UNL     1       8.207   9.645  17.858  0.00  0.00    +0.000 C 
BRANCH   6   7
ATOM      7  C   UNL     1       8.961  10.806  18.350  0.00  0.00    +0.000 A 
ATOM      8  C   UNL     1       9.828  10.637  19.444  0.00  0.00    +0.000 A 
ATOM      9  C   UNL     1      10.580  11.709  19.939  0.00  0.00    +0.000 A 
ATOM     10  C   UNL     1      10.469  12.951  19.330  0.00  0.00    +0.000 A 
ATOM     11  C   UNL     1       9.631  13.122  18.235  0.00  0.00    +0.000 A 
ATOM     12  C   UNL     1       8.884  12.064  17.736  0.00  0.00    +0.000 A 
BRANCH  10  13
ATOM     13  O   UNL     1      11.169  14.040  19.770  0.00  0.00    +0.000 OA
ATOM     14  H   UNL     1      11.950  14.137  19.199  0.00  0.00    +0.000 HD
ENDBRANCH  10  13
BRANCH  11  15
ATOM     15  O   UNL     1       9.533  14.345  17.631  0.00  0.00    +0.000 OA
ATOM     16  H   UNL     1      10.315  14.839  17.946  0.00  0.00    +0.000 HD
ENDBRANCH  11  15
ENDBRANCH   6   7
ENDBRANCH   2   5
BRANCH   1  17
ATOM     17  C   UNL     1       6.863   4.971  18.204  0.00  0.00    +0.000 C 
BRANCH  17  18
ATOM     18  C   UNL     1       5.488   4.931  18.868  0.00  0.00    +0.000 C 
BRANCH  18  19
ATOM     19  C   UNL     1       4.421   4.436  17.889  0.00  0.00    +0.000 C 
BRANCH  19  20
ATOM     20  C   UNL     1       3.966   3.020  18.236  0.00  0.00    +0.000 C 
BRANCH  20  21
ATOM     21  C   UNL     1       2.691   2.649  17.481  0.00  0.00    +0.000 C 
BRANCH  21  22
ATOM     22  C   UNL     1       1.493   2.602  18.425  0.00  0.00    +0.000 C 
BRANCH  22  23
ATOM     23  C   UNL     1       1.913   2.144  19.818  0.00  0.00    +0.000 C 
BRANCH  23  24
ATOM     24  C   UNL     1       1.172   2.930  20.896  0.00  0.00    +0.000 C 
BRANCH  24  25
ATOM     25  C   UNL     1       0.968   4.380  20.467  0.00  0.00    +0.000 C 
BRANCH  25  27
ATOM     26  C   UNL     1       2.186   6.509  19.940  0.00  0.00    +0.000 C 
ATOM     27  C   UNL     1       2.220   5.211  20.728  0.00  0.00    +0.000 C 
ENDBRANCH  25  27
ENDBRANCH  24  25
ENDBRANCH  23  24
ENDBRANCH  22  23
ENDBRANCH  21  22
ENDBRANCH  20  21
ENDBRANCH  19  20
ENDBRANCH  18  19
ENDBRANCH  17  18
ENDBRANCH   1  17
TORSDOF 14
ENDMDL
MODEL 2
REMARK VINA RESULT:      -6.9      1.340      2.551
REMARK  Name = 
REMARK  15 active torsions:
REMARK  status: ('A' for Active; 'I' for Inactive)
REMARK    1  A    between atoms: C_1  and  C_2
REMARK    2  A    between atoms: C_2  and  C_3
REMARK    3  A    between atoms: C_3  and  C_4
REMARK    4  A    between atoms: C_4  and  C_5
REMARK    5  A    between atoms: C_5  and  C_6
REMARK    6  A    between atoms: C_6  and  C_7
REMARK    7  A    between atoms: C_7  and  C_8
REMARK    8  A    between atoms: C_8  and  C_9
REMARK    9  A    between atoms: C_9  and  C_10
REMARK   10  A    between atoms: C_10  and  C_11
REMARK   11  A    between atoms: C_11  and  N_12
REMARK   12  A    between atoms: C_13  and  C_15
REMARK   13  A    between atoms: C_16  and  C_17
REMARK   14  A    between atoms: C_20  and  O_21
REMARK   15  A    between atoms: C_22  and  O_23
REMARK                            x       y       z     vdW  Elec       q    Type
REMARK                         _______ _______ _______ _____ _____    ______ ____
ROOT
ATOM      1  N   UNL     1       7.281   6.609  16.371  0.00  0.00    +0.000 N 
ATOM      2  C   UNL     1       7.557   7.024  17.653  0.00  0.00    +0.000 C 
ATOM      3  O   UNL     1       7.459   6.312  18.644  0.00  0.00    +0.000 OA
ATOM      4  H   UNL     1       7.423   7.235  15.590  0.00  0.00    +0.000 HD
ENDROOT
BRANCH   2   5
ATOM      5  C   UNL     1       7.996   8.439  17.716  0.00  0.00    +0.000 C 
ATOM      6  C   UNL     1       8.644   8.892  18.802  0.00  0.00    +0.000 C 
BRANCH   6   7
ATOM      7  C   UNL     1       9.119  10.275  18.946  0.00  0.00    +0.000 A 
ATOM      8  C   UNL     1       9.206  11.084  17.800  0.00  0.00    +0.000 A 
ATOM      9  C   UNL     1       9.638  12.412  17.888  0.00  0.00    +0.000 A 
ATOM     10  C   UNL     1       9.974  12.934  19.130  0.00  0.00    +0.000 A 
ATOM     11  C   UNL     1       9.869  12.147  20.271  0.00  0.00    +0.000 A 
ATOM     12  C   UNL     1       9.439  10.830  20.193  0.00  0.00    +0.000 A 
BRANCH  10  13
ATOM     13  O   UNL     1      10.410  14.220  19.283  0.00  0.00    +0.000 OA
ATOM     14  H   UNL     1       9.684  14.731  19.681  0.00  0.00    +0.000 HD
ENDBRANCH  10  13
BRANCH  11  15
ATOM     15  O   UNL     1      10.191  12.668  21.493  0.00  0.00    +0.000 OA
ATOM     16  H   UNL     1      10.411  13.603  21.314  0.00  0.00    +0.000 HD
ENDBRANCH  11  15
ENDBRANCH   6   7
ENDBRANCH   2   5
BRANCH   1  17
ATOM     17  C   UNL     1       6.842   5.258  16.090  0.00  0.00    +0.000 C 
BRANCH  17  18
ATOM     18  C   UNL     1       5.370   5.206  15.687  0.00  0.00    +0.000 C 
BRANCH  18  19
ATOM     19  C   UNL     1       4.488   4.826  16.879  0.00  0.00    +0.000 C 
BRANCH  19  20
ATOM     20  C   UNL     1       3.841   6.060  17.504  0.00  0.00    +0.000 C 
BRANCH  20  21
ATOM     21  C   UNL     1       2.518   5.707  18.180  0.00  0.00    +0.000 C 
BRANCH  21  22
ATOM     22  C   UNL     1       2.514   6.158  19.639  0.00  0.00    +0.000 C 
BRANCH  22  23
ATOM     23  C   UNL     1       2.377   4.966  20.580  0.00  0.00    +0.000 C 
BRANCH  23  24
ATOM     24  C   UNL     1       1.065   4.226  20.332  0.00  0.00    +0.000 C 
BRANCH  24  25
ATOM     25  C   UNL     1       1.309   2.727  20.181  0.00  0.00    +0.000 C 
BRANCH  25  27
ATOM     26  C   UNL     1       2.747   1.906  18.296  0.00  0.00    +0.000 C 
ATOM     27  C   UNL     1       1.346   2.322  18.711  0.00  0.00    +0.000 C 
ENDBRANCH  25  27
ENDBRANCH  24  25
ENDBRANCH  23  24
ENDBRANCH  22  23
ENDBRANCH  21  22
ENDBRANCH  20  21
ENDBRANCH  19  20
ENDBRANCH  18  19
ENDBRANCH  17  18
ENDBRANCH   1  17
TORSDOF 14
ENDMDL
MODEL 3
REMARK VINA RESULT:      -6.8      1.170      2.214
REMARK  Name = 
REMARK  15 active torsions:
REMARK  status: ('A' for Active; 'I' for Inactive)
REMARK    1  A    between atoms: C_1  and  C_2
REMARK    2  A    between atoms: C_2  and  C_3
REMARK    3  A    between atoms: C_3  and  C_4
REMARK    4  A    between atoms: C_4  and  C_5
REMARK    5  A    between atoms: C_5  and  C_6
REMARK    6  A    between atoms: C_6  and  C_7
REMARK    7  A    between atoms: C_7  and  C_8
REMARK    8  A    between atoms: C_8  and  C_9
REMARK    9  A    between atoms: C_9  and  C_10
REMARK   10  A    between atoms: C_10  and  C_11
REMARK   11  A    between atoms: C_11  and  N_12
REMARK   12  A    between atoms: C_13  and  C_15
REMARK   13  A    between atoms: C_16  and  C_17
REMARK   14  A    between atoms: C_20  and  O_21
REMARK   15  A    between atoms: C_22  and  O_23
REMARK                            x       y       z     vdW  Elec       q    Type
REMARK                         _______ _______ _______ _____ _____    ______ ____
ROOT
ATOM      1  N   UNL     1       7.130   7.010  16.920  0.00  0.00    +0.000 N 
ATOM      2  C   UNL     1       7.712   6.817  18.152  0.00  0.00    +0.000 C 
ATOM      3  O   UNL     1       7.660   5.768  18.781  0.00  0.00    +0.000 OA
ATOM      4  H   UNL     1       7.246   7.888  16.434  0.00  0.00    +0.000 HD
ENDROOT
BRANCH   2   5
ATOM      5  C   UNL     1       8.421   8.021  18.647  0.00  0.00    +0.000 C 
ATOM      6  C   UNL     1       8.236   9.204  18.039  0.00  0.00    +0.000 C 
BRANCH   6   7
ATOM      7  C   UNL     1       8.893  10.448  18.466  0.00  0.00    +0.000 A 
ATOM      8  C   UNL     1       9.635  10.447  19.660  0.00  0.00    +0.000 A 
ATOM      9  C   UNL     1      10.292  11.602  20.100  0.00  0.00    +0.000 A 
ATOM     10  C   UNL     1      10.211  12.758  19.336  0.00  0.00    +0.000 A 
ATOM     11  C   UNL     1       9.498  12.762  18.144  0.00  0.00    +0.000 A 
ATOM     12  C   UNL     1       8.847  11.620  17.699  0.00  0.00    +0.000 A 
BRANCH  10  13
ATOM     13  O   UNL     1      10.822  13.921  19.715  0.00  0.00    +0.000 OA
ATOM     14  H   UNL     1      11.780  13.802  19.595  0.00  0.00    +0.000 HD
ENDBRANCH  10  13
BRANCH  11  15
ATOM     15  O   UNL     1       9.430  13.900  17.390  0.00  0.00    +0.000 OA
ATOM     16  H   UNL     1       8.999  14.557  17.972  0.00  0.00    +0.000 HD
ENDBRANCH  11  15
ENDBRANCH   6   7
ENDBRANCH   2   5
BRANCH   1  17
ATOM     17  C   UNL     1       6.394   5.955  16.257  0.00  0.00    +0.000 C 
BRANCH  17  18
ATOM     18  C   UNL     1       4.887   6.199  16.291  0.00  0.00    +0.000 C 
BRANCH  18  19
ATOM     19  C   UNL     1       4.192   5.212  17.232  0.00  0.00    +0.000 C 
BRANCH  19  20
ATOM     20  C   UNL     1       3.977   5.823  18.615  0.00  0.00    +0.000 C 
BRANCH  20  21
ATOM     21  C   UNL     1       2.564   6.385  18.757  0.00  0.00    +0.000 C 
BRANCH  21  22
ATOM     22  C   UNL     1       2.050   6.210  20.183  0.00  0.00    +0.000 C 
BRANCH  22  23
ATOM     23  C   UNL     1       2.202   4.765  20.646  0.00  0.00    +0.000 C 
BRANCH  23  24
ATOM     24  C   UNL     1       0.960   3.949  20.297  0.00  0.00    +0.000 C 
BRANCH  24  25
ATOM     25  C   UNL     1       1.278   2.911  19.224  0.00  0.00    +0.000 C 
BRANCH  25  27
ATOM     26  C   UNL     1       3.224   1.780  18.118  0.00  0.00    +0.000 C 
ATOM     27  C   UNL     1       2.671   2.324  19.423  0.00  0.00    +0.000 C 
ENDBRANCH  25  27
ENDBRANCH  24  25
ENDBRANCH  23  24
ENDBRANCH  22  23
ENDBRANCH  21  22
ENDBRANCH  20  21
ENDBRANCH  19  20
ENDBRANCH  18  19
ENDBRANCH  17  18
ENDBRANCH   1  17
TORSDOF 14
ENDMDL
MODEL 4
REMARK VINA RESULT:      -6.8      1.110      1.238
REMARK  Name = 
REMARK  15 active torsions:
REMARK  status: ('A' for Active; 'I' for Inactive)
REMARK    1  A    between atoms: C_1  and  C_2
REMARK    2  A    between atoms: C_2  and  C_3
REMARK    3  A    between atoms: C_3  and  C_4
REMARK    4  A    between atoms: C_4  and  C_5
REMARK    5  A    between atoms: C_5  and  C_6
REMARK    6  A    between atoms: C_6  and  C_7
REMARK    7  A    between atoms: C_7  and  C_8
REMARK    8  A    between atoms: C_8  and  C_9
REMARK    9  A    between atoms: C_9  and  C_10
REMARK   10  A    between atoms: C_10  and  C_11
REMARK   11  A    between atoms: C_11  and  N_12
REMARK   12  A    between atoms: C_13  and  C_15
REMARK   13  A    between atoms: C_16  and  C_17
REMARK   14  A    between atoms: C_20  and  O_21
REMARK   15  A    between atoms: C_22  and  O_23
REMARK                            x       y       z     vdW  Elec       q    Type
REMARK                         _______ _______ _______ _____ _____    ______ ____
ROOT
ATOM      1  N   UNL     1       7.202   7.054  16.648  0.00  0.00    +0.000 N 
ATOM      2  C   UNL     1       7.793   7.436  17.830  0.00  0.00    +0.000 C 
ATOM      3  O   UNL     1       7.960   6.693  18.788  0.00  0.00    +0.000 OA
ATOM      4  H   UNL     1       7.133   7.705  15.879  0.00  0.00    +0.000 HD
ENDROOT
BRANCH   2   5
ATOM      5  C   UNL     1       8.218   8.856  17.826  0.00  0.00    +0.000 C 
ATOM      6  C   UNL     1       8.931   9.345  18.854  0.00  0.00    +0.000 C 
BRANCH   6   7
ATOM      7  C   UNL     1       9.398  10.736  18.929  0.00  0.00    +0.000 A 
ATOM      8  C   UNL     1      10.313  11.091  19.936  0.00  0.00    +0.000 A 
ATOM      9  C   UNL     1      10.799  12.399  20.040  0.00  0.00    +0.000 A 
ATOM     10  C   UNL     1      10.373  13.353  19.125  0.00  0.00    +0.000 A 
ATOM     11  C   UNL     1       9.485  13.006  18.113  0.00  0.00    +0.000 A 
ATOM     12  C   UNL     1       9.002  11.710  18.002  0.00  0.00    +0.000 A 
BRANCH  10  13
ATOM     13  O   UNL     1      10.803  14.649  19.176  0.00  0.00    +0.000 OA
ATOM     14  H   UNL     1      11.712  14.671  18.832  0.00  0.00    +0.000 HD
ENDBRANCH  10  13
BRANCH  11  15
ATOM     15  O   UNL     1       9.077  13.946  17.209  0.00  0.00    +0.000 OA
ATOM     16  H   UNL     1       8.964  14.762  17.734  0.00  0.00    +0.000 HD
ENDBRANCH  11  15
ENDBRANCH   6   7
ENDBRANCH   2   5
BRANCH   1  17
ATOM     17  C   UNL     1       6.720   5.704  16.444  0.00  0.00    +0.000 C 
BRANCH  17  18
ATOM     18  C   UNL     1       5.197   5.620  16.523  0.00  0.00    +0.000 C 
BRANCH  18  19
ATOM     19  C   UNL     1       4.757   4.683  17.650  0.00  0.00    +0.000 C 
BRANCH  19  20
ATOM     20  C   UNL     1       4.345   3.317  17.104  0.00  0.00    +0.000 C 
BRANCH  20  21
ATOM     21  C   UNL     1       3.557   2.522  18.144  0.00  0.00    +0.000 C 
BRANCH  21  22
ATOM     22  C   UNL     1       2.061   2.573  17.848  0.00  0.00    +0.000 C 
BRANCH  22  23
ATOM     23  C   UNL     1       1.255   1.978  18.998  0.00  0.00    +0.000 C 
BRANCH  23  24
ATOM     24  C   UNL     1       0.729   3.077  19.918  0.00  0.00    +0.000 C 
BRANCH  24  25
ATOM     25  C   UNL     1       1.513   3.110  21.227  0.00  0.00    +0.000 C 
BRANCH  25  27
ATOM     26  C   UNL     1       1.979   5.359  20.217  0.00  0.00    +0.000 C 
ATOM     27  C   UNL     1       2.251   4.434  21.392  0.00  0.00    +0.000 C 
ENDBRANCH  25  27
ENDBRANCH  24  25
ENDBRANCH  23  24
ENDBRANCH  22  23
ENDBRANCH  21  22
ENDBRANCH  20  21
ENDBRANCH  19  20
ENDBRANCH  18  19
ENDBRANCH  17  18
ENDBRANCH   1  17
TORSDOF 14
ENDMDL
MODEL 5
REMARK VINA RESULT:      -6.7      1.470      2.474
REMARK  Name = 
REMARK  15 active torsions:
REMARK  status: ('A' for Active; 'I' for Inactive)
REMARK    1  A    between atoms: C_1  and  C_2
REMARK    2  A    between atoms: C_2  and  C_3
REMARK    3  A    between atoms: C_3  and  C_4
REMARK    4  A    between atoms: C_4  and  C_5
REMARK    5  A    between atoms: C_5  and  C_6
REMARK    6  A    between atoms: C_6  and  C_7
REMARK    7  A    between atoms: C_7  and  C_8
REMARK    8  A    between atoms: C_8  and  C_9
REMARK    9  A    between atoms: C_9  and  C_10
REMARK   10  A    between atoms: C_10  and  C_11
REMARK   11  A    between atoms: C_11  and  N_12
REMARK   12  A    between atoms: C_13  and  C_15
REMARK   13  A    between atoms: C_16  and  C_17
REMARK   14  A    between atoms: C_20  and  O_21
REMARK   15  A    between atoms: C_22  and  O_23
REMARK                            x       y       z     vdW  Elec       q    Type
REMARK                         _______ _______ _______ _____ _____    ______ ____
ROOT
ATOM      1  N   UNL     1       7.429   6.599  16.633  0.00  0.00    +0.000 N 
ATOM      2  C   UNL     1       7.668   6.487  17.983  0.00  0.00    +0.000 C 
ATOM      3  O   UNL     1       7.490   5.464  18.632  0.00  0.00    +0.000 OA
ATOM      4  H   UNL     1       7.637   7.461  16.148  0.00  0.00    +0.000 HD
ENDROOT
BRANCH   2   5
ATOM      5  C   UNL     1       8.175   7.745  18.582  0.00  0.00    +0.000 C 
ATOM      6  C   UNL     1       8.240   8.862  17.839  0.00  0.00    +0.000 C 
BRANCH   6   7
ATOM      7  C   UNL     1       8.723  10.151  18.352  0.00  0.00    +0.000 A 
ATOM      8  C   UNL     1       8.500  11.311  17.589  0.00  0.00    +0.000 A 
ATOM      9  C   UNL     1       8.927  12.564  18.042  0.00  0.00    +0.000 A 
ATOM     10  C   UNL     1       9.571  12.657  19.269  0.00  0.00    +0.000 A 
ATOM     11  C   UNL     1       9.777  11.518  20.039  0.00  0.00    +0.000 A 
ATOM     12  C   UNL     1       9.354  10.273  19.598  0.00  0.00    +0.000 A 
BRANCH  10  13
ATOM     13  O   UNL     1      10.020  13.849  19.764  0.00  0.00    +0.000 OA
ATOM     14  H   UNL     1       9.511  14.042  20.570  0.00  0.00    +0.000 HD
ENDBRANCH  10  13
BRANCH  11  15
ATOM     15  O   UNL     1      10.403  11.615  21.251  0.00  0.00    +0.000 OA
ATOM     16  H   UNL     1       9.676  11.617  21.905  0.00  0.00    +0.000 HD
ENDBRANCH  11  15
ENDBRANCH   6   7
ENDBRANCH   2   5
BRANCH   1  17
ATOM     17  C   UNL     1       6.935   5.481  15.856  0.00  0.00    +0.000 C 
BRANCH  17  18
ATOM     18  C   UNL     1       5.409   5.446  15.809  0.00  0.00    +0.000 C 
BRANCH  18  19
ATOM     19  C   UNL     1       4.884   4.035  16.083  0.00  0.00    +0.000 C 
BRANCH  19  20
ATOM     20  C   UNL     1       4.146   3.969  17.420  0.00  0.00    +0.000 C 
BRANCH  20  21
ATOM     21  C   UNL     1       3.388   5.265  17.696  0.00  0.00    +0.000 C 
BRANCH  21  22
ATOM     22  C   UNL     1       3.622   5.737  19.129  0.00  0.00    +0.000 C 
BRANCH  22  23
ATOM     23  C   UNL     1       3.481   4.582  20.115  0.00  0.00    +0.000 C 
BRANCH  23  24
ATOM     24  C   UNL     1       2.255   4.771  21.004  0.00  0.00    +0.000 C 
BRANCH  24  25
ATOM     25  C   UNL     1       0.990   4.303  20.289  0.00  0.00    +0.000 C 
BRANCH  25  27
ATOM     26  C   UNL     1       0.925   2.381  18.678  0.00  0.00    +0.000 C 
ATOM     27  C   UNL     1       0.971   2.786  20.142  0.00  0.00    +0.000 C 
ENDBRANCH  25  27
ENDBRANCH  24  25
ENDBRANCH  23  24
ENDBRANCH  22  23
ENDBRANCH  21  22
ENDBRANCH  20  21
ENDBRANCH  19  20
ENDBRANCH  18  19
ENDBRANCH  17  18
ENDBRANCH   1  17
TORSDOF 14
ENDMDL
MODEL 6
REMARK VINA RESULT:      -6.6      1.332      2.086
REMARK  Name = 
REMARK  15 active torsions:
REMARK  status: ('A' for Active; 'I' for Inactive)
REMARK    1  A    between atoms: C_1  and  C_2
REMARK    2  A    between atoms: C_2  and  C_3
REMARK    3  A    between atoms: C_3  and  C_4
REMARK    4  A    between atoms: C_4  and  C_5
REMARK    5  A    between atoms: C_5  and  C_6
REMARK    6  A    between atoms: C_6  and  C_7
REMARK    7  A    between atoms: C_7  and  C_8
REMARK    8  A    between atoms: C_8  and  C_9
REMARK    9  A    between atoms: C_9  and  C_10
REMARK   10  A    between atoms: C_10  and  C_11
REMARK   11  A    between atoms: C_11  and  N_12
REMARK   12  A    between atoms: C_13  and  C_15
REMARK   13  A    between atoms: C_16  and  C_17
REMARK   14  A    between atoms: C_20  and  O_21
REMARK   15  A    between atoms: C_22  and  O_23
REMARK                            x       y       z     vdW  Elec       q    Type
REMARK                         _______ _______ _______ _____ _____    ______ ____
ROOT
ATOM      1  N   UNL     1       6.808   7.727  17.039  0.00  0.00    +0.000 N 
ATOM      2  C   UNL     1       7.847   7.913  17.923  0.00  0.00    +0.000 C 
ATOM      3  O   UNL     1       8.238   7.065  18.713  0.00  0.00    +0.000 OA
ATOM      4  H   UNL     1       6.562   8.454  16.382  0.00  0.00    +0.000 HD
ENDROOT
BRANCH   2   5
ATOM      5  C   UNL     1       8.455   9.261  17.817  0.00  0.00    +0.000 C 
ATOM      6  C   UNL     1       8.969   9.851  18.909  0.00  0.00    +0.000 C 
BRANCH   6   7
ATOM      7  C   UNL     1       9.595  11.181  18.895  0.00  0.00    +0.000 A 
ATOM      8  C   UNL     1      10.758  11.391  19.656  0.00  0.00    +0.000 A 
ATOM      9  C   UNL     1      11.400  12.634  19.662  0.00  0.00    +0.000 A 
ATOM     10  C   UNL     1      10.878  13.668  18.896  0.00  0.00    +0.000 A 
ATOM     11  C   UNL     1       9.741  13.463  18.123  0.00  0.00    +0.000 A 
ATOM     12  C   UNL     1       9.101  12.232  18.109  0.00  0.00    +0.000 A 
BRANCH  10  13
ATOM     13  O   UNL     1      11.452  14.908  18.865  0.00  0.00    +0.000 OA
ATOM     14  H   UNL     1      10.763  15.545  18.609  0.00  0.00    +0.000 HD
ENDBRANCH  10  13
BRANCH  11  15
ATOM     15  O   UNL     1       9.238  14.481  17.362  0.00  0.00    +0.000 OA
ATOM     16  H   UNL     1       8.697  15.009  17.982  0.00  0.00    +0.000 HD
ENDBRANCH  11  15
ENDBRANCH   6   7
ENDBRANCH   2   5
BRANCH   1  17
ATOM     17  C   UNL     1       6.082   6.476  16.977  0.00  0.00    +0.000 C 
BRANCH  17  18
ATOM     18  C   UNL     1       6.828   5.420  16.165  0.00  0.00    +0.000 C 
BRANCH  18  19
ATOM     19  C   UNL     1       6.081   4.084  16.184  0.00  0.00    +0.000 C 
BRANCH  19  20
ATOM     20  C   UNL     1       4.594   4.286  16.470  0.00  0.00    +0.000 C 
BRANCH  20  21
ATOM     21  C   UNL     1       4.105   3.324  17.550  0.00  0.00    +0.000 C 
BRANCH  21  22
ATOM     22  C   UNL     1       4.533   3.799  18.936  0.00  0.00    +0.000 C 
BRANCH  22  23
ATOM     23  C   UNL     1       3.751   5.040  19.355  0.00  0.00    +0.000 C 
BRANCH  23  24
ATOM     24  C   UNL     1       2.257   4.851  19.106  0.00  0.00    +0.000 C 
BRANCH  24  25
ATOM     25  C   UNL     1       1.534   4.481  20.398  0.00  0.00    +0.000 C 
BRANCH  25  27
ATOM     26  C   UNL     1       0.806   2.550  18.972  0.00  0.00    +0.000 C 
ATOM     27  C   UNL     1       1.101   3.019  20.387  0.00  0.00    +0.000 C 
ENDBRANCH  25  27
ENDBRANCH  24  25
ENDBRANCH  23  24
ENDBRANCH  22  23
ENDBRANCH  21  22
ENDBRANCH  20  21
ENDBRANCH  19  20
ENDBRANCH  18  19
ENDBRANCH  17  18
ENDBRANCH   1  17
TORSDOF 14
ENDMDL
MODEL 7
REMARK VINA RESULT:      -6.6      1.451      2.210
REMARK  Name = 
REMARK  15 active torsions:
REMARK  status: ('A' for Active; 'I' for Inactive)
REMARK    1  A    between atoms: C_1  and  C_2
REMARK    2  A    between atoms: C_2  and  C_3
REMARK    3  A    between atoms: C_3  and  C_4
REMARK    4  A    between atoms: C_4  and  C_5
REMARK    5  A    between atoms: C_5  and  C_6
REMARK    6  A    between atoms: C_6  and  C_7
REMARK    7  A    between atoms: C_7  and  C_8
REMARK    8  A    between atoms: C_8  and  C_9
REMARK    9  A    between atoms: C_9  and  C_10
REMARK   10  A    between atoms: C_10  and  C_11
REMARK   11  A    between atoms: C_11  and  N_12
REMARK   12  A    between atoms: C_13  and  C_15
REMARK   13  A    between atoms: C_16  and  C_17
REMARK   14  A    between atoms: C_20  and  O_21
REMARK   15  A    between atoms: C_22  and  O_23
REMARK                            x       y       z     vdW  Elec       q    Type
REMARK                         _______ _______ _______ _____ _____    ______ ____
ROOT
ATOM      1  N   UNL     1       7.352   6.699  16.432  0.00  0.00    +0.000 N 
ATOM      2  C   UNL     1       7.630   6.977  17.751  0.00  0.00    +0.000 C 
ATOM      3  O   UNL     1       7.689   6.133  18.635  0.00  0.00    +0.000 OA
ATOM      4  H   UNL     1       7.360   7.438  15.743  0.00  0.00    +0.000 HD
ENDROOT
BRANCH   2   5
ATOM      5  C   UNL     1       7.857   8.421  17.997  0.00  0.00    +0.000 C 
ATOM      6  C   UNL     1       8.871   8.815  18.786  0.00  0.00    +0.000 C 
BRANCH   6   7
ATOM      7  C   UNL     1       9.172  10.223  19.079  0.00  0.00    +0.000 A 
ATOM      8  C   UNL     1       9.207  11.144  18.017  0.00  0.00    +0.000 A 
ATOM      9  C   UNL     1       9.473  12.498  18.247  0.00  0.00    +0.000 A 
ATOM     10  C   UNL     1       9.697  12.933  19.546  0.00  0.00    +0.000 A 
ATOM     11  C   UNL     1       9.643  12.033  20.605  0.00  0.00    +0.000 A 
ATOM     12  C   UNL     1       9.376  10.689  20.385  0.00  0.00    +0.000 A 
BRANCH  10  13
ATOM     13  O   UNL     1       9.971  14.240  19.837  0.00  0.00    +0.000 OA
ATOM     14  H   UNL     1       9.173  14.758  19.637  0.00  0.00    +0.000 HD
ENDBRANCH  10  13
BRANCH  11  15
ATOM     15  O   UNL     1       9.853  12.467  21.884  0.00  0.00    +0.000 OA
ATOM     16  H   UNL     1      10.537  11.866  22.239  0.00  0.00    +0.000 HD
ENDBRANCH  11  15
ENDBRANCH   6   7
ENDBRANCH   2   5
BRANCH   1  17
ATOM     17  C   UNL     1       7.103   5.347  15.980  0.00  0.00    +0.000 C 
BRANCH  17  18
ATOM     18  C   UNL     1       5.624   5.100  15.695  0.00  0.00    +0.000 C 
BRANCH  18  19
ATOM     19  C   UNL     1       4.739   5.909  16.647  0.00  0.00    +0.000 C 
BRANCH  19  20
ATOM     20  C   UNL     1       4.096   5.011  17.702  0.00  0.00    +0.000 C 
BRANCH  20  21
ATOM     21  C   UNL     1       4.092   3.550  17.256  0.00  0.00    +0.000 C 
BRANCH  21  22
ATOM     22  C   UNL     1       3.109   2.730  18.087  0.00  0.00    +0.000 C 
BRANCH  22  23
ATOM     23  C   UNL     1       1.727   3.375  18.094  0.00  0.00    +0.000 C 
BRANCH  23  24
ATOM     24  C   UNL     1       0.921   2.921  19.308  0.00  0.00    +0.000 C 
BRANCH  24  25
ATOM     25  C   UNL     1       0.825   4.037  20.345  0.00  0.00    +0.000 C 
BRANCH  25  27
ATOM     26  C   UNL     1       2.426   2.618  21.655  0.00  0.00    +0.000 C 
ATOM     27  C   UNL     1       2.040   4.035  21.267  0.00  0.00    +0.000 C 
ENDBRANCH  25  27
ENDBRANCH  24  25
ENDBRANCH  23  24
ENDBRANCH  22  23
ENDBRANCH  21  22
ENDBRANCH  20  21
ENDBRANCH  19  20
ENDBRANCH  18  19
ENDBRANCH  17  18
ENDBRANCH   1  17
TORSDOF 14
ENDMDL
MODEL 8
REMARK VINA RESULT:      -6.6      1.327      2.119
REMARK  Name = 
REMARK  15 active torsions:
REMARK  status: ('A' for Active; 'I' for Inactive)
REMARK    1  A    between atoms: C_1  and  C_2
REMARK    2  A    between atoms: C_2  and  C_3
REMARK    3  A    between atoms: C_3  and  C_4
REMARK    4  A    between atoms: C_4  and  C_5
REMARK    5  A    between atoms: C_5  and  C_6
REMARK    6  A    between atoms: C_6  and  C_7
REMARK    7  A    between atoms: C_7  and  C_8
REMARK    8  A    between atoms: C_8  and  C_9
REMARK    9  A    between atoms: C_9  and  C_10
REMARK   10  A    between atoms: C_10  and  C_11
REMARK   11  A    between atoms: C_11  and  N_12
REMARK   12  A    between atoms: C_13  and  C_15
REMARK   13  A    between atoms: C_16  and  C_17
REMARK   14  A    between atoms: C_20  and  O_21
REMARK   15  A    between atoms: C_22  and  O_23
REMARK                            x       y       z     vdW  Elec       q    Type
REMARK                         _______ _______ _______ _____ _____    ______ ____
ROOT
ATOM      1  N   UNL     1       7.652   6.389  16.504  0.00  0.00    +0.000 N 
ATOM      2  C   UNL     1       7.095   7.309  17.362  0.00  0.00    +0.000 C 
ATOM      3  O   UNL     1       5.893   7.423  17.564  0.00  0.00    +0.000 OA
ATOM      4  H   UNL     1       8.656   6.318  16.414  0.00  0.00    +0.000 HD
ENDROOT
BRANCH   2   5
ATOM      5  C   UNL     1       8.111   8.157  18.031  0.00  0.00    +0.000 C 
ATOM      6  C   UNL     1       8.171   9.471  17.758  0.00  0.00    +0.000 C 
BRANCH   6   7
ATOM      7  C   UNL     1       9.141  10.385  18.378  0.00  0.00    +0.000 A 
ATOM      8  C   UNL     1       9.236  10.422  19.780  0.00  0.00    +0.000 A 
ATOM      9  C   UNL     1      10.155  11.265  20.417  0.00  0.00    +0.000 A 
ATOM     10  C   UNL     1      10.986  12.066  19.645  0.00  0.00    +0.000 A 
ATOM     11  C   UNL     1      10.913  12.020  18.258  0.00  0.00    +0.000 A 
ATOM     12  C   UNL     1      10.007  11.185  17.619  0.00  0.00    +0.000 A 
BRANCH  10  13
ATOM     13  O   UNL     1      11.898  12.916  20.205  0.00  0.00    +0.000 OA
ATOM     14  H   UNL     1      11.601  13.825  20.026  0.00  0.00    +0.000 HD
ENDBRANCH  10  13
BRANCH  11  15
ATOM     15  O   UNL     1      11.740  12.802  17.502  0.00  0.00    +0.000 OA
ATOM     16  H   UNL     1      11.144  13.265  16.882  0.00  0.00    +0.000 HD
ENDBRANCH  11  15
ENDBRANCH   6   7
ENDBRANCH   2   5
BRANCH   1  17
ATOM     17  C   UNL     1       6.832   5.460  15.755  0.00  0.00    +0.000 C 
BRANCH  17  18
ATOM     18  C   UNL     1       6.497   4.209  16.564  0.00  0.00    +0.000 C 
BRANCH  18  19
ATOM     19  C   UNL     1       5.005   3.884  16.479  0.00  0.00    +0.000 C 
BRANCH  19  20
ATOM     20  C   UNL     1       4.291   4.214  17.789  0.00  0.00    +0.000 C 
BRANCH  20  21
ATOM     21  C   UNL     1       3.144   5.196  17.560  0.00  0.00    +0.000 C 
BRANCH  21  22
ATOM     22  C   UNL     1       2.892   6.039  18.807  0.00  0.00    +0.000 C 
BRANCH  22  23
ATOM     23  C   UNL     1       3.171   5.237  20.074  0.00  0.00    +0.000 C 
BRANCH  23  24
ATOM     24  C   UNL     1       1.887   5.010  20.867  0.00  0.00    +0.000 C 
BRANCH  24  25
ATOM     25  C   UNL     1       1.564   3.521  20.961  0.00  0.00    +0.000 C 
BRANCH  25  27
ATOM     26  C   UNL     1       1.516   2.092  18.900  0.00  0.00    +0.000 C 
ATOM     27  C   UNL     1       0.733   3.063  19.767  0.00  0.00    +0.000 C 
ENDBRANCH  25  27
ENDBRANCH  24  25
ENDBRANCH  23  24
ENDBRANCH  22  23
ENDBRANCH  21  22
ENDBRANCH  20  21
ENDBRANCH  19  20
ENDBRANCH  18  19
ENDBRANCH  17  18
ENDBRANCH   1  17
TORSDOF 14
ENDMDL
MODEL 9
REMARK VINA RESULT:      -6.5      1.235      2.253
REMARK  Name = 
REMARK  15 active torsions:
REMARK  status: ('A' for Active; 'I' for Inactive)
REMARK    1  A    between atoms: C_1  and  C_2
REMARK    2  A    between atoms: C_2  and  C_3
REMARK    3  A    between atoms: C_3  and  C_4
REMARK    4  A    between atoms: C_4  and  C_5
REMARK    5  A    between atoms: C_5  and  C_6
REMARK    6  A    between atoms: C_6  and  C_7
REMARK    7  A    between atoms: C_7  and  C_8
REMARK    8  A    between atoms: C_8  and  C_9
REMARK    9  A    between atoms: C_9  and  C_10
REMARK   10  A    between atoms: C_10  and  C_11
REMARK   11  A    between atoms: C_11  and  N_12
REMARK   12  A    between atoms: C_13  and  C_15
REMARK   13  A    between atoms: C_16  and  C_17
REMARK   14  A    between atoms: C_20  and  O_21
REMARK   15  A    between atoms: C_22  and  O_23
REMARK                            x       y       z     vdW  Elec       q    Type
REMARK                         _______ _______ _______ _____ _____    ______ ____
ROOT
ATOM      1  N   UNL     1       6.612   6.364  18.215  0.00  0.00    +0.000 N 
ATOM      2  C   UNL     1       7.327   7.036  17.250  0.00  0.00    +0.000 C 
ATOM      3  O   UNL     1       7.701   6.536  16.197  0.00  0.00    +0.000 OA
ATOM      4  H   UNL     1       6.297   6.848  19.045  0.00  0.00    +0.000 HD
ENDROOT
BRANCH   2   5
ATOM      5  C   UNL     1       7.600   8.446  17.616  0.00  0.00    +0.000 C 
ATOM      6  C   UNL     1       8.629   8.741  18.427  0.00  0.00    +0.000 C 
BRANCH   6   7
ATOM      7  C   UNL     1       8.975  10.110  18.835  0.00  0.00    +0.000 A 
ATOM      8  C   UNL     1       8.881  11.144  17.887  0.00  0.00    +0.000 A 
ATOM      9  C   UNL     1       9.183  12.466  18.232  0.00  0.00    +0.000 A 
ATOM     10  C   UNL     1       9.573  12.754  19.533  0.00  0.00    +0.000 A 
ATOM     11  C   UNL     1       9.648  11.741  20.482  0.00  0.00    +0.000 A 
ATOM     12  C   UNL     1       9.346  10.428  20.149  0.00  0.00    +0.000 A 
BRANCH  10  13
ATOM     13  O   UNL     1       9.890  14.022  19.932  0.00  0.00    +0.000 OA
ATOM     14  H   UNL     1       9.422  14.193  20.767  0.00  0.00    +0.000 HD
ENDBRANCH  10  13
BRANCH  11  15
ATOM     15  O   UNL     1      10.022  12.030  21.765  0.00  0.00    +0.000 OA
ATOM     16  H   UNL     1      10.999  12.004  21.749  0.00  0.00    +0.000 HD
ENDBRANCH  11  15
ENDBRANCH   6   7
ENDBRANCH   2   5
BRANCH   1  17
ATOM     17  C   UNL     1       6.238   4.975  18.051  0.00  0.00    +0.000 C 
BRANCH  17  18
ATOM     18  C   UNL     1       5.148   4.555  19.035  0.00  0.00    +0.000 C 
BRANCH  18  19
ATOM     19  C   UNL     1       4.357   5.769  19.528  0.00  0.00    +0.000 C 
BRANCH  19  20
ATOM     20  C   UNL     1       2.861   5.598  19.267  0.00  0.00    +0.000 C 
BRANCH  20  21
ATOM     21  C   UNL     1       2.594   5.236  17.807  0.00  0.00    +0.000 C 
BRANCH  21  22
ATOM     22  C   UNL     1       1.545   4.133  17.704  0.00  0.00    +0.000 C 
BRANCH  22  23
ATOM     23  C   UNL     1       2.198   2.755  17.715  0.00  0.00    +0.000 C 
BRANCH  23  24
ATOM     24  C   UNL     1       1.920   2.032  19.030  0.00  0.00    +0.000 C 
BRANCH  24  25
ATOM     25  C   UNL     1       3.118   2.137  19.970  0.00  0.00    +0.000 C 
BRANCH  25  27
ATOM     26  C   UNL     1       1.261   3.080  21.368  0.00  0.00    +0.000 C 
ATOM     27  C   UNL     1       2.681   2.542  21.374  0.00  0.00    +0.000 C 
ENDBRANCH  25  27
ENDBRANCH  24  25
ENDBRANCH  23  24
ENDBRANCH  22  23
ENDBRANCH  21  22
ENDBRANCH  20  21
ENDBRANCH  19  20
ENDBRANCH  18  19
ENDBRANCH  17  18
ENDBRANCH   1  17
TORSDOF 14
ENDMDL
