MODEL 1
REMARK VINA RESULT:      -8.8      0.000      0.000
REMARK  Name = 
REMARK  6 active torsions:
REMARK  status: ('A' for Active; 'I' for Inactive)
REMARK    1  A    between atoms: C_1  and  C_2
REMARK    2  A    between atoms: C_2  and  C_3
REMARK    3  A    between atoms: C_2  and  N_9
REMARK    4  A    between atoms: C_3  and  C_4
REMARK    5  A    between atoms: C_10  and  C_12
REMARK    6  A    between atoms: C_15  and  N_16
REMARK                            x       y       z     vdW  Elec       q    Type
REMARK                         _______ _______ _______ _____ _____    ______ ____
ROOT
ATOM      1  C   UNL     1       2.593   7.670  18.637  0.00  0.00    +0.000 A 
ATOM      2  C   UNL     1       2.144   8.655  17.762  0.00  0.00    +0.000 A 
ATOM      3  C   UNL     1       1.152   9.563  18.214  0.00  0.00    +0.000 A 
ATOM      4  C   UNL     1       0.602   9.517  19.502  0.00  0.00    +0.000 A 
ATOM      5  C   UNL     1       1.045   8.509  20.356  0.00  0.00    +0.000 A 
ATOM      6  C   UNL     1       2.032   7.568  19.908  0.00  0.00    +0.000 A 
ENDROOT
BRANCH   4   7
ATOM      7  N   UNL     1      -0.392  10.468  19.942  0.00  0.00    +0.000 N 
ATOM      8  C   UNL     1      -0.459  10.957  21.214  0.00  0.00    +0.000 C 
ATOM      9  O   UNL     1       0.354  10.646  22.093  0.00  0.00    +0.000 OA
ATOM     10  N   UNL     1      -1.459  11.803  21.594  0.00  0.00    +0.000 N 
ATOM     11  C   UNL     1      -1.514  12.028  23.031  0.00  0.00    +0.000 C 
ATOM     12  C   UNL     1      -2.862  12.606  23.216  0.00  0.00    +0.000 A 
ATOM     13  C   UNL     1      -3.786  12.386  24.214  0.00  0.00    +0.000 A 
ATOM     14  C   UNL     1      -4.979  13.095  24.146  0.00  0.00    +0.000 A 
ATOM     15  C   UNL     1      -5.144  14.078  23.161  0.00  0.00    +0.000 A 
ATOM     16  F   UNL     1      -6.227  14.864  23.209  0.00  0.00    +0.000 F 
ATOM     17  C   UNL     1      -4.258  14.192  22.085  0.00  0.00    +0.000 A 
ATOM     18  C   UNL     1      -3.204  13.300  22.058  0.00  0.00    +0.000 A 
ATOM     19  C   UNL     1      -2.521  12.566  20.913  0.00  0.00    +0.000 C 
ATOM     20  H   UNL     1      -1.108  10.738  19.279  0.00  0.00    +0.000 HD
ENDBRANCH   4   7
BRANCH   1  22
ATOM     21  N   UNL     1       3.965   5.697  19.072  0.00  0.00    +0.000 N 
ATOM     22  C   UNL     1       3.654   6.720  18.189  0.00  0.00    +0.000 C 
ATOM     23  O   UNL     1       4.155   6.841  17.078  0.00  0.00    +0.000 OA
ATOM     24  H   UNL     1       3.434   5.609  19.932  0.00  0.00    +0.000 HD
BRANCH  21  26
ATOM     25  C   UNL     1       6.338   5.104  19.207  0.00  0.00    +0.000 C 
ATOM     26  C   UNL     1       4.942   4.659  18.763  0.00  0.00    +0.000 C 
BRANCH  26  27
ATOM     27  C   UNL     1       4.590   3.312  19.429  0.00  0.00    +0.000 C 
BRANCH  27  28
ATOM     28  C   UNL     1       3.192   3.234  19.932  0.00  0.00    +0.000 A 
ATOM     29  C   UNL     1       2.637   3.004  21.174  0.00  0.00    +0.000 A 
ATOM     30  C   UNL     1       1.235   3.120  21.014  0.00  0.00    +0.000 A 
ATOM     31  C   UNL     1       1.023   3.412  19.688  0.00  0.00    +0.000 A 
ATOM     32  O   UNL     1       2.205   3.482  19.022  0.00  0.00    +0.000 OA
ENDBRANCH  27  28
ENDBRANCH  26  27
ENDBRANCH  21  26
ENDBRANCH   1  22
TORSDOF 5
ENDMDL
MODEL 2
REMARK VINA RESULT:      -8.7      2.345      4.139
REMARK  Name = 
REMARK  6 active torsions:
REMARK  status: ('A' for Active; 'I' for Inactive)
REMARK    1  A    between atoms: C_1  and  C_2
REMARK    2  A    between atoms: C_2  and  C_3
REMARK    3  A    between atoms: C_2  and  N_9
REMARK    4  A    between atoms: C_3  and  C_4
REMARK    5  A    between atoms: C_10  and  C_12
REMARK    6  A    between atoms: C_15  and  N_16
REMARK                            x       y       z     vdW  Elec       q    Type
REMARK                         _______ _______ _______ _____ _____    ______ ____
ROOT
ATOM      1  C   UNL     1       3.380   5.389  18.423  0.00  0.00    +0.000 A 
ATOM      2  C   UNL     1       3.329   6.711  17.991  0.00  0.00    +0.000 A 
ATOM      3  C   UNL     1       2.583   7.647  18.753  0.00  0.00    +0.000 A 
ATOM      4  C   UNL     1       1.893   7.303  19.924  0.00  0.00    +0.000 A 
ATOM      5  C   UNL     1       1.935   5.970  20.328  0.00  0.00    +0.000 A 
ATOM      6  C   UNL     1       2.667   5.007  19.557  0.00  0.00    +0.000 A 
ENDROOT
BRANCH   4   7
ATOM      7  N   UNL     1       1.159   8.281  20.692  0.00  0.00    +0.000 N 
ATOM      8  C   UNL     1       0.629   9.419  20.158  0.00  0.00    +0.000 C 
ATOM      9  O   UNL     1       0.709   9.692  18.954  0.00  0.00    +0.000 OA
ATOM     10  N   UNL     1       0.002  10.342  20.941  0.00  0.00    +0.000 N 
ATOM     11  C   UNL     1      -0.282  11.593  20.251  0.00  0.00    +0.000 C 
ATOM     12  C   UNL     1      -0.562  12.521  21.367  0.00  0.00    +0.000 A 
ATOM     13  C   UNL     1      -0.199  13.840  21.527  0.00  0.00    +0.000 A 
ATOM     14  C   UNL     1      -0.627  14.483  22.682  0.00  0.00    +0.000 A 
ATOM     15  C   UNL     1      -1.497  13.821  23.560  0.00  0.00    +0.000 A 
ATOM     16  F   UNL     1      -2.030  14.508  24.578  0.00  0.00    +0.000 F 
ATOM     17  C   UNL     1      -1.743  12.450  23.450  0.00  0.00    +0.000 A 
ATOM     18  C   UNL     1      -1.102  11.788  22.421  0.00  0.00    +0.000 A 
ATOM     19  C   UNL     1      -0.474  10.405  22.335  0.00  0.00    +0.000 C 
ATOM     20  H   UNL     1       1.087   8.134  21.692  0.00  0.00    +0.000 HD
ENDBRANCH   4   7
BRANCH   1  22
ATOM     21  N   UNL     1       4.786   4.868  16.495  0.00  0.00    +0.000 N 
ATOM     22  C   UNL     1       4.180   4.394  17.649  0.00  0.00    +0.000 C 
ATOM     23  O   UNL     1       4.312   3.253  18.072  0.00  0.00    +0.000 OA
ATOM     24  H   UNL     1       4.708   5.853  16.266  0.00  0.00    +0.000 HD
BRANCH  21  26
ATOM     25  C   UNL     1       5.241   4.191  14.186  0.00  0.00    +0.000 C 
ATOM     26  C   UNL     1       5.641   4.037  15.656  0.00  0.00    +0.000 C 
BRANCH  26  27
ATOM     27  C   UNL     1       7.136   4.383  15.826  0.00  0.00    +0.000 C 
BRANCH  27  28
ATOM     28  C   UNL     1       7.419   5.292  16.969  0.00  0.00    +0.000 A 
ATOM     29  C   UNL     1       7.725   5.085  18.298  0.00  0.00    +0.000 A 
ATOM     30  C   UNL     1       7.950   6.365  18.861  0.00  0.00    +0.000 A 
ATOM     31  C   UNL     1       7.767   7.269  17.842  0.00  0.00    +0.000 A 
ATOM     32  O   UNL     1       7.443   6.628  16.689  0.00  0.00    +0.000 OA
ENDBRANCH  27  28
ENDBRANCH  26  27
ENDBRANCH  21  26
ENDBRANCH   1  22
TORSDOF 5
ENDMDL
MODEL 3
REMARK VINA RESULT:      -8.6      1.236      1.283
REMARK  Name = 
REMARK  6 active torsions:
REMARK  status: ('A' for Active; 'I' for Inactive)
REMARK    1  A    between atoms: C_1  and  C_2
REMARK    2  A    between atoms: C_2  and  C_3
REMARK    3  A    between atoms: C_2  and  N_9
REMARK    4  A    between atoms: C_3  and  C_4
REMARK    5  A    between atoms: C_10  and  C_12
REMARK    6  A    between atoms: C_15  and  N_16
REMARK                            x       y       z     vdW  Elec       q    Type
REMARK                         _______ _______ _______ _____ _____    ______ ____
ROOT
ATOM      1  C   UNL     1       2.415   7.893  18.670  0.00  0.00    +0.000 A 
ATOM      2  C   UNL     1       1.896   8.911  17.876  0.00  0.00    +0.000 A 
ATOM      3  C   UNL     1       0.965   9.814  18.451  0.00  0.00    +0.000 A 
ATOM      4  C   UNL     1       0.543   9.731  19.786  0.00  0.00    +0.000 A 
ATOM      5  C   UNL     1       1.054   8.691  20.559  0.00  0.00    +0.000 A 
ATOM      6  C   UNL     1       1.980   7.756  19.986  0.00  0.00    +0.000 A 
ENDROOT
BRANCH   4   7
ATOM      7  N   UNL     1      -0.390  10.677  20.351  0.00  0.00    +0.000 N 
ATOM      8  C   UNL     1      -0.014  11.842  20.952  0.00  0.00    +0.000 C 
ATOM      9  O   UNL     1       1.168  12.201  21.033  0.00  0.00    +0.000 OA
ATOM     10  N   UNL     1      -0.932  12.668  21.529  0.00  0.00    +0.000 N 
ATOM     11  C   UNL     1      -0.337  13.731  22.327  0.00  0.00    +0.000 C 
ATOM     12  C   UNL     1      -1.478  14.203  23.140  0.00  0.00    +0.000 A 
ATOM     13  C   UNL     1      -1.520  14.583  24.463  0.00  0.00    +0.000 A 
ATOM     14  C   UNL     1      -2.743  15.011  24.965  0.00  0.00    +0.000 A 
ATOM     15  C   UNL     1      -3.833  15.158  24.097  0.00  0.00    +0.000 A 
ATOM     16  F   UNL     1      -4.954  15.727  24.561  0.00  0.00    +0.000 F 
ATOM     17  C   UNL     1      -3.809  14.643  22.799  0.00  0.00    +0.000 A 
ATOM     18  C   UNL     1      -2.648  14.003  22.410  0.00  0.00    +0.000 A 
ATOM     19  C   UNL     1      -2.403  12.768  21.556  0.00  0.00    +0.000 C 
ATOM     20  H   UNL     1      -1.371  10.426  20.347  0.00  0.00    +0.000 HD
ENDBRANCH   4   7
BRANCH   1  22
ATOM     21  N   UNL     1       3.681   5.811  18.839  0.00  0.00    +0.000 N 
ATOM     22  C   UNL     1       3.415   6.948  18.090  0.00  0.00    +0.000 C 
ATOM     23  O   UNL     1       3.905   7.174  16.991  0.00  0.00    +0.000 OA
ATOM     24  H   UNL     1       3.159   5.650  19.694  0.00  0.00    +0.000 HD
BRANCH  21  26
ATOM     25  C   UNL     1       5.920   4.868  19.145  0.00  0.00    +0.000 C 
ATOM     26  C   UNL     1       4.593   4.766  18.388  0.00  0.00    +0.000 C 
BRANCH  26  27
ATOM     27  C   UNL     1       3.997   3.355  18.571  0.00  0.00    +0.000 C 
BRANCH  27  28
ATOM     28  C   UNL     1       2.887   3.291  19.560  0.00  0.00    +0.000 A 
ATOM     29  C   UNL     1       2.789   2.821  20.853  0.00  0.00    +0.000 A 
ATOM     30  C   UNL     1       1.470   3.106  21.284  0.00  0.00    +0.000 A 
ATOM     31  C   UNL     1       0.849   3.731  20.229  0.00  0.00    +0.000 A 
ATOM     32  O   UNL     1       1.701   3.847  19.176  0.00  0.00    +0.000 OA
ENDBRANCH  27  28
ENDBRANCH  26  27
ENDBRANCH  21  26
ENDBRANCH   1  22
TORSDOF 5
ENDMDL
MODEL 4
REMARK VINA RESULT:      -8.5      1.135      1.555
REMARK  Name = 
REMARK  6 active torsions:
REMARK  status: ('A' for Active; 'I' for Inactive)
REMARK    1  A    between atoms: C_1  and  C_2
REMARK    2  A    between atoms: C_2  and  C_3
REMARK    3  A    between atoms: C_2  and  N_9
REMARK    4  A    between atoms: C_3  and  C_4
REMARK    5  A    between atoms: C_10  and  C_12
REMARK    6  A    between atoms: C_15  and  N_16
REMARK                            x       y       z     vdW  Elec       q    Type
REMARK                         _______ _______ _______ _____ _____    ______ ____
ROOT
ATOM      1  C   UNL     1       2.501   7.740  18.756  0.00  0.00    +0.000 A 
ATOM      2  C   UNL     1       2.062   7.616  20.071  0.00  0.00    +0.000 A 
ATOM      3  C   UNL     1       1.116   8.551  20.564  0.00  0.00    +0.000 A 
ATOM      4  C   UNL     1       0.600   9.599  19.787  0.00  0.00    +0.000 A 
ATOM      5  C   UNL     1       1.071   9.723  18.481  0.00  0.00    +0.000 A 
ATOM      6  C   UNL     1       2.043   8.798  17.974  0.00  0.00    +0.000 A 
ENDROOT
BRANCH   4   7
ATOM      7  N   UNL     1      -0.378  10.524  20.307  0.00  0.00    +0.000 N 
ATOM      8  C   UNL     1      -0.055  11.687  20.944  0.00  0.00    +0.000 C 
ATOM      9  O   UNL     1       1.114  12.061  21.100  0.00  0.00    +0.000 OA
ATOM     10  N   UNL     1      -1.018  12.492  21.476  0.00  0.00    +0.000 N 
ATOM     11  C   UNL     1      -0.486  13.553  22.320  0.00  0.00    +0.000 C 
ATOM     12  C   UNL     1      -1.681  13.998  23.070  0.00  0.00    +0.000 A 
ATOM     13  C   UNL     1      -1.806  14.360  24.393  0.00  0.00    +0.000 A 
ATOM     14  C   UNL     1      -3.062  14.765  24.826  0.00  0.00    +0.000 A 
ATOM     15  C   UNL     1      -4.102  14.908  23.897  0.00  0.00    +0.000 A 
ATOM     16  F   UNL     1      -5.256  15.455  24.300  0.00  0.00    +0.000 F 
ATOM     17  C   UNL     1      -3.993  14.411  22.596  0.00  0.00    +0.000 A 
ATOM     18  C   UNL     1      -2.802  13.792  22.269  0.00  0.00    +0.000 A 
ATOM     19  C   UNL     1      -2.489  12.572  21.416  0.00  0.00    +0.000 C 
ATOM     20  H   UNL     1      -1.353  10.260  20.242  0.00  0.00    +0.000 HD
ENDBRANCH   4   7
BRANCH   1  22
ATOM     21  N   UNL     1       3.918   5.781  19.100  0.00  0.00    +0.000 N 
ATOM     22  C   UNL     1       3.478   6.751  18.212  0.00  0.00    +0.000 C 
ATOM     23  O   UNL     1       3.802   6.797  17.032  0.00  0.00    +0.000 OA
ATOM     24  H   UNL     1       3.525   5.753  20.034  0.00  0.00    +0.000 HD
BRANCH  21  26
ATOM     25  C   UNL     1       6.247   5.031  19.200  0.00  0.00    +0.000 C 
ATOM     26  C   UNL     1       4.832   4.713  18.710  0.00  0.00    +0.000 C 
BRANCH  26  27
ATOM     27  C   UNL     1       4.389   3.340  19.257  0.00  0.00    +0.000 C 
BRANCH  27  28
ATOM     28  C   UNL     1       2.919   3.116  19.211  0.00  0.00    +0.000 A 
ATOM     29  C   UNL     1       2.088   2.419  18.359  0.00  0.00    +0.000 A 
ATOM     30  C   UNL     1       0.781   2.535  18.891  0.00  0.00    +0.000 A 
ATOM     31  C   UNL     1       0.897   3.294  20.031  0.00  0.00    +0.000 A 
ATOM     32  O   UNL     1       2.191   3.653  20.233  0.00  0.00    +0.000 OA
ENDBRANCH  27  28
ENDBRANCH  26  27
ENDBRANCH  21  26
ENDBRANCH   1  22
TORSDOF 5
ENDMDL
MODEL 5
REMARK VINA RESULT:      -8.4      2.200      4.005
REMARK  Name = 
REMARK  6 active torsions:
REMARK  status: ('A' for Active; 'I' for Inactive)
REMARK    1  A    between atoms: C_1  and  C_2
REMARK    2  A    between atoms: C_2  and  C_3
REMARK    3  A    between atoms: C_2  and  N_9
REMARK    4  A    between atoms: C_3  and  C_4
REMARK    5  A    between atoms: C_10  and  C_12
REMARK    6  A    between atoms: C_15  and  N_16
REMARK                            x       y       z     vdW  Elec       q    Type
REMARK                         _______ _______ _______ _____ _____    ______ ____
ROOT
ATOM      1  C   UNL     1       3.021   5.951  18.478  0.00  0.00    +0.000 A 
ATOM      2  C   UNL     1       2.478   5.659  19.726  0.00  0.00    +0.000 A 
ATOM      3  C   UNL     1       1.821   6.694  20.440  0.00  0.00    +0.000 A 
ATOM      4  C   UNL     1       1.691   8.000  19.946  0.00  0.00    +0.000 A 
ATOM      5  C   UNL     1       2.262   8.280  18.707  0.00  0.00    +0.000 A 
ATOM      6  C   UNL     1       2.949   7.250  17.982  0.00  0.00    +0.000 A 
ENDROOT
BRANCH   4   7
ATOM      7  N   UNL     1       0.998   9.029  20.685  0.00  0.00    +0.000 N 
ATOM      8  C   UNL     1       0.050   9.844  20.140  0.00  0.00    +0.000 C 
ATOM      9  O   UNL     1      -0.319   9.744  18.963  0.00  0.00    +0.000 OA
ATOM     10  N   UNL     1      -0.526  10.844  20.866  0.00  0.00    +0.000 N 
ATOM     11  C   UNL     1      -1.327  11.757  20.063  0.00  0.00    +0.000 C 
ATOM     12  C   UNL     1      -1.484  12.923  20.959  0.00  0.00    +0.000 A 
ATOM     13  C   UNL     1      -1.450  14.269  20.669  0.00  0.00    +0.000 A 
ATOM     14  C   UNL     1      -1.656  15.153  21.721  0.00  0.00    +0.000 A 
ATOM     15  C   UNL     1      -2.007  14.656  22.983  0.00  0.00    +0.000 A 
ATOM     16  F   UNL     1      -2.362  15.522  23.941  0.00  0.00    +0.000 F 
ATOM     17  C   UNL     1      -1.905  13.296  23.288  0.00  0.00    +0.000 A 
ATOM     18  C   UNL     1      -1.461  12.468  22.276  0.00  0.00    +0.000 A 
ATOM     19  C   UNL     1      -0.549  11.250  22.283  0.00  0.00    +0.000 C 
ATOM     20  H   UNL     1       1.278   9.185  21.646  0.00  0.00    +0.000 HD
ENDBRANCH   4   7
BRANCH   1  22
ATOM     21  N   UNL     1       4.638   5.285  16.773  0.00  0.00    +0.000 N 
ATOM     22  C   UNL     1       3.694   4.869  17.700  0.00  0.00    +0.000 C 
ATOM     23  O   UNL     1       3.439   3.695  17.937  0.00  0.00    +0.000 OA
ATOM     24  H   UNL     1       4.862   6.272  16.707  0.00  0.00    +0.000 HD
BRANCH  21  26
ATOM     25  C   UNL     1       5.315   4.720  14.488  0.00  0.00    +0.000 C 
ATOM     26  C   UNL     1       5.420   4.351  15.971  0.00  0.00    +0.000 C 
BRANCH  26  27
ATOM     27  C   UNL     1       6.903   4.320  16.395  0.00  0.00    +0.000 C 
BRANCH  27  28
ATOM     28  C   UNL     1       7.317   5.479  17.231  0.00  0.00    +0.000 A 
ATOM     29  C   UNL     1       7.739   5.609  18.537  0.00  0.00    +0.000 A 
ATOM     30  C   UNL     1       8.051   6.978  18.723  0.00  0.00    +0.000 A 
ATOM     31  C   UNL     1       7.800   7.595  17.520  0.00  0.00    +0.000 A 
ATOM     32  O   UNL     1       7.352   6.693  16.608  0.00  0.00    +0.000 OA
ENDBRANCH  27  28
ENDBRANCH  26  27
ENDBRANCH  21  26
ENDBRANCH   1  22
TORSDOF 5
ENDMDL
MODEL 6
REMARK VINA RESULT:      -8.4      2.368      4.147
REMARK  Name = 
REMARK  6 active torsions:
REMARK  status: ('A' for Active; 'I' for Inactive)
REMARK    1  A    between atoms: C_1  and  C_2
REMARK    2  A    between atoms: C_2  and  C_3
REMARK    3  A    between atoms: C_2  and  N_9
REMARK    4  A    between atoms: C_3  and  C_4
REMARK    5  A    between atoms: C_10  and  C_12
REMARK    6  A    between atoms: C_15  and  N_16
REMARK                            x       y       z     vdW  Elec       q    Type
REMARK                         _______ _______ _______ _____ _____    ______ ____
ROOT
ATOM      1  C   UNL     1       3.342   5.499  18.469  0.00  0.00    +0.000 A 
ATOM      2  C   UNL     1       2.817   5.167  19.715  0.00  0.00    +0.000 A 
ATOM      3  C   UNL     1       2.093   6.154  20.432  0.00  0.00    +0.000 A 
ATOM      4  C   UNL     1       1.878   7.451  19.944  0.00  0.00    +0.000 A 
ATOM      5  C   UNL     1       2.432   7.773  18.707  0.00  0.00    +0.000 A 
ATOM      6  C   UNL     1       3.186   6.794  17.979  0.00  0.00    +0.000 A 
ENDROOT
BRANCH   4   7
ATOM      7  N   UNL     1       1.119   8.428  20.687  0.00  0.00    +0.000 N 
ATOM      8  C   UNL     1       0.743   9.638  20.180  0.00  0.00    +0.000 C 
ATOM      9  O   UNL     1       0.998   9.984  19.020  0.00  0.00    +0.000 OA
ATOM     10  N   UNL     1       0.083  10.552  20.947  0.00  0.00    +0.000 N 
ATOM     11  C   UNL     1      -0.022  11.864  20.325  0.00  0.00    +0.000 C 
ATOM     12  C   UNL     1      -0.381  12.734  21.465  0.00  0.00    +0.000 A 
ATOM     13  C   UNL     1       0.047  14.007  21.772  0.00  0.00    +0.000 A 
ATOM     14  C   UNL     1      -0.484  14.601  22.910  0.00  0.00    +0.000 A 
ATOM     15  C   UNL     1      -1.505  13.951  23.617  0.00  0.00    +0.000 A 
ATOM     16  F   UNL     1      -2.119  14.607  24.610  0.00  0.00    +0.000 F 
ATOM     17  C   UNL     1      -1.828  12.614  23.372  0.00  0.00    +0.000 A 
ATOM     18  C   UNL     1      -1.104  11.976  22.383  0.00  0.00    +0.000 A 
ATOM     19  C   UNL     1      -0.566  10.557  22.270  0.00  0.00    +0.000 C 
ATOM     20  H   UNL     1       0.906   8.220  21.655  0.00  0.00    +0.000 HD
ENDBRANCH   4   7
BRANCH   1  22
ATOM     21  N   UNL     1       4.804   4.933  16.596  0.00  0.00    +0.000 N 
ATOM     22  C   UNL     1       4.087   4.468  17.687  0.00  0.00    +0.000 C 
ATOM     23  O   UNL     1       4.081   3.300  18.055  0.00  0.00    +0.000 OA
ATOM     24  H   UNL     1       4.837   5.931  16.417  0.00  0.00    +0.000 HD
BRANCH  21  26
ATOM     25  C   UNL     1       5.285   4.282  14.285  0.00  0.00    +0.000 C 
ATOM     26  C   UNL     1       5.624   4.062  15.762  0.00  0.00    +0.000 C 
BRANCH  26  27
ATOM     27  C   UNL     1       7.133   4.291  15.989  0.00  0.00    +0.000 C 
BRANCH  27  28
ATOM     28  C   UNL     1       7.442   5.215  17.113  0.00  0.00    +0.000 A 
ATOM     29  C   UNL     1       7.587   6.583  17.209  0.00  0.00    +0.000 A 
ATOM     30  C   UNL     1       7.817   6.866  18.578  0.00  0.00    +0.000 A 
ATOM     31  C   UNL     1       7.797   5.655  19.228  0.00  0.00    +0.000 A 
ATOM     32  O   UNL     1       7.572   4.646  18.347  0.00  0.00    +0.000 OA
ENDBRANCH  27  28
ENDBRANCH  26  27
ENDBRANCH  21  26
ENDBRANCH   1  22
TORSDOF 5
ENDMDL
MODEL 7
REMARK VINA RESULT:      -8.3      2.129      3.564
REMARK  Name = 
REMARK  6 active torsions:
REMARK  status: ('A' for Active; 'I' for Inactive)
REMARK    1  A    between atoms: C_1  and  C_2
REMARK    2  A    between atoms: C_2  and  C_3
REMARK    3  A    between atoms: C_2  and  N_9
REMARK    4  A    between atoms: C_3  and  C_4
REMARK    5  A    between atoms: C_10  and  C_12
REMARK    6  A    between atoms: C_15  and  N_16
REMARK                            x       y       z     vdW  Elec       q    Type
REMARK                         _______ _______ _______ _____ _____    ______ ____
ROOT
ATOM      1  C   UNL     1       3.036   6.214  18.097  0.00  0.00    +0.000 A 
ATOM      2  C   UNL     1       2.886   7.393  17.373  0.00  0.00    +0.000 A 
ATOM      3  C   UNL     1       2.312   8.518  18.017  0.00  0.00    +0.000 A 
ATOM      4  C   UNL     1       1.887   8.500  19.354  0.00  0.00    +0.000 A 
ATOM      5  C   UNL     1       2.022   7.304  20.055  0.00  0.00    +0.000 A 
ATOM      6  C   UNL     1       2.581   6.150  19.412  0.00  0.00    +0.000 A 
ENDROOT
BRANCH   4   7
ATOM      7  N   UNL     1       1.325   9.667  19.991  0.00  0.00    +0.000 N 
ATOM      8  C   UNL     1       0.703   9.641  21.205  0.00  0.00    +0.000 C 
ATOM      9  O   UNL     1       0.598   8.608  21.879  0.00  0.00    +0.000 OA
ATOM     10  N   UNL     1       0.131  10.761  21.731  0.00  0.00    +0.000 N 
ATOM     11  C   UNL     1      -0.690  10.497  22.905  0.00  0.00    +0.000 C 
ATOM     12  C   UNL     1      -1.490  11.734  23.024  0.00  0.00    +0.000 A 
ATOM     13  C   UNL     1      -2.817  11.897  23.355  0.00  0.00    +0.000 A 
ATOM     14  C   UNL     1      -3.304  13.196  23.415  0.00  0.00    +0.000 A 
ATOM     15  C   UNL     1      -2.421  14.274  23.266  0.00  0.00    +0.000 A 
ATOM     16  F   UNL     1      -2.873  15.514  23.490  0.00  0.00    +0.000 F 
ATOM     17  C   UNL     1      -1.116  14.090  22.800  0.00  0.00    +0.000 A 
ATOM     18  C   UNL     1      -0.739  12.792  22.517  0.00  0.00    +0.000 A 
ATOM     19  C   UNL     1       0.127  12.200  21.415  0.00  0.00    +0.000 C 
ATOM     20  H   UNL     1       1.348  10.539  19.476  0.00  0.00    +0.000 HD
ENDBRANCH   4   7
BRANCH   1  22
ATOM     21  N   UNL     1       4.720   5.290  16.589  0.00  0.00    +0.000 N 
ATOM     22  C   UNL     1       3.661   5.026  17.444  0.00  0.00    +0.000 C 
ATOM     23  O   UNL     1       3.267   3.899  17.717  0.00  0.00    +0.000 OA
ATOM     24  H   UNL     1       5.050   6.244  16.492  0.00  0.00    +0.000 HD
BRANCH  21  26
ATOM     25  C   UNL     1       5.178   4.268  14.410  0.00  0.00    +0.000 C 
ATOM     26  C   UNL     1       5.469   4.237  15.913  0.00  0.00    +0.000 C 
BRANCH  26  27
ATOM     27  C   UNL     1       6.989   4.360  16.150  0.00  0.00    +0.000 C 
BRANCH  27  28
ATOM     28  C   UNL     1       7.356   5.297  17.246  0.00  0.00    +0.000 A 
ATOM     29  C   UNL     1       7.613   6.651  17.296  0.00  0.00    +0.000 A 
ATOM     30  C   UNL     1       7.843   6.965  18.657  0.00  0.00    +0.000 A 
ATOM     31  C   UNL     1       7.712   5.785  19.350  0.00  0.00    +0.000 A 
ATOM     32  O   UNL     1       7.417   4.766  18.502  0.00  0.00    +0.000 OA
ENDBRANCH  27  28
ENDBRANCH  26  27
ENDBRANCH  21  26
ENDBRANCH   1  22
TORSDOF 5
ENDMDL
MODEL 8
REMARK VINA RESULT:      -8.3      2.290      3.878
REMARK  Name = 
REMARK  6 active torsions:
REMARK  status: ('A' for Active; 'I' for Inactive)
REMARK    1  A    between atoms: C_1  and  C_2
REMARK    2  A    between atoms: C_2  and  C_3
REMARK    3  A    between atoms: C_2  and  N_9
REMARK    4  A    between atoms: C_3  and  C_4
REMARK    5  A    between atoms: C_10  and  C_12
REMARK    6  A    between atoms: C_15  and  N_16
REMARK                            x       y       z     vdW  Elec       q    Type
REMARK                         _______ _______ _______ _____ _____    ______ ____
ROOT
ATOM      1  C   UNL     1       2.768   6.291  18.440  0.00  0.00    +0.000 A 
ATOM      2  C   UNL     1       2.584   7.541  17.857  0.00  0.00    +0.000 A 
ATOM      3  C   UNL     1       1.966   8.563  18.622  0.00  0.00    +0.000 A 
ATOM      4  C   UNL     1       1.531   8.375  19.941  0.00  0.00    +0.000 A 
ATOM      5  C   UNL     1       1.700   7.110  20.500  0.00  0.00    +0.000 A 
ATOM      6  C   UNL     1       2.304   6.058  19.733  0.00  0.00    +0.000 A 
ENDROOT
BRANCH   4   7
ATOM      7  N   UNL     1       0.924   9.440  20.704  0.00  0.00    +0.000 N 
ATOM      8  C   UNL     1      -0.171  10.139  20.287  0.00  0.00    +0.000 C 
ATOM      9  O   UNL     1      -0.757   9.893  19.225  0.00  0.00    +0.000 OA
ATOM     10  N   UNL     1      -0.664  11.181  21.016  0.00  0.00    +0.000 N 
ATOM     11  C   UNL     1      -1.673  11.958  20.310  0.00  0.00    +0.000 C 
ATOM     12  C   UNL     1      -1.735  13.204  21.103  0.00  0.00    +0.000 A 
ATOM     13  C   UNL     1      -1.858  14.510  20.684  0.00  0.00    +0.000 A 
ATOM     14  C   UNL     1      -1.916  15.491  21.666  0.00  0.00    +0.000 A 
ATOM     15  C   UNL     1      -1.975  15.117  23.016  0.00  0.00    +0.000 A 
ATOM     16  F   UNL     1      -2.196  16.062  23.938  0.00  0.00    +0.000 F 
ATOM     17  C   UNL     1      -1.714  13.806  23.422  0.00  0.00    +0.000 A 
ATOM     18  C   UNL     1      -1.419  12.897  22.425  0.00  0.00    +0.000 A 
ATOM     19  C   UNL     1      -0.437  11.737  22.362  0.00  0.00    +0.000 C 
ATOM     20  H   UNL     1       1.376   9.714  21.568  0.00  0.00    +0.000 HD
ENDBRANCH   4   7
BRANCH   1  22
ATOM     21  N   UNL     1       4.749   5.457  17.280  0.00  0.00    +0.000 N 
ATOM     22  C   UNL     1       3.439   5.208  17.660  0.00  0.00    +0.000 C 
ATOM     23  O   UNL     1       2.849   4.158  17.439  0.00  0.00    +0.000 OA
ATOM     24  H   UNL     1       5.198   6.313  17.588  0.00  0.00    +0.000 HD
BRANCH  21  26
ATOM     25  C   UNL     1       5.389   4.676  15.049  0.00  0.00    +0.000 C 
ATOM     26  C   UNL     1       5.559   4.482  16.558  0.00  0.00    +0.000 C 
BRANCH  26  27
ATOM     27  C   UNL     1       7.053   4.578  16.930  0.00  0.00    +0.000 C 
BRANCH  27  28
ATOM     28  C   UNL     1       7.444   5.882  17.530  0.00  0.00    +0.000 A 
ATOM     29  C   UNL     1       7.982   6.248  18.746  0.00  0.00    +0.000 A 
ATOM     30  C   UNL     1       8.188   7.648  18.688  0.00  0.00    +0.000 A 
ATOM     31  C   UNL     1       7.763   8.046  17.443  0.00  0.00    +0.000 A 
ATOM     32  O   UNL     1       7.309   6.981  16.732  0.00  0.00    +0.000 OA
ENDBRANCH  27  28
ENDBRANCH  26  27
ENDBRANCH  21  26
ENDBRANCH   1  22
TORSDOF 5
ENDMDL
MODEL 9
REMARK VINA RESULT:      -8.1      1.418      1.832
REMARK  Name = 
REMARK  6 active torsions:
REMARK  status: ('A' for Active; 'I' for Inactive)
REMARK    1  A    between atoms: C_1  and  C_2
REMARK    2  A    between atoms: C_2  and  C_3
REMARK    3  A    between atoms: C_2  and  N_9
REMARK    4  A    between atoms: C_3  and  C_4
REMARK    5  A    between atoms: C_10  and  C_12
REMARK    6  A    between atoms: C_15  and  N_16
REMARK                            x       y       z     vdW  Elec       q    Type
REMARK                         _______ _______ _______ _____ _____    ______ ____
ROOT
ATOM      1  C   UNL     1       2.608   7.194  18.361  0.00  0.00    +0.000 A 
ATOM      2  C   UNL     1       2.308   7.081  19.715  0.00  0.00    +0.000 A 
ATOM      3  C   UNL     1       1.706   8.185  20.372  0.00  0.00    +0.000 A 
ATOM      4  C   UNL     1       1.397   9.387  19.720  0.00  0.00    +0.000 A 
ATOM      5  C   UNL     1       1.728   9.491  18.371  0.00  0.00    +0.000 A 
ATOM      6  C   UNL     1       2.357   8.392  17.697  0.00  0.00    +0.000 A 
ENDROOT
BRANCH   4   7
ATOM      7  N   UNL     1       0.764  10.487  20.409  0.00  0.00    +0.000 N 
ATOM      8  C   UNL     1       0.060  10.349  21.568  0.00  0.00    +0.000 C 
ATOM      9  O   UNL     1      -0.069   9.262  22.146  0.00  0.00    +0.000 OA
ATOM     10  N   UNL     1      -0.575  11.411  22.142  0.00  0.00    +0.000 N 
ATOM     11  C   UNL     1      -1.469  11.036  23.228  0.00  0.00    +0.000 C 
ATOM     12  C   UNL     1      -2.305  12.245  23.390  0.00  0.00    +0.000 A 
ATOM     13  C   UNL     1      -3.655  12.356  23.637  0.00  0.00    +0.000 A 
ATOM     14  C   UNL     1      -4.176  13.638  23.768  0.00  0.00    +0.000 A 
ATOM     15  C   UNL     1      -3.309  14.739  23.771  0.00  0.00    +0.000 A 
ATOM     16  F   UNL     1      -3.805  15.949  24.062  0.00  0.00    +0.000 F 
ATOM     17  C   UNL     1      -1.971  14.618  23.387  0.00  0.00    +0.000 A 
ATOM     18  C   UNL     1      -1.545  13.354  23.026  0.00  0.00    +0.000 A 
ATOM     19  C   UNL     1      -0.590  12.872  21.945  0.00  0.00    +0.000 C 
ATOM     20  H   UNL     1       0.803  11.399  19.969  0.00  0.00    +0.000 HD
ENDBRANCH   4   7
BRANCH   1  22
ATOM     21  N   UNL     1       2.634   4.799  17.880  0.00  0.00    +0.000 N 
ATOM     22  C   UNL     1       3.220   6.034  17.646  0.00  0.00    +0.000 C 
ATOM     23  O   UNL     1       4.146   6.216  16.866  0.00  0.00    +0.000 OA
ATOM     24  H   UNL     1       1.807   4.749  18.465  0.00  0.00    +0.000 HD
BRANCH  21  26
ATOM     25  C   UNL     1       4.610   3.544  17.162  0.00  0.00    +0.000 C 
ATOM     26  C   UNL     1       3.081   3.578  17.220  0.00  0.00    +0.000 C 
BRANCH  26  27
ATOM     27  C   UNL     1       2.559   2.310  17.928  0.00  0.00    +0.000 C 
BRANCH  27  28
ATOM     28  C   UNL     1       2.388   2.465  19.398  0.00  0.00    +0.000 A 
ATOM     29  C   UNL     1       3.264   2.476  20.463  0.00  0.00    +0.000 A 
ATOM     30  C   UNL     1       2.486   2.732  21.619  0.00  0.00    +0.000 A 
ATOM     31  C   UNL     1       1.187   2.860  21.186  0.00  0.00    +0.000 A 
ATOM     32  O   UNL     1       1.117   2.699  19.839  0.00  0.00    +0.000 OA
ENDBRANCH  27  28
ENDBRANCH  26  27
ENDBRANCH  21  26
ENDBRANCH   1  22
TORSDOF 5
ENDMDL
