MODEL 1
REMARK VINA RESULT:      -8.3      0.000      0.000
REMARK  Name = 
REMARK  6 active torsions:
REMARK  status: ('A' for Active; 'I' for Inactive)
REMARK    1  A    between atoms: N_1  and  C_2
REMARK    2  A    between atoms: C_2  and  C_3
REMARK    3  A    between atoms: C_3  and  C_4
REMARK    4  A    between atoms: C_4  and  C_5
REMARK    5  A    between atoms: C_8  and  C_9
REMARK    6  A    between atoms: C_10  and  O_11
REMARK                            x       y       z     vdW  Elec       q    Type
REMARK                         _______ _______ _______ _____ _____    ______ ____
ROOT
ATOM      1  C   UNL     1       3.630   6.143  17.670  0.00  0.00    +0.000 A 
ATOM      2  C   UNL     1       4.766   6.455  16.838  0.00  0.00    +0.000 A 
ATOM      3  C   UNL     1       5.448   5.506  16.070  0.00  0.00    +0.000 A 
ATOM      4  C   UNL     1       5.247   4.176  16.315  0.00  0.00    +0.000 A 
ATOM      5  C   UNL     1       4.355   3.862  17.329  0.00  0.00    +0.000 A 
ATOM      6  N   UNL     1       4.707   2.738  18.128  0.00  0.00    +0.000 N 
ATOM      7  C   UNL     1       4.215   2.670  19.415  0.00  0.00    +0.000 A 
ATOM      8  O   UNL     1       4.881   2.345  20.390  0.00  0.00    +0.000 OA
ATOM      9  C   UNL     1       2.823   3.026  19.409  0.00  0.00    +0.000 A 
ATOM     10  S   UNL     1       1.680   1.876  19.914  0.00  0.00    +0.000 S 
ATOM     11  C   UNL     1       0.580   2.467  18.747  0.00  0.00    +0.000 A 
ATOM     12  C   UNL     1       1.016   3.648  18.168  0.00  0.00    +0.000 A 
ATOM     13  C   UNL     1       2.332   4.061  18.624  0.00  0.00    +0.000 A 
ATOM     14  C   UNL     1       3.394   4.790  17.856  0.00  0.00    +0.000 A 
ATOM     15  H   UNL     1       4.787   1.855  17.639  0.00  0.00    +0.000 HD
ENDROOT
BRANCH   1  19
ATOM     16  C   UNL     1       1.153   9.191  19.529  0.00  0.00    +0.000 A 
ATOM     17  C   UNL     1       1.639   8.095  20.232  0.00  0.00    +0.000 A 
ATOM     18  C   UNL     1       2.598   7.262  19.667  0.00  0.00    +0.000 A 
ATOM     19  C   UNL     1       2.983   7.349  18.311  0.00  0.00    +0.000 A 
ATOM     20  C   UNL     1       2.488   8.455  17.598  0.00  0.00    +0.000 A 
ATOM     21  C   UNL     1       1.599   9.375  18.210  0.00  0.00    +0.000 A 
BRANCH  16  22
ATOM     22  C   UNL     1       0.225  10.152  20.250  0.00  0.00    +0.000 C 
BRANCH  22  23
ATOM     23  C   UNL     1      -0.394   9.436  21.468  0.00  0.00    +0.000 C 
BRANCH  23  24
ATOM     24  C   UNL     1      -0.439  10.237  22.761  0.00  0.00    +0.000 C 
BRANCH  24  25
ATOM     25  N   UNL     1       0.344   9.620  23.825  0.00  0.00    +0.000 NA
ATOM     26  H   UNL     1      -0.294   9.218  24.513  0.00  0.00    +0.000 HD
ATOM     27  H   UNL     1       0.871  10.336  24.322  0.00  0.00    +0.000 HD
ENDBRANCH  24  25
ENDBRANCH  23  24
ENDBRANCH  22  23
ENDBRANCH  16  22
ENDBRANCH   1  19
BRANCH   2  28
ATOM     28  O   UNL     1       5.399   7.688  16.829  0.00  0.00    +0.000 OA
ATOM     29  H   UNL     1       6.219   7.569  16.314  0.00  0.00    +0.000 HD
ENDBRANCH   2  28
TORSDOF 6
ENDMDL
MODEL 2
REMARK VINA RESULT:      -8.2      1.582      1.777
REMARK  Name = 
REMARK  6 active torsions:
REMARK  status: ('A' for Active; 'I' for Inactive)
REMARK    1  A    between atoms: N_1  and  C_2
REMARK    2  A    between atoms: C_2  and  C_3
REMARK    3  A    between atoms: C_3  and  C_4
REMARK    4  A    between atoms: C_4  and  C_5
REMARK    5  A    between atoms: C_8  and  C_9
REMARK    6  A    between atoms: C_10  and  O_11
REMARK                            x       y       z     vdW  Elec       q    Type
REMARK                         _______ _______ _______ _____ _____    ______ ____
ROOT
ATOM      1  C   UNL     1       3.649   6.091  17.569  0.00  0.00    +0.000 A 
ATOM      2  C   UNL     1       4.776   6.374  16.715  0.00  0.00    +0.000 A 
ATOM      3  C   UNL     1       5.442   5.401  15.963  0.00  0.00    +0.000 A 
ATOM      4  C   UNL     1       5.234   4.079  16.244  0.00  0.00    +0.000 A 
ATOM      5  C   UNL     1       4.353   3.798  17.276  0.00  0.00    +0.000 A 
ATOM      6  N   UNL     1       4.706   2.691  18.098  0.00  0.00    +0.000 N 
ATOM      7  C   UNL     1       4.231   2.659  19.392  0.00  0.00    +0.000 A 
ATOM      8  O   UNL     1       4.906   2.353  20.367  0.00  0.00    +0.000 OA
ATOM      9  C   UNL     1       2.841   3.025  19.395  0.00  0.00    +0.000 A 
ATOM     10  S   UNL     1       1.697   1.896  19.943  0.00  0.00    +0.000 S 
ATOM     11  C   UNL     1       0.586   2.466  18.774  0.00  0.00    +0.000 A 
ATOM     12  C   UNL     1       1.023   3.630  18.161  0.00  0.00    +0.000 A 
ATOM     13  C   UNL     1       2.347   4.043  18.590  0.00  0.00    +0.000 A 
ATOM     14  C   UNL     1       3.406   4.745  17.791  0.00  0.00    +0.000 A 
ATOM     15  H   UNL     1       4.774   1.795  17.631  0.00  0.00    +0.000 HD
ENDROOT
BRANCH   1  19
ATOM     16  C   UNL     1       1.214   9.207  19.369  0.00  0.00    +0.000 A 
ATOM     17  C   UNL     1       1.683   8.117  20.093  0.00  0.00    +0.000 A 
ATOM     18  C   UNL     1       2.631   7.260  19.544  0.00  0.00    +0.000 A 
ATOM     19  C   UNL     1       3.019   7.318  18.187  0.00  0.00    +0.000 A 
ATOM     20  C   UNL     1       2.540   8.418  17.454  0.00  0.00    +0.000 A 
ATOM     21  C   UNL     1       1.664   9.362  18.048  0.00  0.00    +0.000 A 
BRANCH  16  22
ATOM     22  C   UNL     1       0.299  10.195  20.072  0.00  0.00    +0.000 C 
BRANCH  22  23
ATOM     23  C   UNL     1      -0.772  10.686  19.076  0.00  0.00    +0.000 C 
BRANCH  23  24
ATOM     24  C   UNL     1      -0.773  12.178  18.781  0.00  0.00    +0.000 C 
BRANCH  24  25
ATOM     25  N   UNL     1      -1.290  12.480  17.451  0.00  0.00    +0.000 NA
ATOM     26  H   UNL     1      -1.926  11.736  17.167  0.00  0.00    +0.000 HD
ATOM     27  H   UNL     1      -0.527  12.464  16.775  0.00  0.00    +0.000 HD
ENDBRANCH  24  25
ENDBRANCH  23  24
ENDBRANCH  22  23
ENDBRANCH  16  22
ENDBRANCH   1  19
BRANCH   2  28
ATOM     28  O   UNL     1       5.418   7.601  16.668  0.00  0.00    +0.000 OA
ATOM     29  H   UNL     1       4.720   8.269  16.539  0.00  0.00    +0.000 HD
ENDBRANCH   2  28
TORSDOF 6
ENDMDL
MODEL 3
REMARK VINA RESULT:      -7.8      2.385      3.928
REMARK  Name = 
REMARK  6 active torsions:
REMARK  status: ('A' for Active; 'I' for Inactive)
REMARK    1  A    between atoms: N_1  and  C_2
REMARK    2  A    between atoms: C_2  and  C_3
REMARK    3  A    between atoms: C_3  and  C_4
REMARK    4  A    between atoms: C_4  and  C_5
REMARK    5  A    between atoms: C_8  and  C_9
REMARK    6  A    between atoms: C_10  and  O_11
REMARK                            x       y       z     vdW  Elec       q    Type
REMARK                         _______ _______ _______ _____ _____    ______ ____
ROOT
ATOM      1  C   UNL     1       2.806   4.570  18.813  0.00  0.00    +0.000 A 
ATOM      2  C   UNL     1       1.957   3.409  18.702  0.00  0.00    +0.000 A 
ATOM      3  C   UNL     1       2.426   2.137  18.360  0.00  0.00    +0.000 A 
ATOM      4  C   UNL     1       3.675   2.005  17.819  0.00  0.00    +0.000 A 
ATOM      5  C   UNL     1       4.402   3.174  17.652  0.00  0.00    +0.000 A 
ATOM      6  N   UNL     1       5.195   3.239  16.472  0.00  0.00    +0.000 N 
ATOM      7  C   UNL     1       5.508   4.481  15.961  0.00  0.00    +0.000 A 
ATOM      8  O   UNL     1       5.454   4.770  14.772  0.00  0.00    +0.000 OA
ATOM      9  C   UNL     1       5.908   5.348  17.035  0.00  0.00    +0.000 A 
ATOM     10  S   UNL     1       7.480   5.988  17.030  0.00  0.00    +0.000 S 
ATOM     11  C   UNL     1       7.525   5.872  18.735  0.00  0.00    +0.000 A 
ATOM     12  C   UNL     1       6.283   5.569  19.271  0.00  0.00    +0.000 A 
ATOM     13  C   UNL     1       5.262   5.341  18.265  0.00  0.00    +0.000 A 
ATOM     14  C   UNL     1       4.092   4.404  18.325  0.00  0.00    +0.000 A 
ATOM     15  H   UNL     1       5.913   2.531  16.382  0.00  0.00    +0.000 HD
ENDROOT
BRANCH   1  19
ATOM     16  C   UNL     1       1.454   8.419  20.308  0.00  0.00    +0.000 A 
ATOM     17  C   UNL     1       1.892   8.240  19.001  0.00  0.00    +0.000 A 
ATOM     18  C   UNL     1       2.110   6.962  18.498  0.00  0.00    +0.000 A 
ATOM     19  C   UNL     1       2.097   5.807  19.313  0.00  0.00    +0.000 A 
ATOM     20  C   UNL     1       1.658   5.990  20.636  0.00  0.00    +0.000 A 
ATOM     21  C   UNL     1       1.321   7.280  21.119  0.00  0.00    +0.000 A 
BRANCH  16  22
ATOM     22  C   UNL     1       1.084   9.823  20.754  0.00  0.00    +0.000 C 
BRANCH  22  23
ATOM     23  C   UNL     1      -0.345   9.806  21.336  0.00  0.00    +0.000 C 
BRANCH  23  24
ATOM     24  C   UNL     1      -0.507  10.406  22.724  0.00  0.00    +0.000 C 
BRANCH  24  25
ATOM     25  N   UNL     1       0.131   9.598  23.757  0.00  0.00    +0.000 NA
ATOM     26  H   UNL     1      -0.301   9.811  24.656  0.00  0.00    +0.000 HD
ATOM     27  H   UNL     1       1.109   9.870  23.849  0.00  0.00    +0.000 HD
ENDBRANCH  24  25
ENDBRANCH  23  24
ENDBRANCH  22  23
ENDBRANCH  16  22
ENDBRANCH   1  19
BRANCH   2  28
ATOM     28  O   UNL     1       0.574   3.457  18.766  0.00  0.00    +0.000 OA
ATOM     29  H   UNL     1       0.310   2.808  19.445  0.00  0.00    +0.000 HD
ENDBRANCH   2  28
TORSDOF 6
ENDMDL
MODEL 4
REMARK VINA RESULT:      -7.8      1.014      1.235
REMARK  Name = 
REMARK  6 active torsions:
REMARK  status: ('A' for Active; 'I' for Inactive)
REMARK    1  A    between atoms: N_1  and  C_2
REMARK    2  A    between atoms: C_2  and  C_3
REMARK    3  A    between atoms: C_3  and  C_4
REMARK    4  A    between atoms: C_4  and  C_5
REMARK    5  A    between atoms: C_8  and  C_9
REMARK    6  A    between atoms: C_10  and  O_11
REMARK                            x       y       z     vdW  Elec       q    Type
REMARK                         _______ _______ _______ _____ _____    ______ ____
ROOT
ATOM      1  C   UNL     1       3.572   6.153  17.676  0.00  0.00    +0.000 A 
ATOM      2  C   UNL     1       4.693   6.486  16.832  0.00  0.00    +0.000 A 
ATOM      3  C   UNL     1       5.373   5.553  16.043  0.00  0.00    +0.000 A 
ATOM      4  C   UNL     1       5.187   4.218  16.274  0.00  0.00    +0.000 A 
ATOM      5  C   UNL     1       4.312   3.883  17.296  0.00  0.00    +0.000 A 
ATOM      6  N   UNL     1       4.685   2.753  18.076  0.00  0.00    +0.000 N 
ATOM      7  C   UNL     1       4.213   2.665  19.368  0.00  0.00    +0.000 A 
ATOM      8  O   UNL     1       4.895   2.333  20.330  0.00  0.00    +0.000 OA
ATOM      9  C   UNL     1       2.818   3.007  19.387  0.00  0.00    +0.000 A 
ATOM     10  S   UNL     1       1.693   1.841  19.894  0.00  0.00    +0.000 S 
ATOM     11  C   UNL     1       0.571   2.436  18.749  0.00  0.00    +0.000 A 
ATOM     12  C   UNL     1       0.988   3.629  18.180  0.00  0.00    +0.000 A 
ATOM     13  C   UNL     1       2.306   4.047  18.621  0.00  0.00    +0.000 A 
ATOM     14  C   UNL     1       3.351   4.796  17.848  0.00  0.00    +0.000 A 
ATOM     15  H   UNL     1       4.767   1.876  17.575  0.00  0.00    +0.000 HD
ENDROOT
BRANCH   1  19
ATOM     16  C   UNL     1       1.097   9.152  19.614  0.00  0.00    +0.000 A 
ATOM     17  C   UNL     1       1.612   8.057  20.297  0.00  0.00    +0.000 A 
ATOM     18  C   UNL     1       2.570   7.242  19.704  0.00  0.00    +0.000 A 
ATOM     19  C   UNL     1       2.924   7.345  18.341  0.00  0.00    +0.000 A 
ATOM     20  C   UNL     1       2.399   8.450  17.649  0.00  0.00    +0.000 A 
ATOM     21  C   UNL     1       1.511   9.354  18.288  0.00  0.00    +0.000 A 
BRANCH  16  22
ATOM     22  C   UNL     1       0.172  10.096  20.364  0.00  0.00    +0.000 C 
BRANCH  22  23
ATOM     23  C   UNL     1      -0.012  11.383  19.535  0.00  0.00    +0.000 C 
BRANCH  23  24
ATOM     24  C   UNL     1       0.443  12.674  20.200  0.00  0.00    +0.000 C 
BRANCH  24  25
ATOM     25  N   UNL     1       1.575  12.470  21.096  0.00  0.00    +0.000 NA
ATOM     26  H   UNL     1       2.382  12.975  20.729  0.00  0.00    +0.000 HD
ATOM     27  H   UNL     1       1.840  11.485  21.093  0.00  0.00    +0.000 HD
ENDBRANCH  24  25
ENDBRANCH  23  24
ENDBRANCH  22  23
ENDBRANCH  16  22
ENDBRANCH   1  19
BRANCH   2  28
ATOM     28  O   UNL     1       5.315   7.724  16.830  0.00  0.00    +0.000 OA
ATOM     29  H   UNL     1       6.238   7.566  17.105  0.00  0.00    +0.000 HD
ENDBRANCH   2  28
TORSDOF 6
ENDMDL
MODEL 5
REMARK VINA RESULT:      -7.7      2.831      4.116
REMARK  Name = 
REMARK  6 active torsions:
REMARK  status: ('A' for Active; 'I' for Inactive)
REMARK    1  A    between atoms: N_1  and  C_2
REMARK    2  A    between atoms: C_2  and  C_3
REMARK    3  A    between atoms: C_3  and  C_4
REMARK    4  A    between atoms: C_4  and  C_5
REMARK    5  A    between atoms: C_8  and  C_9
REMARK    6  A    between atoms: C_10  and  O_11
REMARK                            x       y       z     vdW  Elec       q    Type
REMARK                         _______ _______ _______ _____ _____    ______ ____
ROOT
ATOM      1  C   UNL     1       2.859   5.303  19.644  0.00  0.00    +0.000 A 
ATOM      2  C   UNL     1       1.829   4.376  20.044  0.00  0.00    +0.000 A 
ATOM      3  C   UNL     1       2.025   2.995  20.144  0.00  0.00    +0.000 A 
ATOM      4  C   UNL     1       3.132   2.432  19.570  0.00  0.00    +0.000 A 
ATOM      5  C   UNL     1       3.999   3.298  18.921  0.00  0.00    +0.000 A 
ATOM      6  N   UNL     1       4.587   2.793  17.728  0.00  0.00    +0.000 N 
ATOM      7  C   UNL     1       5.006   3.695  16.772  0.00  0.00    +0.000 A 
ATOM      8  O   UNL     1       4.805   3.569  15.571  0.00  0.00    +0.000 OA
ATOM      9  C   UNL     1       5.711   4.771  17.414  0.00  0.00    +0.000 A 
ATOM     10  S   UNL     1       7.343   5.030  17.024  0.00  0.00    +0.000 S 
ATOM     11  C   UNL     1       7.648   5.491  18.643  0.00  0.00    +0.000 A 
ATOM     12  C   UNL     1       6.479   5.653  19.369  0.00  0.00    +0.000 A 
ATOM     13  C   UNL     1       5.283   5.314  18.618  0.00  0.00    +0.000 A 
ATOM     14  C   UNL     1       4.004   4.718  19.127  0.00  0.00    +0.000 A 
ATOM     15  H   UNL     1       5.159   1.963  17.832  0.00  0.00    +0.000 HD
ENDROOT
BRANCH   1  19
ATOM     16  C   UNL     1       0.982   9.215  19.878  0.00  0.00    +0.000 A 
ATOM     17  C   UNL     1       1.057   8.358  20.971  0.00  0.00    +0.000 A 
ATOM     18  C   UNL     1       1.849   7.216  20.919  0.00  0.00    +0.000 A 
ATOM     19  C   UNL     1       2.449   6.755  19.726  0.00  0.00    +0.000 A 
ATOM     20  C   UNL     1       2.369   7.620  18.620  0.00  0.00    +0.000 A 
ATOM     21  C   UNL     1       1.659   8.845  18.705  0.00  0.00    +0.000 A 
BRANCH  16  22
ATOM     22  C   UNL     1       0.229  10.523  20.044  0.00  0.00    +0.000 C 
BRANCH  22  23
ATOM     23  C   UNL     1      -0.919  10.577  19.015  0.00  0.00    +0.000 C 
BRANCH  23  24
ATOM     24  C   UNL     1      -1.498  11.955  18.733  0.00  0.00    +0.000 C 
BRANCH  24  25
ATOM     25  N   UNL     1      -1.511  12.272  17.309  0.00  0.00    +0.000 NA
ATOM     26  H   UNL     1      -1.750  13.256  17.192  0.00  0.00    +0.000 HD
ATOM     27  H   UNL     1      -2.256  11.750  16.849  0.00  0.00    +0.000 HD
ENDBRANCH  24  25
ENDBRANCH  23  24
ENDBRANCH  22  23
ENDBRANCH  16  22
ENDBRANCH   1  19
BRANCH   2  28
ATOM     28  O   UNL     1       0.500   4.729  20.220  0.00  0.00    +0.000 OA
ATOM     29  H   UNL     1       0.000   3.893  20.264  0.00  0.00    +0.000 HD
ENDBRANCH   2  28
TORSDOF 6
ENDMDL
MODEL 6
REMARK VINA RESULT:      -7.6      2.814      4.316
REMARK  Name = 
REMARK  6 active torsions:
REMARK  status: ('A' for Active; 'I' for Inactive)
REMARK    1  A    between atoms: N_1  and  C_2
REMARK    2  A    between atoms: C_2  and  C_3
REMARK    3  A    between atoms: C_3  and  C_4
REMARK    4  A    between atoms: C_4  and  C_5
REMARK    5  A    between atoms: C_8  and  C_9
REMARK    6  A    between atoms: C_10  and  O_11
REMARK                            x       y       z     vdW  Elec       q    Type
REMARK                         _______ _______ _______ _____ _____    ______ ____
ROOT
ATOM      1  C   UNL     1       2.792   4.611  18.920  0.00  0.00    +0.000 A 
ATOM      2  C   UNL     1       1.945   3.446  18.988  0.00  0.00    +0.000 A 
ATOM      3  C   UNL     1       2.406   2.140  18.798  0.00  0.00    +0.000 A 
ATOM      4  C   UNL     1       3.638   1.939  18.237  0.00  0.00    +0.000 A 
ATOM      5  C   UNL     1       4.354   3.076  17.896  0.00  0.00    +0.000 A 
ATOM      6  N   UNL     1       5.107   2.987  16.691  0.00  0.00    +0.000 N 
ATOM      7  C   UNL     1       5.397   4.153  16.013  0.00  0.00    +0.000 A 
ATOM      8  O   UNL     1       5.303   4.285  14.799  0.00  0.00    +0.000 OA
ATOM      9  C   UNL     1       5.830   5.151  16.952  0.00  0.00    +0.000 A 
ATOM     10  S   UNL     1       7.399   5.784  16.811  0.00  0.00    +0.000 S 
ATOM     11  C   UNL     1       7.501   5.890  18.514  0.00  0.00    +0.000 A 
ATOM     12  C   UNL     1       6.280   5.660  19.127  0.00  0.00    +0.000 A 
ATOM     13  C   UNL     1       5.226   5.303  18.193  0.00  0.00    +0.000 A 
ATOM     14  C   UNL     1       4.062   4.383  18.413  0.00  0.00    +0.000 A 
ATOM     15  H   UNL     1       5.824   2.273  16.669  0.00  0.00    +0.000 HD
ENDROOT
BRANCH   1  19
ATOM     16  C   UNL     1       1.478   8.619  19.963  0.00  0.00    +0.000 A 
ATOM     17  C   UNL     1       1.894   8.282  18.680  0.00  0.00    +0.000 A 
ATOM     18  C   UNL     1       2.099   6.952  18.331  0.00  0.00    +0.000 A 
ATOM     19  C   UNL     1       2.096   5.904  19.278  0.00  0.00    +0.000 A 
ATOM     20  C   UNL     1       1.679   6.246  20.577  0.00  0.00    +0.000 A 
ATOM     21  C   UNL     1       1.355   7.587  20.906  0.00  0.00    +0.000 A 
BRANCH  16  22
ATOM     22  C   UNL     1       1.120  10.068  20.243  0.00  0.00    +0.000 C 
BRANCH  22  23
ATOM     23  C   UNL     1       0.992  10.823  18.905  0.00  0.00    +0.000 C 
BRANCH  23  24
ATOM     24  C   UNL     1       1.756  12.135  18.803  0.00  0.00    +0.000 C 
BRANCH  24  25
ATOM     25  N   UNL     1       2.537  12.229  17.575  0.00  0.00    +0.000 NA
ATOM     26  H   UNL     1       1.945  11.970  16.786  0.00  0.00    +0.000 HD
ATOM     27  H   UNL     1       3.289  11.542  17.594  0.00  0.00    +0.000 HD
ENDBRANCH  24  25
ENDBRANCH  23  24
ENDBRANCH  22  23
ENDBRANCH  16  22
ENDBRANCH   1  19
BRANCH   2  28
ATOM     28  O   UNL     1       0.564   3.503  19.092  0.00  0.00    +0.000 OA
ATOM     29  H   UNL     1       0.334   3.040  19.918  0.00  0.00    +0.000 HD
ENDBRANCH   2  28
TORSDOF 6
ENDMDL
MODEL 7
REMARK VINA RESULT:      -7.6      4.076      5.722
REMARK  Name = 
REMARK  6 active torsions:
REMARK  status: ('A' for Active; 'I' for Inactive)
REMARK    1  A    between atoms: N_1  and  C_2
REMARK    2  A    between atoms: C_2  and  C_3
REMARK    3  A    between atoms: C_3  and  C_4
REMARK    4  A    between atoms: C_4  and  C_5
REMARK    5  A    between atoms: C_8  and  C_9
REMARK    6  A    between atoms: C_10  and  O_11
REMARK                            x       y       z     vdW  Elec       q    Type
REMARK                         _______ _______ _______ _____ _____    ______ ____
ROOT
ATOM      1  C   UNL     1       6.153   5.749  16.805  0.00  0.00    +0.000 A 
ATOM      2  C   UNL     1       6.563   5.080  15.595  0.00  0.00    +0.000 A 
ATOM      3  C   UNL     1       5.787   4.119  14.940  0.00  0.00    +0.000 A 
ATOM      4  C   UNL     1       4.728   3.553  15.595  0.00  0.00    +0.000 A 
ATOM      5  C   UNL     1       4.496   3.992  16.890  0.00  0.00    +0.000 A 
ATOM      6  N   UNL     1       4.068   2.991  17.807  0.00  0.00    +0.000 N 
ATOM      7  C   UNL     1       4.319   3.184  19.150  0.00  0.00    +0.000 A 
ATOM      8  O   UNL     1       4.741   2.315  19.903  0.00  0.00    +0.000 OA
ATOM      9  C   UNL     1       3.996   4.539  19.502  0.00  0.00    +0.000 A 
ATOM     10  S   UNL     1       2.777   4.820  20.650  0.00  0.00    +0.000 S 
ATOM     11  C   UNL     1       2.302   6.220  19.792  0.00  0.00    +0.000 A 
ATOM     12  C   UNL     1       3.209   6.559  18.800  0.00  0.00    +0.000 A 
ATOM     13  C   UNL     1       4.297   5.607  18.667  0.00  0.00    +0.000 A 
ATOM     14  C   UNL     1       5.037   5.209  17.424  0.00  0.00    +0.000 A 
ATOM     15  H   UNL     1       3.195   2.529  17.583  0.00  0.00    +0.000 HD
ENDROOT
BRANCH   1  19
ATOM     16  C   UNL     1       8.451   8.893  18.733  0.00  0.00    +0.000 A 
ATOM     17  C   UNL     1       8.535   7.562  19.124  0.00  0.00    +0.000 A 
ATOM     18  C   UNL     1       7.957   6.561  18.352  0.00  0.00    +0.000 A 
ATOM     19  C   UNL     1       7.100   6.835  17.262  0.00  0.00    +0.000 A 
ATOM     20  C   UNL     1       7.012   8.181  16.869  0.00  0.00    +0.000 A 
ATOM     21  C   UNL     1       7.698   9.195  17.587  0.00  0.00    +0.000 A 
BRANCH  16  22
ATOM     22  C   UNL     1       9.230   9.926  19.528  0.00  0.00    +0.000 C 
BRANCH  22  23
ATOM     23  C   UNL     1       9.638  11.080  18.590  0.00  0.00    +0.000 C 
BRANCH  23  24
ATOM     24  C   UNL     1      11.020  11.673  18.824  0.00  0.00    +0.000 C 
BRANCH  24  25
ATOM     25  N   UNL     1      11.901  11.500  17.675  0.00  0.00    +0.000 NA
ATOM     26  H   UNL     1      11.361  11.642  16.821  0.00  0.00    +0.000 HD
ATOM     27  H   UNL     1      12.229  10.536  17.637  0.00  0.00    +0.000 HD
ENDBRANCH  24  25
ENDBRANCH  23  24
ENDBRANCH  22  23
ENDBRANCH  16  22
ENDBRANCH   1  19
BRANCH   2  28
ATOM     28  O   UNL     1       7.827   5.198  15.039  0.00  0.00    +0.000 OA
ATOM     29  H   UNL     1       7.700   5.587  14.154  0.00  0.00    +0.000 HD
ENDBRANCH   2  28
TORSDOF 6
ENDMDL
MODEL 8
REMARK VINA RESULT:      -7.5      2.745      4.250
REMARK  Name = 
REMARK  6 active torsions:
REMARK  status: ('A' for Active; 'I' for Inactive)
REMARK    1  A    between atoms: N_1  and  C_2
REMARK    2  A    between atoms: C_2  and  C_3
REMARK    3  A    between atoms: C_3  and  C_4
REMARK    4  A    between atoms: C_4  and  C_5
REMARK    5  A    between atoms: C_8  and  C_9
REMARK    6  A    between atoms: C_10  and  O_11
REMARK                            x       y       z     vdW  Elec       q    Type
REMARK                         _______ _______ _______ _____ _____    ______ ____
ROOT
ATOM      1  C   UNL     1       2.794   4.551  18.875  0.00  0.00    +0.000 A 
ATOM      2  C   UNL     1       1.938   3.391  18.905  0.00  0.00    +0.000 A 
ATOM      3  C   UNL     1       2.392   2.087  18.685  0.00  0.00    +0.000 A 
ATOM      4  C   UNL     1       3.626   1.892  18.130  0.00  0.00    +0.000 A 
ATOM      5  C   UNL     1       4.354   3.032  17.826  0.00  0.00    +0.000 A 
ATOM      6  N   UNL     1       5.117   2.969  16.626  0.00  0.00    +0.000 N 
ATOM      7  C   UNL     1       5.422   4.149  15.981  0.00  0.00    +0.000 A 
ATOM      8  O   UNL     1       5.339   4.314  14.770  0.00  0.00    +0.000 OA
ATOM      9  C   UNL     1       5.853   5.119  16.949  0.00  0.00    +0.000 A 
ATOM     10  S   UNL     1       7.428   5.745  16.838  0.00  0.00    +0.000 S 
ATOM     11  C   UNL     1       7.515   5.805  18.545  0.00  0.00    +0.000 A 
ATOM     12  C   UNL     1       6.287   5.568  19.140  0.00  0.00    +0.000 A 
ATOM     13  C   UNL     1       5.239   5.244  18.189  0.00  0.00    +0.000 A 
ATOM     14  C   UNL     1       4.066   4.327  18.374  0.00  0.00    +0.000 A 
ATOM     15  H   UNL     1       5.830   2.250  16.592  0.00  0.00    +0.000 HD
ENDROOT
BRANCH   1  19
ATOM     16  C   UNL     1       1.497   8.546  19.990  0.00  0.00    +0.000 A 
ATOM     17  C   UNL     1       1.893   8.225  18.696  0.00  0.00    +0.000 A 
ATOM     18  C   UNL     1       2.092   6.899  18.327  0.00  0.00    +0.000 A 
ATOM     19  C   UNL     1       2.104   5.839  19.261  0.00  0.00    +0.000 A 
ATOM     20  C   UNL     1       1.708   6.165  20.570  0.00  0.00    +0.000 A 
ATOM     21  C   UNL     1       1.389   7.502  20.922  0.00  0.00    +0.000 A 
BRANCH  16  22
ATOM     22  C   UNL     1       1.144   9.991  20.294  0.00  0.00    +0.000 C 
BRANCH  22  23
ATOM     23  C   UNL     1       0.737  10.696  18.984  0.00  0.00    +0.000 C 
BRANCH  23  24
ATOM     24  C   UNL     1      -0.757  10.773  18.705  0.00  0.00    +0.000 C 
BRANCH  24  25
ATOM     25  N   UNL     1      -1.095  10.315  17.363  0.00  0.00    +0.000 NA
ATOM     26  H   UNL     1      -0.465  10.758  16.693  0.00  0.00    +0.000 HD
ATOM     27  H   UNL     1      -2.031  10.637  17.116  0.00  0.00    +0.000 HD
ENDBRANCH  24  25
ENDBRANCH  23  24
ENDBRANCH  22  23
ENDBRANCH  16  22
ENDBRANCH   1  19
BRANCH   2  28
ATOM     28  O   UNL     1       0.556   3.455  18.999  0.00  0.00    +0.000 OA
ATOM     29  H   UNL     1       0.308   4.365  18.750  0.00  0.00    +0.000 HD
ENDBRANCH   2  28
TORSDOF 6
ENDMDL
MODEL 9
REMARK VINA RESULT:      -7.5      2.821      4.140
REMARK  Name = 
REMARK  6 active torsions:
REMARK  status: ('A' for Active; 'I' for Inactive)
REMARK    1  A    between atoms: N_1  and  C_2
REMARK    2  A    between atoms: C_2  and  C_3
REMARK    3  A    between atoms: C_3  and  C_4
REMARK    4  A    between atoms: C_4  and  C_5
REMARK    5  A    between atoms: C_8  and  C_9
REMARK    6  A    between atoms: C_10  and  O_11
REMARK                            x       y       z     vdW  Elec       q    Type
REMARK                         _______ _______ _______ _____ _____    ______ ____
ROOT
ATOM      1  C   UNL     1       2.877   5.296  19.627  0.00  0.00    +0.000 A 
ATOM      2  C   UNL     1       1.839   4.375  20.022  0.00  0.00    +0.000 A 
ATOM      3  C   UNL     1       2.026   2.993  20.119  0.00  0.00    +0.000 A 
ATOM      4  C   UNL     1       3.131   2.424  19.548  0.00  0.00    +0.000 A 
ATOM      5  C   UNL     1       4.006   3.285  18.904  0.00  0.00    +0.000 A 
ATOM      6  N   UNL     1       4.595   2.780  17.711  0.00  0.00    +0.000 N 
ATOM      7  C   UNL     1       5.023   3.681  16.759  0.00  0.00    +0.000 A 
ATOM      8  O   UNL     1       4.825   3.559  15.556  0.00  0.00    +0.000 OA
ATOM      9  C   UNL     1       5.732   4.751  17.405  0.00  0.00    +0.000 A 
ATOM     10  S   UNL     1       7.368   5.000  17.022  0.00  0.00    +0.000 S 
ATOM     11  C   UNL     1       7.670   5.456  18.642  0.00  0.00    +0.000 A 
ATOM     12  C   UNL     1       6.500   5.623  19.365  0.00  0.00    +0.000 A 
ATOM     13  C   UNL     1       5.304   5.294  18.609  0.00  0.00    +0.000 A 
ATOM     14  C   UNL     1       4.020   4.706  19.113  0.00  0.00    +0.000 A 
ATOM     15  H   UNL     1       5.160   1.946  17.815  0.00  0.00    +0.000 HD
ENDROOT
BRANCH   1  19
ATOM     16  C   UNL     1       1.025   9.219  19.879  0.00  0.00    +0.000 A 
ATOM     17  C   UNL     1       1.114   8.366  20.973  0.00  0.00    +0.000 A 
ATOM     18  C   UNL     1       1.898   7.219  20.912  0.00  0.00    +0.000 A 
ATOM     19  C   UNL     1       2.476   6.751  19.711  0.00  0.00    +0.000 A 
ATOM     20  C   UNL     1       2.382   7.613  18.604  0.00  0.00    +0.000 A 
ATOM     21  C   UNL     1       1.681   8.842  18.696  0.00  0.00    +0.000 A 
BRANCH  16  22
ATOM     22  C   UNL     1       0.282  10.532  20.052  0.00  0.00    +0.000 C 
BRANCH  22  23
ATOM     23  C   UNL     1       0.479  11.393  18.787  0.00  0.00    +0.000 C 
BRANCH  23  24
ATOM     24  C   UNL     1       1.631  12.386  18.829  0.00  0.00    +0.000 C 
BRANCH  24  25
ATOM     25  N   UNL     1       2.459  12.327  17.630  0.00  0.00    +0.000 NA
ATOM     26  H   UNL     1       3.371  11.944  17.878  0.00  0.00    +0.000 HD
ATOM     27  H   UNL     1       2.639  13.272  17.292  0.00  0.00    +0.000 HD
ENDBRANCH  24  25
ENDBRANCH  23  24
ENDBRANCH  22  23
ENDBRANCH  16  22
ENDBRANCH   1  19
BRANCH   2  28
ATOM     28  O   UNL     1       0.512   4.737  20.194  0.00  0.00    +0.000 OA
ATOM     29  H   UNL     1       0.201   4.262  20.987  0.00  0.00    +0.000 HD
ENDBRANCH   2  28
TORSDOF 6
ENDMDL
