MODEL 1
REMARK VINA RESULT:      -9.0      0.000      0.000
REMARK  Name = 
REMARK  6 active torsions:
REMARK  status: ('A' for Active; 'I' for Inactive)
REMARK    1  A    between atoms: C_2  and  C_3
REMARK    2  A    between atoms: C_7  and  S_8
REMARK    3  A    between atoms: S_8  and  C_9
REMARK    4  A    between atoms: C_9  and  C_10
REMARK    5  A    between atoms: C_13  and  C_14
REMARK    6  A    between atoms: C_23  and  C_24
REMARK                            x       y       z     vdW  Elec       q    Type
REMARK                         _______ _______ _______ _____ _____    ______ ____
ROOT
ATOM      1  C   UNL     1       2.695   3.822  19.408  0.00  0.00    +0.000 A 
ATOM      2  C   UNL     1       1.586   4.030  20.214  0.00  0.00    +0.000 A 
ATOM      3  N   UNL     1       0.687   3.008  20.524  0.00  0.00    +0.000 N 
ATOM      4  N   UNL     1       1.240   5.240  20.667  0.00  0.00    +0.000 NA
ATOM      5  C   UNL     1       2.009   6.281  20.313  0.00  0.00    +0.000 A 
ATOM      6  N   UNL     1       3.079   6.193  19.509  0.00  0.00    +0.000 NA
ATOM      7  C   UNL     1       3.414   4.956  19.042  0.00  0.00    +0.000 A 
ATOM      8  H   UNL     1       1.102   2.133  20.830  0.00  0.00    +0.000 HD
ATOM      9  H   UNL     1      -0.013   3.358  21.174  0.00  0.00    +0.000 HD
ENDROOT
BRANCH   7  10
ATOM     10  C   UNL     1       4.579   4.945  18.113  0.00  0.00    +0.000 A 
ATOM     11  C   UNL     1       5.905   5.085  18.606  0.00  0.00    +0.000 A 
ATOM     12  C   UNL     1       7.020   5.095  17.752  0.00  0.00    +0.000 A 
ATOM     13  C   UNL     1       6.798   4.956  16.401  0.00  0.00    +0.000 A 
ATOM     14  C   UNL     1       5.530   4.823  15.901  0.00  0.00    +0.000 A 
ATOM     15  C   UNL     1       4.418   4.833  16.717  0.00  0.00    +0.000 A 
ATOM     16  O   UNL     1       5.508   4.701  14.548  0.00  0.00    +0.000 OA
ATOM     17  C   UNL     1       6.912   4.820  14.246  0.00  0.00    +0.000 C 
ATOM     18  O   UNL     1       7.741   4.949  15.422  0.00  0.00    +0.000 OA
ENDBRANCH   7  10
BRANCH   1  20
ATOM     19  N   UNL     1       3.308   1.398  18.733  0.00  0.00    +0.000 NA
ATOM     20  C   UNL     1       3.049   2.487  19.036  0.00  0.00    +0.000 C 
ENDBRANCH   1  20
BRANCH   5  21
ATOM     21  S   UNL     1       1.584   7.822  21.082  0.00  0.00    +0.000 S 
BRANCH  21  22
ATOM     22  C   UNL     1       1.789   8.988  19.698  0.00  0.00    +0.000 C 
BRANCH  22  23
ATOM     23  C   UNL     1       0.499   9.699  19.424  0.00  0.00    +0.000 A 
ATOM     24  C   UNL     1      -0.182  10.609  20.196  0.00  0.00    +0.000 A 
ATOM     25  O   UNL     1      -1.298  11.005  19.521  0.00  0.00    +0.000 OA
ATOM     26  C   UNL     1      -1.249  10.300  18.345  0.00  0.00    +0.000 A 
ATOM     27  N   UNL     1      -0.204   9.493  18.251  0.00  0.00    +0.000 NA
BRANCH  26  28
ATOM     28  C   UNL     1      -2.317  10.544  17.377  0.00  0.00    +0.000 A 
ATOM     29  C   UNL     1      -2.250   9.943  16.108  0.00  0.00    +0.000 A 
ATOM     30  C   UNL     1      -3.234  10.177  15.142  0.00  0.00    +0.000 A 
ATOM     31  C   UNL     1      -4.305  11.016  15.436  0.00  0.00    +0.000 A 
ATOM     32  C   UNL     1      -4.384  11.604  16.692  0.00  0.00    +0.000 A 
ATOM     33  F   UNL     1      -5.416  12.412  16.974  0.00  0.00    +0.000 F 
ATOM     34  C   UNL     1      -3.409  11.376  17.661  0.00  0.00    +0.000 A 
ENDBRANCH  26  28
ENDBRANCH  22  23
ENDBRANCH  21  22
ENDBRANCH   5  21
TORSDOF 6
ENDMDL
MODEL 2
REMARK VINA RESULT:      -9.0      0.954      1.013
REMARK  Name = 
REMARK  6 active torsions:
REMARK  status: ('A' for Active; 'I' for Inactive)
REMARK    1  A    between atoms: C_2  and  C_3
REMARK    2  A    between atoms: C_7  and  S_8
REMARK    3  A    between atoms: S_8  and  C_9
REMARK    4  A    between atoms: C_9  and  C_10
REMARK    5  A    between atoms: C_13  and  C_14
REMARK    6  A    between atoms: C_23  and  C_24
REMARK                            x       y       z     vdW  Elec       q    Type
REMARK                         _______ _______ _______ _____ _____    ______ ____
ROOT
ATOM      1  C   UNL     1       3.552   3.883  20.055  0.00  0.00    +0.000 A 
ATOM      2  C   UNL     1       2.508   4.065  20.949  0.00  0.00    +0.000 A 
ATOM      3  N   UNL     1       1.994   3.021  21.718  0.00  0.00    +0.000 N 
ATOM      4  N   UNL     1       1.852   5.226  21.063  0.00  0.00    +0.000 NA
ATOM      5  C   UNL     1       2.233   6.239  20.271  0.00  0.00    +0.000 A 
ATOM      6  N   UNL     1       3.204   6.155  19.350  0.00  0.00    +0.000 NA
ATOM      7  C   UNL     1       3.858   4.963  19.232  0.00  0.00    +0.000 A 
ATOM      8  H   UNL     1       2.680   2.445  22.196  0.00  0.00    +0.000 HD
ATOM      9  H   UNL     1       1.280   3.383  22.347  0.00  0.00    +0.000 HD
ENDROOT
BRANCH   7  10
ATOM     10  C   UNL     1       4.884   4.929  18.153  0.00  0.00    +0.000 A 
ATOM     11  C   UNL     1       6.241   5.256  18.427  0.00  0.00    +0.000 A 
ATOM     12  C   UNL     1       7.226   5.249  17.426  0.00  0.00    +0.000 A 
ATOM     13  C   UNL     1       6.844   4.905  16.150  0.00  0.00    +0.000 A 
ATOM     14  C   UNL     1       5.544   4.589  15.859  0.00  0.00    +0.000 A 
ATOM     15  C   UNL     1       4.554   4.611  16.819  0.00  0.00    +0.000 A 
ATOM     16  O   UNL     1       5.357   4.280  14.549  0.00  0.00    +0.000 OA
ATOM     17  C   UNL     1       6.688   4.483  14.035  0.00  0.00    +0.000 C 
ATOM     18  O   UNL     1       7.645   4.848  15.053  0.00  0.00    +0.000 OA
ENDBRANCH   7  10
BRANCH   1  20
ATOM     19  N   UNL     1       4.812   1.620  20.059  0.00  0.00    +0.000 NA
ATOM     20  C   UNL     1       4.262   2.641  20.053  0.00  0.00    +0.000 C 
ENDBRANCH   1  20
BRANCH   5  21
ATOM     21  S   UNL     1       1.429   7.787  20.594  0.00  0.00    +0.000 S 
BRANCH  21  22
ATOM     22  C   UNL     1       1.868   8.742  19.108  0.00  0.00    +0.000 C 
BRANCH  22  23
ATOM     23  C   UNL     1       0.853   9.816  18.862  0.00  0.00    +0.000 A 
ATOM     24  C   UNL     1       0.958  11.176  19.029  0.00  0.00    +0.000 A 
ATOM     25  O   UNL     1      -0.219  11.753  18.653  0.00  0.00    +0.000 OA
ATOM     26  C   UNL     1      -1.007  10.696  18.271  0.00  0.00    +0.000 A 
ATOM     27  N   UNL     1      -0.415   9.519  18.397  0.00  0.00    +0.000 NA
BRANCH  26  28
ATOM     28  C   UNL     1      -2.344  11.009  17.773  0.00  0.00    +0.000 A 
ATOM     29  C   UNL     1      -2.677  10.695  16.443  0.00  0.00    +0.000 A 
ATOM     30  C   UNL     1      -3.935  11.006  15.917  0.00  0.00    +0.000 A 
ATOM     31  C   UNL     1      -4.883  11.636  16.720  0.00  0.00    +0.000 A 
ATOM     32  C   UNL     1      -4.564  11.940  18.037  0.00  0.00    +0.000 A 
ATOM     33  F   UNL     1      -5.478  12.547  18.809  0.00  0.00    +0.000 F 
ATOM     34  C   UNL     1      -3.315  11.632  18.570  0.00  0.00    +0.000 A 
ENDBRANCH  26  28
ENDBRANCH  22  23
ENDBRANCH  21  22
ENDBRANCH   5  21
TORSDOF 6
ENDMDL
MODEL 3
REMARK VINA RESULT:      -9.0      4.896      8.855
REMARK  Name = 
REMARK  6 active torsions:
REMARK  status: ('A' for Active; 'I' for Inactive)
REMARK    1  A    between atoms: C_2  and  C_3
REMARK    2  A    between atoms: C_7  and  S_8
REMARK    3  A    between atoms: S_8  and  C_9
REMARK    4  A    between atoms: C_9  and  C_10
REMARK    5  A    between atoms: C_13  and  C_14
REMARK    6  A    between atoms: C_23  and  C_24
REMARK                            x       y       z     vdW  Elec       q    Type
REMARK                         _______ _______ _______ _____ _____    ______ ____
ROOT
ATOM      1  C   UNL     1       2.849   4.489  19.204  0.00  0.00    +0.000 A 
ATOM      2  C   UNL     1       3.722   3.446  18.932  0.00  0.00    +0.000 A 
ATOM      3  N   UNL     1       3.539   2.166  19.457  0.00  0.00    +0.000 N 
ATOM      4  N   UNL     1       4.852   3.614  18.237  0.00  0.00    +0.000 NA
ATOM      5  C   UNL     1       5.135   4.849  17.796  0.00  0.00    +0.000 A 
ATOM      6  N   UNL     1       4.378   5.930  18.035  0.00  0.00    +0.000 NA
ATOM      7  C   UNL     1       3.235   5.750  18.757  0.00  0.00    +0.000 A 
ATOM      8  H   UNL     1       2.603   1.783  19.371  0.00  0.00    +0.000 HD
ATOM      9  H   UNL     1       4.252   1.542  19.085  0.00  0.00    +0.000 HD
ENDROOT
BRANCH   7  10
ATOM     10  C   UNL     1       2.476   7.002  19.028  0.00  0.00    +0.000 A 
ATOM     11  C   UNL     1       2.191   7.923  17.982  0.00  0.00    +0.000 A 
ATOM     12  C   UNL     1       1.492   9.119  18.213  0.00  0.00    +0.000 A 
ATOM     13  C   UNL     1       1.073   9.384  19.496  0.00  0.00    +0.000 A 
ATOM     14  C   UNL     1       1.337   8.514  20.521  0.00  0.00    +0.000 A 
ATOM     15  C   UNL     1       2.041   7.345  20.325  0.00  0.00    +0.000 A 
ATOM     16  O   UNL     1       0.850   8.945  21.715  0.00  0.00    +0.000 OA
ATOM     17  C   UNL     1       0.286  10.214  21.331  0.00  0.00    +0.000 C 
ATOM     18  O   UNL     1       0.394  10.484  19.916  0.00  0.00    +0.000 OA
ENDBRANCH   7  10
BRANCH   1  20
ATOM     19  N   UNL     1       0.609   4.017  20.414  0.00  0.00    +0.000 NA
ATOM     20  C   UNL     1       1.618   4.214  19.876  0.00  0.00    +0.000 C 
ENDBRANCH   1  20
BRANCH   5  21
ATOM     21  S   UNL     1       6.562   4.962  16.747  0.00  0.00    +0.000 S 
BRANCH  21  22
ATOM     22  C   UNL     1       6.635   6.751  16.425  0.00  0.00    +0.000 C 
BRANCH  22  23
ATOM     23  C   UNL     1       7.485   7.430  17.455  0.00  0.00    +0.000 A 
ATOM     24  C   UNL     1       8.085   6.910  18.577  0.00  0.00    +0.000 A 
ATOM     25  O   UNL     1       8.781   7.905  19.199  0.00  0.00    +0.000 OA
ATOM     26  C   UNL     1       8.565   9.010  18.415  0.00  0.00    +0.000 A 
ATOM     27  N   UNL     1       7.781   8.778  17.373  0.00  0.00    +0.000 NA
BRANCH  26  28
ATOM     28  C   UNL     1       9.226  10.250  18.816  0.00  0.00    +0.000 A 
ATOM     29  C   UNL     1       9.810  11.069  17.834  0.00  0.00    +0.000 A 
ATOM     30  C   UNL     1      10.481  12.248  18.177  0.00  0.00    +0.000 A 
ATOM     31  C   UNL     1      10.573  12.625  19.515  0.00  0.00    +0.000 A 
ATOM     32  C   UNL     1       9.989  11.825  20.489  0.00  0.00    +0.000 A 
ATOM     33  F   UNL     1      10.079  12.190  21.776  0.00  0.00    +0.000 F 
ATOM     34  C   UNL     1       9.317  10.651  20.156  0.00  0.00    +0.000 A 
ENDBRANCH  26  28
ENDBRANCH  22  23
ENDBRANCH  21  22
ENDBRANCH   5  21
TORSDOF 6
ENDMDL
MODEL 4
REMARK VINA RESULT:      -8.9      4.761      8.671
REMARK  Name = 
REMARK  6 active torsions:
REMARK  status: ('A' for Active; 'I' for Inactive)
REMARK    1  A    between atoms: C_2  and  C_3
REMARK    2  A    between atoms: C_7  and  S_8
REMARK    3  A    between atoms: S_8  and  C_9
REMARK    4  A    between atoms: C_9  and  C_10
REMARK    5  A    between atoms: C_13  and  C_14
REMARK    6  A    between atoms: C_23  and  C_24
REMARK                            x       y       z     vdW  Elec       q    Type
REMARK                         _______ _______ _______ _____ _____    ______ ____
ROOT
ATOM      1  C   UNL     1       2.934   4.582  19.408  0.00  0.00    +0.000 A 
ATOM      2  C   UNL     1       3.825   3.531  19.252  0.00  0.00    +0.000 A 
ATOM      3  N   UNL     1       3.642   2.298  19.880  0.00  0.00    +0.000 N 
ATOM      4  N   UNL     1       4.973   3.655  18.577  0.00  0.00    +0.000 NA
ATOM      5  C   UNL     1       5.256   4.851  18.039  0.00  0.00    +0.000 A 
ATOM      6  N   UNL     1       4.480   5.938  18.163  0.00  0.00    +0.000 NA
ATOM      7  C   UNL     1       3.318   5.805  18.866  0.00  0.00    +0.000 A 
ATOM      8  H   UNL     1       2.713   1.898  19.802  0.00  0.00    +0.000 HD
ATOM      9  H   UNL     1       4.372   1.655  19.583  0.00  0.00    +0.000 HD
ENDROOT
BRANCH   7  10
ATOM     10  C   UNL     1       2.538   7.066  19.007  0.00  0.00    +0.000 A 
ATOM     11  C   UNL     1       2.331   7.924  17.892  0.00  0.00    +0.000 A 
ATOM     12  C   UNL     1       1.614   9.127  18.000  0.00  0.00    +0.000 A 
ATOM     13  C   UNL     1       1.098   9.460  19.231  0.00  0.00    +0.000 A 
ATOM     14  C   UNL     1       1.285   8.652  20.321  0.00  0.00    +0.000 A 
ATOM     15  C   UNL     1       2.005   7.479  20.246  0.00  0.00    +0.000 A 
ATOM     16  O   UNL     1       0.708   9.146  21.448  0.00  0.00    +0.000 OA
ATOM     17  C   UNL     1       0.172  10.388  20.951  0.00  0.00    +0.000 C 
ATOM     18  O   UNL     1       0.386  10.578  19.535  0.00  0.00    +0.000 OA
ENDBRANCH   7  10
BRANCH   1  20
ATOM     19  N   UNL     1       0.687   4.135  20.616  0.00  0.00    +0.000 NA
ATOM     20  C   UNL     1       1.687   4.349  20.068  0.00  0.00    +0.000 C 
ENDBRANCH   1  20
BRANCH   5  21
ATOM     21  S   UNL     1       6.710   4.893  17.025  0.00  0.00    +0.000 S 
BRANCH  21  22
ATOM     22  C   UNL     1       6.743   6.638  16.507  0.00  0.00    +0.000 C 
BRANCH  22  23
ATOM     23  C   UNL     1       7.540   7.453  17.480  0.00  0.00    +0.000 A 
ATOM     24  C   UNL     1       8.168   7.066  18.639  0.00  0.00    +0.000 A 
ATOM     25  O   UNL     1       8.793   8.152  19.179  0.00  0.00    +0.000 OA
ATOM     26  C   UNL     1       8.507   9.173  18.309  0.00  0.00    +0.000 A 
ATOM     27  N   UNL     1       7.747   8.806  17.289  0.00  0.00    +0.000 NA
BRANCH  26  28
ATOM     28  C   UNL     1       9.083  10.483  18.608  0.00  0.00    +0.000 A 
ATOM     29  C   UNL     1      10.007  10.606  19.661  0.00  0.00    +0.000 A 
ATOM     30  C   UNL     1      10.557  11.846  20.002  0.00  0.00    +0.000 A 
ATOM     31  C   UNL     1      10.191  12.984  19.287  0.00  0.00    +0.000 A 
ATOM     32  C   UNL     1       9.286  12.867  18.239  0.00  0.00    +0.000 A 
ATOM     33  F   UNL     1       8.934  13.963  17.552  0.00  0.00    +0.000 F 
ATOM     34  C   UNL     1       8.735  11.636  17.891  0.00  0.00    +0.000 A 
ENDBRANCH  26  28
ENDBRANCH  22  23
ENDBRANCH  21  22
ENDBRANCH   5  21
TORSDOF 6
ENDMDL
MODEL 5
REMARK VINA RESULT:      -8.8      2.623      3.602
REMARK  Name = 
REMARK  6 active torsions:
REMARK  status: ('A' for Active; 'I' for Inactive)
REMARK    1  A    between atoms: C_2  and  C_3
REMARK    2  A    between atoms: C_7  and  S_8
REMARK    3  A    between atoms: S_8  and  C_9
REMARK    4  A    between atoms: C_9  and  C_10
REMARK    5  A    between atoms: C_13  and  C_14
REMARK    6  A    between atoms: C_23  and  C_24
REMARK                            x       y       z     vdW  Elec       q    Type
REMARK                         _______ _______ _______ _____ _____    ______ ____
ROOT
ATOM      1  C   UNL     1       2.744   3.804  19.393  0.00  0.00    +0.000 A 
ATOM      2  C   UNL     1       1.633   4.012  20.197  0.00  0.00    +0.000 A 
ATOM      3  N   UNL     1       0.758   2.982  20.542  0.00  0.00    +0.000 N 
ATOM      4  N   UNL     1       1.263   5.229  20.613  0.00  0.00    +0.000 NA
ATOM      5  C   UNL     1       2.007   6.275  20.224  0.00  0.00    +0.000 A 
ATOM      6  N   UNL     1       3.077   6.185  19.419  0.00  0.00    +0.000 NA
ATOM      7  C   UNL     1       3.437   4.942  18.990  0.00  0.00    +0.000 A 
ATOM      8  H   UNL     1       1.193   2.126  20.873  0.00  0.00    +0.000 HD
ATOM      9  H   UNL     1       0.053   3.336  21.183  0.00  0.00    +0.000 HD
ENDROOT
BRANCH   7  10
ATOM     10  C   UNL     1       4.599   4.927  18.057  0.00  0.00    +0.000 A 
ATOM     11  C   UNL     1       5.928   5.060  18.546  0.00  0.00    +0.000 A 
ATOM     12  C   UNL     1       7.040   5.067  17.688  0.00  0.00    +0.000 A 
ATOM     13  C   UNL     1       6.813   4.930  16.338  0.00  0.00    +0.000 A 
ATOM     14  C   UNL     1       5.542   4.803  15.842  0.00  0.00    +0.000 A 
ATOM     15  C   UNL     1       4.433   4.817  16.661  0.00  0.00    +0.000 A 
ATOM     16  O   UNL     1       5.515   4.683  14.489  0.00  0.00    +0.000 OA
ATOM     17  C   UNL     1       6.919   4.797  14.182  0.00  0.00    +0.000 C 
ATOM     18  O   UNL     1       7.752   4.920  15.355  0.00  0.00    +0.000 OA
ENDBRANCH   7  10
BRANCH   1  20
ATOM     19  N   UNL     1       3.464   1.391  18.790  0.00  0.00    +0.000 NA
ATOM     20  C   UNL     1       3.126   2.466  19.062  0.00  0.00    +0.000 C 
ENDBRANCH   1  20
BRANCH   5  21
ATOM     21  S   UNL     1       1.552   7.830  20.946  0.00  0.00    +0.000 S 
BRANCH  21  22
ATOM     22  C   UNL     1       1.490   8.907  19.481  0.00  0.00    +0.000 C 
BRANCH  22  23
ATOM     23  C   UNL     1       0.807  10.198  19.814  0.00  0.00    +0.000 A 
ATOM     24  C   UNL     1       0.580  11.300  19.024  0.00  0.00    +0.000 A 
ATOM     25  O   UNL     1      -0.101  12.228  19.755  0.00  0.00    +0.000 OA
ATOM     26  C   UNL     1      -0.258  11.640  20.985  0.00  0.00    +0.000 A 
ATOM     27  N   UNL     1       0.286  10.436  21.072  0.00  0.00    +0.000 NA
BRANCH  26  28
ATOM     28  C   UNL     1      -0.998  12.395  21.994  0.00  0.00    +0.000 A 
ATOM     29  C   UNL     1      -0.567  13.687  22.344  0.00  0.00    +0.000 A 
ATOM     30  C   UNL     1      -1.228  14.430  23.327  0.00  0.00    +0.000 A 
ATOM     31  C   UNL     1      -2.337  13.890  23.972  0.00  0.00    +0.000 A 
ATOM     32  C   UNL     1      -2.776  12.619  23.623  0.00  0.00    +0.000 A 
ATOM     33  F   UNL     1      -3.843  12.100  24.246  0.00  0.00    +0.000 F 
ATOM     34  C   UNL     1      -2.125  11.871  22.644  0.00  0.00    +0.000 A 
ENDBRANCH  26  28
ENDBRANCH  22  23
ENDBRANCH  21  22
ENDBRANCH   5  21
TORSDOF 6
ENDMDL
MODEL 6
REMARK VINA RESULT:      -8.8      2.267      2.953
REMARK  Name = 
REMARK  6 active torsions:
REMARK  status: ('A' for Active; 'I' for Inactive)
REMARK    1  A    between atoms: C_2  and  C_3
REMARK    2  A    between atoms: C_7  and  S_8
REMARK    3  A    between atoms: S_8  and  C_9
REMARK    4  A    between atoms: C_9  and  C_10
REMARK    5  A    between atoms: C_13  and  C_14
REMARK    6  A    between atoms: C_23  and  C_24
REMARK                            x       y       z     vdW  Elec       q    Type
REMARK                         _______ _______ _______ _____ _____    ______ ____
ROOT
ATOM      1  C   UNL     1       2.769   3.786  19.446  0.00  0.00    +0.000 A 
ATOM      2  C   UNL     1       1.655   4.005  20.243  0.00  0.00    +0.000 A 
ATOM      3  N   UNL     1       0.794   2.974  20.619  0.00  0.00    +0.000 N 
ATOM      4  N   UNL     1       1.270   5.228  20.622  0.00  0.00    +0.000 NA
ATOM      5  C   UNL     1       2.001   6.271  20.201  0.00  0.00    +0.000 A 
ATOM      6  N   UNL     1       3.071   6.170  19.400  0.00  0.00    +0.000 NA
ATOM      7  C   UNL     1       3.448   4.920  19.008  0.00  0.00    +0.000 A 
ATOM      8  H   UNL     1       1.239   2.134  20.976  0.00  0.00    +0.000 HD
ATOM      9  H   UNL     1       0.083   3.338  21.249  0.00  0.00    +0.000 HD
ENDROOT
BRANCH   7  10
ATOM     10  C   UNL     1       4.611   4.891  18.077  0.00  0.00    +0.000 A 
ATOM     11  C   UNL     1       5.942   4.958  18.571  0.00  0.00    +0.000 A 
ATOM     12  C   UNL     1       7.056   4.950  17.715  0.00  0.00    +0.000 A 
ATOM     13  C   UNL     1       6.827   4.868  16.361  0.00  0.00    +0.000 A 
ATOM     14  C   UNL     1       5.554   4.806  15.860  0.00  0.00    +0.000 A 
ATOM     15  C   UNL     1       4.444   4.835  16.677  0.00  0.00    +0.000 A 
ATOM     16  O   UNL     1       5.525   4.732  14.503  0.00  0.00    +0.000 OA
ATOM     17  C   UNL     1       6.933   4.802  14.202  0.00  0.00    +0.000 C 
ATOM     18  O   UNL     1       7.768   4.854  15.380  0.00  0.00    +0.000 OA
ENDBRANCH   7  10
BRANCH   1  20
ATOM     19  N   UNL     1       3.521   1.365  18.916  0.00  0.00    +0.000 NA
ATOM     20  C   UNL     1       3.169   2.444  19.156  0.00  0.00    +0.000 C 
ENDBRANCH   1  20
BRANCH   5  21
ATOM     21  S   UNL     1       1.524   7.841  20.876  0.00  0.00    +0.000 S 
BRANCH  21  22
ATOM     22  C   UNL     1       1.564   8.900  19.395  0.00  0.00    +0.000 C 
BRANCH  22  23
ATOM     23  C   UNL     1       0.728  10.125  19.611  0.00  0.00    +0.000 A 
ATOM     24  C   UNL     1       0.667  11.284  18.876  0.00  0.00    +0.000 A 
ATOM     25  O   UNL     1      -0.259  12.111  19.443  0.00  0.00    +0.000 OA
ATOM     26  C   UNL     1      -0.726  11.405  20.523  0.00  0.00    +0.000 A 
ATOM     27  N   UNL     1      -0.151  10.222  20.673  0.00  0.00    +0.000 NA
BRANCH  26  28
ATOM     28  C   UNL     1      -1.776  12.031  21.322  0.00  0.00    +0.000 A 
ATOM     29  C   UNL     1      -1.878  11.724  22.691  0.00  0.00    +0.000 A 
ATOM     30  C   UNL     1      -2.888  12.276  23.485  0.00  0.00    +0.000 A 
ATOM     31  C   UNL     1      -3.813  13.149  22.918  0.00  0.00    +0.000 A 
ATOM     32  C   UNL     1      -3.712  13.465  21.569  0.00  0.00    +0.000 A 
ATOM     33  F   UNL     1      -4.604  14.305  21.025  0.00  0.00    +0.000 F 
ATOM     34  C   UNL     1      -2.708  12.921  20.771  0.00  0.00    +0.000 A 
ENDBRANCH  26  28
ENDBRANCH  22  23
ENDBRANCH  21  22
ENDBRANCH   5  21
TORSDOF 6
ENDMDL
MODEL 7
REMARK VINA RESULT:      -8.8      4.869      8.748
REMARK  Name = 
REMARK  6 active torsions:
REMARK  status: ('A' for Active; 'I' for Inactive)
REMARK    1  A    between atoms: C_2  and  C_3
REMARK    2  A    between atoms: C_7  and  S_8
REMARK    3  A    between atoms: S_8  and  C_9
REMARK    4  A    between atoms: C_9  and  C_10
REMARK    5  A    between atoms: C_13  and  C_14
REMARK    6  A    between atoms: C_23  and  C_24
REMARK                            x       y       z     vdW  Elec       q    Type
REMARK                         _______ _______ _______ _____ _____    ______ ____
ROOT
ATOM      1  C   UNL     1       2.861   4.413  19.322  0.00  0.00    +0.000 A 
ATOM      2  C   UNL     1       3.721   3.385  18.966  0.00  0.00    +0.000 A 
ATOM      3  N   UNL     1       3.563   2.083  19.441  0.00  0.00    +0.000 N 
ATOM      4  N   UNL     1       4.819   3.587  18.229  0.00  0.00    +0.000 NA
ATOM      5  C   UNL     1       5.081   4.840  17.830  0.00  0.00    +0.000 A 
ATOM      6  N   UNL     1       4.335   5.908  18.150  0.00  0.00    +0.000 NA
ATOM      7  C   UNL     1       3.226   5.693  18.914  0.00  0.00    +0.000 A 
ATOM      8  H   UNL     1       2.624   1.702  19.382  0.00  0.00    +0.000 HD
ATOM      9  H   UNL     1       4.259   1.478  19.011  0.00  0.00    +0.000 HD
ENDROOT
BRANCH   7  10
ATOM     10  C   UNL     1       2.479   6.931  19.274  0.00  0.00    +0.000 A 
ATOM     11  C   UNL     1       1.971   7.120  20.589  0.00  0.00    +0.000 A 
ATOM     12  C   UNL     1       1.249   8.268  20.951  0.00  0.00    +0.000 A 
ATOM     13  C   UNL     1       1.045   9.231  19.990  0.00  0.00    +0.000 A 
ATOM     14  C   UNL     1       1.522   9.072  18.715  0.00  0.00    +0.000 A 
ATOM     15  C   UNL     1       2.213   7.943  18.329  0.00  0.00    +0.000 A 
ATOM     16  O   UNL     1       1.221  10.121  17.906  0.00  0.00    +0.000 OA
ATOM     17  C   UNL     1       0.457  10.944  18.809  0.00  0.00    +0.000 C 
ATOM     18  O   UNL     1       0.370  10.400  20.144  0.00  0.00    +0.000 OA
ENDBRANCH   7  10
BRANCH   1  20
ATOM     19  N   UNL     1       0.705   3.846  20.640  0.00  0.00    +0.000 NA
ATOM     20  C   UNL     1       1.661   4.106  20.037  0.00  0.00    +0.000 C 
ENDBRANCH   1  20
BRANCH   5  21
ATOM     21  S   UNL     1       6.459   5.003  16.724  0.00  0.00    +0.000 S 
BRANCH  21  22
ATOM     22  C   UNL     1       6.495   6.802  16.450  0.00  0.00    +0.000 C 
BRANCH  22  23
ATOM     23  C   UNL     1       7.401   7.459  17.446  0.00  0.00    +0.000 A 
ATOM     24  C   UNL     1       8.060   6.918  18.524  0.00  0.00    +0.000 A 
ATOM     25  O   UNL     1       8.791   7.899  19.126  0.00  0.00    +0.000 OA
ATOM     26  C   UNL     1       8.536   9.019  18.376  0.00  0.00    +0.000 A 
ATOM     27  N   UNL     1       7.697   8.808  17.374  0.00  0.00    +0.000 NA
BRANCH  26  28
ATOM     28  C   UNL     1       9.221  10.250  18.763  0.00  0.00    +0.000 A 
ATOM     29  C   UNL     1       9.353  10.567  20.127  0.00  0.00    +0.000 A 
ATOM     30  C   UNL     1       9.974  11.750  20.541  0.00  0.00    +0.000 A 
ATOM     31  C   UNL     1      10.476  12.634  19.590  0.00  0.00    +0.000 A 
ATOM     32  C   UNL     1      10.359  12.323  18.241  0.00  0.00    +0.000 A 
ATOM     33  F   UNL     1      10.843  13.176  17.327  0.00  0.00    +0.000 F 
ATOM     34  C   UNL     1       9.744  11.146  17.820  0.00  0.00    +0.000 A 
ENDBRANCH  26  28
ENDBRANCH  22  23
ENDBRANCH  21  22
ENDBRANCH   5  21
TORSDOF 6
ENDMDL
MODEL 8
REMARK VINA RESULT:      -8.7      4.227      8.428
REMARK  Name = 
REMARK  6 active torsions:
REMARK  status: ('A' for Active; 'I' for Inactive)
REMARK    1  A    between atoms: C_2  and  C_3
REMARK    2  A    between atoms: C_7  and  S_8
REMARK    3  A    between atoms: S_8  and  C_9
REMARK    4  A    between atoms: C_9  and  C_10
REMARK    5  A    between atoms: C_13  and  C_14
REMARK    6  A    between atoms: C_23  and  C_24
REMARK                            x       y       z     vdW  Elec       q    Type
REMARK                         _______ _______ _______ _____ _____    ______ ____
ROOT
ATOM      1  C   UNL     1       2.516   4.735  18.609  0.00  0.00    +0.000 A 
ATOM      2  C   UNL     1       3.246   3.777  17.921  0.00  0.00    +0.000 A 
ATOM      3  N   UNL     1       3.159   2.417  18.220  0.00  0.00    +0.000 N 
ATOM      4  N   UNL     1       4.160   4.094  16.997  0.00  0.00    +0.000 NA
ATOM      5  C   UNL     1       4.365   5.394  16.742  0.00  0.00    +0.000 A 
ATOM      6  N   UNL     1       3.739   6.397  17.375  0.00  0.00    +0.000 NA
ATOM      7  C   UNL     1       2.819   6.064  18.326  0.00  0.00    +0.000 A 
ATOM      8  H   UNL     1       2.219   2.046  18.314  0.00  0.00    +0.000 HD
ATOM      9  H   UNL     1       3.725   1.888  17.561  0.00  0.00    +0.000 HD
ENDROOT
BRANCH   7  10
ATOM     10  C   UNL     1       2.207   7.229  19.023  0.00  0.00    +0.000 A 
ATOM     11  C   UNL     1       1.990   7.206  20.428  0.00  0.00    +0.000 A 
ATOM     12  C   UNL     1       1.398   8.283  21.109  0.00  0.00    +0.000 A 
ATOM     13  C   UNL     1       1.033   9.387  20.373  0.00  0.00    +0.000 A 
ATOM     14  C   UNL     1       1.228   9.433  19.018  0.00  0.00    +0.000 A 
ATOM     15  C   UNL     1       1.786   8.380  18.324  0.00  0.00    +0.000 A 
ATOM     16  O   UNL     1       0.803  10.598  18.465  0.00  0.00    +0.000 OA
ATOM     17  C   UNL     1       0.271  11.267  19.625  0.00  0.00    +0.000 C 
ATOM     18  O   UNL     1       0.445  10.517  20.847  0.00  0.00    +0.000 OA
ENDBRANCH   7  10
BRANCH   1  20
ATOM     19  N   UNL     1       0.668   4.005  20.269  0.00  0.00    +0.000 NA
ATOM     20  C   UNL     1       1.495   4.317  19.518  0.00  0.00    +0.000 C 
ENDBRANCH   1  20
BRANCH   5  21
ATOM     21  S   UNL     1       5.469   5.730  15.394  0.00  0.00    +0.000 S 
BRANCH  21  22
ATOM     22  C   UNL     1       7.067   5.212  16.096  0.00  0.00    +0.000 C 
BRANCH  22  23
ATOM     23  C   UNL     1       7.520   6.192  17.134  0.00  0.00    +0.000 A 
ATOM     24  C   UNL     1       7.851   5.983  18.452  0.00  0.00    +0.000 A 
ATOM     25  O   UNL     1       8.229   7.173  19.000  0.00  0.00    +0.000 OA
ATOM     26  C   UNL     1       8.104   8.074  17.972  0.00  0.00    +0.000 A 
ATOM     27  N   UNL     1       7.665   7.536  16.845  0.00  0.00    +0.000 NA
BRANCH  26  28
ATOM     28  C   UNL     1       8.480   9.458  18.251  0.00  0.00    +0.000 A 
ATOM     29  C   UNL     1       9.267   9.745  19.381  0.00  0.00    +0.000 A 
ATOM     30  C   UNL     1       9.623  11.059  19.702  0.00  0.00    +0.000 A 
ATOM     31  C   UNL     1       9.196  12.108  18.890  0.00  0.00    +0.000 A 
ATOM     32  C   UNL     1       8.428  11.830  17.767  0.00  0.00    +0.000 A 
ATOM     33  F   UNL     1       8.018  12.841  16.987  0.00  0.00    +0.000 F 
ATOM     34  C   UNL     1       8.070  10.524  17.438  0.00  0.00    +0.000 A 
ENDBRANCH  26  28
ENDBRANCH  22  23
ENDBRANCH  21  22
ENDBRANCH   5  21
TORSDOF 6
ENDMDL
MODEL 9
REMARK VINA RESULT:      -8.7      4.556      8.631
REMARK  Name = 
REMARK  6 active torsions:
REMARK  status: ('A' for Active; 'I' for Inactive)
REMARK    1  A    between atoms: C_2  and  C_3
REMARK    2  A    between atoms: C_7  and  S_8
REMARK    3  A    between atoms: S_8  and  C_9
REMARK    4  A    between atoms: C_9  and  C_10
REMARK    5  A    between atoms: C_13  and  C_14
REMARK    6  A    between atoms: C_23  and  C_24
REMARK                            x       y       z     vdW  Elec       q    Type
REMARK                         _______ _______ _______ _____ _____    ______ ____
ROOT
ATOM      1  C   UNL     1       2.945   4.657  18.809  0.00  0.00    +0.000 A 
ATOM      2  C   UNL     1       3.748   3.674  18.251  0.00  0.00    +0.000 A 
ATOM      3  N   UNL     1       3.826   2.385  18.780  0.00  0.00    +0.000 N 
ATOM      4  N   UNL     1       4.581   3.916  17.232  0.00  0.00    +0.000 NA
ATOM      5  C   UNL     1       4.628   5.166  16.749  0.00  0.00    +0.000 A 
ATOM      6  N   UNL     1       3.921   6.195  17.240  0.00  0.00    +0.000 NA
ATOM      7  C   UNL     1       3.085   5.940  18.287  0.00  0.00    +0.000 A 
ATOM      8  H   UNL     1       2.939   1.941  18.993  0.00  0.00    +0.000 HD
ATOM      9  H   UNL     1       4.420   1.810  18.187  0.00  0.00    +0.000 HD
ENDROOT
BRANCH   7  10
ATOM     10  C   UNL     1       2.375   7.139  18.813  0.00  0.00    +0.000 A 
ATOM     11  C   UNL     1       1.986   8.195  17.945  0.00  0.00    +0.000 A 
ATOM     12  C   UNL     1       1.331   9.345  18.416  0.00  0.00    +0.000 A 
ATOM     13  C   UNL     1       1.061   9.426  19.762  0.00  0.00    +0.000 A 
ATOM     14  C   UNL     1       1.428   8.423  20.621  0.00  0.00    +0.000 A 
ATOM     15  C   UNL     1       2.092   7.296  20.186  0.00  0.00    +0.000 A 
ATOM     16  O   UNL     1       1.082   8.681  21.909  0.00  0.00    +0.000 OA
ATOM     17  C   UNL     1       0.493   9.989  21.771  0.00  0.00    +0.000 C 
ATOM     18  O   UNL     1       0.446  10.454  20.405  0.00  0.00    +0.000 OA
ENDBRANCH   7  10
BRANCH   1  20
ATOM     19  N   UNL     1       1.245   4.034  20.661  0.00  0.00    +0.000 NA
ATOM     20  C   UNL     1       2.016   4.301  19.837  0.00  0.00    +0.000 C 
ENDBRANCH   1  20
BRANCH   5  21
ATOM     21  S   UNL     1       5.630   5.373  15.299  0.00  0.00    +0.000 S 
BRANCH  21  22
ATOM     22  C   UNL     1       7.299   5.092  15.968  0.00  0.00    +0.000 C 
BRANCH  22  23
ATOM     23  C   UNL     1       7.596   6.079  17.055  0.00  0.00    +0.000 A 
ATOM     24  C   UNL     1       7.678   5.890  18.413  0.00  0.00    +0.000 A 
ATOM     25  O   UNL     1       7.998   7.078  19.001  0.00  0.00    +0.000 OA
ATOM     26  C   UNL     1       8.093   7.958  17.952  0.00  0.00    +0.000 A 
ATOM     27  N   UNL     1       7.843   7.410  16.774  0.00  0.00    +0.000 NA
BRANCH  26  28
ATOM     28  C   UNL     1       8.467   9.335  18.271  0.00  0.00    +0.000 A 
ATOM     29  C   UNL     1       8.034  10.379  17.434  0.00  0.00    +0.000 A 
ATOM     30  C   UNL     1       8.396  11.706  17.685  0.00  0.00    +0.000 A 
ATOM     31  C   UNL     1       9.196  12.008  18.784  0.00  0.00    +0.000 A 
ATOM     32  C   UNL     1       9.617  10.983  19.621  0.00  0.00    +0.000 A 
ATOM     33  F   UNL     1      10.388  11.275  20.679  0.00  0.00    +0.000 F 
ATOM     34  C   UNL     1       9.261   9.658  19.380  0.00  0.00    +0.000 A 
ENDBRANCH  26  28
ENDBRANCH  22  23
ENDBRANCH  21  22
ENDBRANCH   5  21
TORSDOF 6
ENDMDL
