MODEL 1
REMARK VINA RESULT:      -8.0      0.000      0.000
REMARK  Name = 
REMARK  11 active torsions:
REMARK  status: ('A' for Active; 'I' for Inactive)
REMARK    1  A    between atoms: C_1  and  C_2
REMARK    2  A    between atoms: C_2  and  C_3
REMARK    3  A    between atoms: C_2  and  C_4
REMARK    4  A    between atoms: C_4  and  C_5
REMARK    5  A    between atoms: C_5  and  N_6
REMARK    6  A    between atoms: C_5  and  C_7
REMARK    7  A    between atoms: C_9  and  C_10
REMARK    8  A    between atoms: C_16  and  N_17
REMARK    9  A    between atoms: C_21  and  C_23
REMARK   10  A    between atoms: C_23  and  O_24
REMARK   11  A    between atoms: O_24  and  C_25
REMARK                            x       y       z     vdW  Elec       q    Type
REMARK                         _______ _______ _______ _____ _____    ______ ____
ROOT
ATOM      1  C   UNL     1       3.329   5.194  17.707  0.00  0.00    +0.000 A 
ATOM      2  C   UNL     1       4.419   4.551  17.047  0.00  0.00    +0.000 A 
ATOM      3  C   UNL     1       5.593   5.211  16.684  0.00  0.00    +0.000 A 
ATOM      4  C   UNL     1       5.653   6.576  16.913  0.00  0.00    +0.000 A 
ATOM      5  C   UNL     1       4.559   7.243  17.483  0.00  0.00    +0.000 A 
ATOM      6  C   UNL     1       3.367   6.602  17.920  0.00  0.00    +0.000 A 
ENDROOT
BRANCH   6   7
ATOM      7  N   UNL     1       2.349   7.399  18.439  0.00  0.00    +0.000 N 
ATOM      8  C   UNL     1       1.828   7.184  19.815  0.00  0.00    +0.000 C 
ATOM      9  C   UNL     1       1.582   8.541  20.510  0.00  0.00    +0.000 C 
ATOM     10  N   UNL     1       0.767   9.472  19.713  0.00  0.00    +0.000 N 
ATOM     11  C   UNL     1       0.140  10.602  20.237  0.00  0.00    +0.000 C 
ATOM     12  O   UNL     1      -0.431  11.426  19.519  0.00  0.00    +0.000 OA
ATOM     13  C   UNL     1       1.108   9.548  18.302  0.00  0.00    +0.000 C 
ATOM     14  C   UNL     1       1.386   8.198  17.653  0.00  0.00    +0.000 C 
BRANCH  11  15
ATOM     15  C   UNL     1       0.238  10.829  21.734  0.00  0.00    +0.000 C 
BRANCH  15  16
ATOM     16  O   UNL     1       0.241  12.215  22.035  0.00  0.00    +0.000 OA
BRANCH  16  17
ATOM     17  C   UNL     1      -0.861  12.681  22.696  0.00  0.00    +0.000 A 
ATOM     18  C   UNL     1      -1.897  11.755  22.845  0.00  0.00    +0.000 A 
ATOM     19  C   UNL     1      -3.073  12.102  23.515  0.00  0.00    +0.000 A 
ATOM     20  C   UNL     1      -3.217  13.381  24.049  0.00  0.00    +0.000 A 
ATOM     21  C   UNL     1      -2.183  14.304  23.900  0.00  0.00    +0.000 A 
ATOM     22 CL   UNL     1      -2.353  15.886  24.561  0.00  0.00    +0.000 Cl
ATOM     23  C   UNL     1      -1.017  13.969  23.224  0.00  0.00    +0.000 A 
ENDBRANCH  16  17
ENDBRANCH  15  16
ENDBRANCH  11  15
ENDBRANCH   6   7
BRANCH   3  24
ATOM     24  C   UNL     1       6.759   4.463  16.084  0.00  0.00    +0.000 C 
ATOM     25  F   UNL     1       6.405   3.269  15.527  0.00  0.00    +0.000 F 
ATOM     26  F   UNL     1       7.383   5.161  15.098  0.00  0.00    +0.000 F 
ATOM     27  F   UNL     1       7.717   4.171  17.006  0.00  0.00    +0.000 F 
ENDBRANCH   3  24
BRANCH   1  28
ATOM     28  C   UNL     1       2.187   4.273  18.123  0.00  0.00    +0.000 C 
BRANCH  28  29
ATOM     29  N   UNL     1       1.062   4.422  17.182  0.00  0.00    +0.000 NA
ATOM     30  H   UNL     1       1.049   5.375  16.824  0.00  0.00    +0.000 HD
ATOM     31  H   UNL     1       0.190   4.336  17.706  0.00  0.00    +0.000 HD
ENDBRANCH  28  29
BRANCH  28  32
ATOM     32  C   UNL     1       2.510   2.764  18.242  0.00  0.00    +0.000 C 
BRANCH  32  34
ATOM     33  C   UNL     1       4.130   2.413  20.214  0.00  0.00    +0.000 C 
ATOM     34  C   UNL     1       2.705   2.244  19.682  0.00  0.00    +0.000 C 
ATOM     35  C   UNL     1       1.729   2.983  20.598  0.00  0.00    +0.000 C 
ENDBRANCH  32  34
ENDBRANCH  28  32
ENDBRANCH   1  28
TORSDOF 9
ENDMDL
MODEL 2
REMARK VINA RESULT:      -8.0      2.791      3.290
REMARK  Name = 
REMARK  11 active torsions:
REMARK  status: ('A' for Active; 'I' for Inactive)
REMARK    1  A    between atoms: C_1  and  C_2
REMARK    2  A    between atoms: C_2  and  C_3
REMARK    3  A    between atoms: C_2  and  C_4
REMARK    4  A    between atoms: C_4  and  C_5
REMARK    5  A    between atoms: C_5  and  N_6
REMARK    6  A    between atoms: C_5  and  C_7
REMARK    7  A    between atoms: C_9  and  C_10
REMARK    8  A    between atoms: C_16  and  N_17
REMARK    9  A    between atoms: C_21  and  C_23
REMARK   10  A    between atoms: C_23  and  O_24
REMARK   11  A    between atoms: O_24  and  C_25
REMARK                            x       y       z     vdW  Elec       q    Type
REMARK                         _______ _______ _______ _____ _____    ______ ____
ROOT
ATOM      1  C   UNL     1       2.914   5.453  17.845  0.00  0.00    +0.000 A 
ATOM      2  C   UNL     1       3.710   4.551  17.076  0.00  0.00    +0.000 A 
ATOM      3  C   UNL     1       4.909   4.916  16.464  0.00  0.00    +0.000 A 
ATOM      4  C   UNL     1       5.289   6.246  16.550  0.00  0.00    +0.000 A 
ATOM      5  C   UNL     1       4.479   7.167  17.229  0.00  0.00    +0.000 A 
ATOM      6  C   UNL     1       3.280   6.829  17.916  0.00  0.00    +0.000 A 
ENDROOT
BRANCH   6   7
ATOM      7  N   UNL     1       2.559   7.857  18.520  0.00  0.00    +0.000 N 
ATOM      8  C   UNL     1       2.331   9.150  17.822  0.00  0.00    +0.000 C 
ATOM      9  C   UNL     1       0.887   9.640  18.068  0.00  0.00    +0.000 C 
ATOM     10  N   UNL     1       0.507   9.664  19.490  0.00  0.00    +0.000 N 
ATOM     11  C   UNL     1      -0.592  10.362  19.989  0.00  0.00    +0.000 C 
ATOM     12  O   UNL     1      -0.953  10.261  21.165  0.00  0.00    +0.000 OA
ATOM     13  C   UNL     1       0.910   8.502  20.263  0.00  0.00    +0.000 C 
ATOM     14  C   UNL     1       2.324   8.015  19.969  0.00  0.00    +0.000 C 
BRANCH  11  15
ATOM     15  C   UNL     1      -1.387  11.212  19.016  0.00  0.00    +0.000 C 
BRANCH  15  16
ATOM     16  O   UNL     1      -2.403  11.937  19.691  0.00  0.00    +0.000 OA
BRANCH  16  17
ATOM     17  C   UNL     1      -3.618  11.975  19.068  0.00  0.00    +0.000 A 
ATOM     18  C   UNL     1      -3.629  11.481  17.761  0.00  0.00    +0.000 A 
ATOM     19  C   UNL     1      -4.812  11.450  17.019  0.00  0.00    +0.000 A 
ATOM     20  C   UNL     1      -6.000  11.908  17.587  0.00  0.00    +0.000 A 
ATOM     21  C   UNL     1      -5.989  12.400  18.890  0.00  0.00    +0.000 A 
ATOM     22 CL   UNL     1      -7.454  12.964  19.599  0.00  0.00    +0.000 Cl
ATOM     23  C   UNL     1      -4.813  12.445  19.628  0.00  0.00    +0.000 A 
ENDBRANCH  16  17
ENDBRANCH  15  16
ENDBRANCH  11  15
ENDBRANCH   6   7
BRANCH   3  24
ATOM     24  C   UNL     1       5.767   3.898  15.751  0.00  0.00    +0.000 C 
ATOM     25  F   UNL     1       5.517   2.615  16.139  0.00  0.00    +0.000 F 
ATOM     26  F   UNL     1       5.598   3.918  14.402  0.00  0.00    +0.000 F 
ATOM     27  F   UNL     1       7.096   4.098  15.970  0.00  0.00    +0.000 F 
ENDBRANCH   3  24
BRANCH   1  28
ATOM     28  C   UNL     1       1.703   4.829  18.529  0.00  0.00    +0.000 C 
BRANCH  28  29
ATOM     29  N   UNL     1       1.285   3.622  17.793  0.00  0.00    +0.000 NA
ATOM     30  H   UNL     1       1.560   3.713  16.816  0.00  0.00    +0.000 HD
ATOM     31  H   UNL     1       0.264   3.598  17.766  0.00  0.00    +0.000 HD
ENDBRANCH  28  29
BRANCH  28  32
ATOM     32  C   UNL     1       1.859   4.445  20.020  0.00  0.00    +0.000 C 
BRANCH  32  34
ATOM     33  C   UNL     1       3.643   2.606  20.284  0.00  0.00    +0.000 C 
ATOM     34  C   UNL     1       2.152   2.955  20.290  0.00  0.00    +0.000 C 
ATOM     35  C   UNL     1       1.549   2.581  21.645  0.00  0.00    +0.000 C 
ENDBRANCH  32  34
ENDBRANCH  28  32
ENDBRANCH   1  28
TORSDOF 9
ENDMDL
MODEL 3
REMARK VINA RESULT:      -8.0      0.885      1.415
REMARK  Name = 
REMARK  11 active torsions:
REMARK  status: ('A' for Active; 'I' for Inactive)
REMARK    1  A    between atoms: C_1  and  C_2
REMARK    2  A    between atoms: C_2  and  C_3
REMARK    3  A    between atoms: C_2  and  C_4
REMARK    4  A    between atoms: C_4  and  C_5
REMARK    5  A    between atoms: C_5  and  N_6
REMARK    6  A    between atoms: C_5  and  C_7
REMARK    7  A    between atoms: C_9  and  C_10
REMARK    8  A    between atoms: C_16  and  N_17
REMARK    9  A    between atoms: C_21  and  C_23
REMARK   10  A    between atoms: C_23  and  O_24
REMARK   11  A    between atoms: O_24  and  C_25
REMARK                            x       y       z     vdW  Elec       q    Type
REMARK                         _______ _______ _______ _____ _____    ______ ____
ROOT
ATOM      1  C   UNL     1       3.314   5.303  17.779  0.00  0.00    +0.000 A 
ATOM      2  C   UNL     1       4.389   4.629  17.126  0.00  0.00    +0.000 A 
ATOM      3  C   UNL     1       5.549   5.270  16.695  0.00  0.00    +0.000 A 
ATOM      4  C   UNL     1       5.609   6.646  16.845  0.00  0.00    +0.000 A 
ATOM      5  C   UNL     1       4.528   7.341  17.406  0.00  0.00    +0.000 A 
ATOM      6  C   UNL     1       3.351   6.722  17.911  0.00  0.00    +0.000 A 
ENDROOT
BRANCH   6   7
ATOM      7  N   UNL     1       2.344   7.544  18.412  0.00  0.00    +0.000 N 
ATOM      8  C   UNL     1       1.850   7.395  19.807  0.00  0.00    +0.000 C 
ATOM      9  C   UNL     1       1.619   8.784  20.441  0.00  0.00    +0.000 C 
ATOM     10  N   UNL     1       0.788   9.677  19.617  0.00  0.00    +0.000 N 
ATOM     11  C   UNL     1       0.171  10.831  20.099  0.00  0.00    +0.000 C 
ATOM     12  O   UNL     1      -0.414  11.621  19.354  0.00  0.00    +0.000 OA
ATOM     13  C   UNL     1       1.100   9.684  18.197  0.00  0.00    +0.000 C 
ATOM     14  C   UNL     1       1.366   8.305  17.608  0.00  0.00    +0.000 C 
BRANCH  11  15
ATOM     15  C   UNL     1       0.300  11.129  21.582  0.00  0.00    +0.000 C 
BRANCH  15  16
ATOM     16  O   UNL     1       0.411  12.525  21.808  0.00  0.00    +0.000 OA
BRANCH  16  17
ATOM     17  C   UNL     1      -0.605  13.093  22.524  0.00  0.00    +0.000 A 
ATOM     18  C   UNL     1      -0.491  14.472  22.722  0.00  0.00    +0.000 A 
ATOM     19  C   UNL     1      -1.472  15.175  23.426  0.00  0.00    +0.000 A 
ATOM     20  C   UNL     1      -2.581  14.501  23.931  0.00  0.00    +0.000 A 
ATOM     21  C   UNL     1      -2.695  13.126  23.734  0.00  0.00    +0.000 A 
ATOM     22 CL   UNL     1      -4.066  12.287  24.353  0.00  0.00    +0.000 Cl
ATOM     23  C   UNL     1      -1.716  12.419  23.046  0.00  0.00    +0.000 A 
ENDBRANCH  16  17
ENDBRANCH  15  16
ENDBRANCH  11  15
ENDBRANCH   6   7
BRANCH   3  24
ATOM     24  C   UNL     1       6.702   4.493  16.106  0.00  0.00    +0.000 C 
ATOM     25  F   UNL     1       7.351   5.162  15.110  0.00  0.00    +0.000 F 
ATOM     26  F   UNL     1       7.654   4.182  17.026  0.00  0.00    +0.000 F 
ATOM     27  F   UNL     1       6.304   3.312  15.559  0.00  0.00    +0.000 F 
ENDBRANCH   3  24
BRANCH   1  28
ATOM     28  C   UNL     1       2.188   4.404  18.277  0.00  0.00    +0.000 C 
BRANCH  28  29
ATOM     29  N   UNL     1       1.283   4.079  17.160  0.00  0.00    +0.000 NA
ATOM     30  H   UNL     1       0.831   4.932  16.836  0.00  0.00    +0.000 HD
ATOM     31  H   UNL     1       0.516   3.508  17.521  0.00  0.00    +0.000 HD
ENDBRANCH  28  29
BRANCH  28  32
ATOM     32  C   UNL     1       2.599   3.076  18.957  0.00  0.00    +0.000 C 
BRANCH  32  34
ATOM     33  C   UNL     1       2.769   2.585  21.480  0.00  0.00    +0.000 C 
ATOM     34  C   UNL     1       1.851   2.747  20.266  0.00  0.00    +0.000 C 
ATOM     35  C   UNL     1       0.841   3.863  20.539  0.00  0.00    +0.000 C 
ENDBRANCH  32  34
ENDBRANCH  28  32
ENDBRANCH   1  28
TORSDOF 9
ENDMDL
MODEL 4
REMARK VINA RESULT:      -7.9      0.856      1.335
REMARK  Name = 
REMARK  11 active torsions:
REMARK  status: ('A' for Active; 'I' for Inactive)
REMARK    1  A    between atoms: C_1  and  C_2
REMARK    2  A    between atoms: C_2  and  C_3
REMARK    3  A    between atoms: C_2  and  C_4
REMARK    4  A    between atoms: C_4  and  C_5
REMARK    5  A    between atoms: C_5  and  N_6
REMARK    6  A    between atoms: C_5  and  C_7
REMARK    7  A    between atoms: C_9  and  C_10
REMARK    8  A    between atoms: C_16  and  N_17
REMARK    9  A    between atoms: C_21  and  C_23
REMARK   10  A    between atoms: C_23  and  O_24
REMARK   11  A    between atoms: O_24  and  C_25
REMARK                            x       y       z     vdW  Elec       q    Type
REMARK                         _______ _______ _______ _____ _____    ______ ____
ROOT
ATOM      1  C   UNL     1       3.311   5.313  17.856  0.00  0.00    +0.000 A 
ATOM      2  C   UNL     1       4.387   4.642  17.201  0.00  0.00    +0.000 A 
ATOM      3  C   UNL     1       5.525   5.294  16.727  0.00  0.00    +0.000 A 
ATOM      4  C   UNL     1       5.557   6.675  16.834  0.00  0.00    +0.000 A 
ATOM      5  C   UNL     1       4.472   7.364  17.396  0.00  0.00    +0.000 A 
ATOM      6  C   UNL     1       3.319   6.736  17.944  0.00  0.00    +0.000 A 
ENDROOT
BRANCH   6   7
ATOM      7  N   UNL     1       2.304   7.551  18.440  0.00  0.00    +0.000 N 
ATOM      8  C   UNL     1       1.728   7.326  19.792  0.00  0.00    +0.000 C 
ATOM      9  C   UNL     1       1.493   8.677  20.503  0.00  0.00    +0.000 C 
ATOM     10  N   UNL     1       0.732   9.643  19.694  0.00  0.00    +0.000 N 
ATOM     11  C   UNL     1       0.116  10.780  20.216  0.00  0.00    +0.000 C 
ATOM     12  O   UNL     1      -0.407  11.632  19.492  0.00  0.00    +0.000 OA
ATOM     13  C   UNL     1       1.126   9.734  18.298  0.00  0.00    +0.000 C 
ATOM     14  C   UNL     1       1.393   8.388  17.635  0.00  0.00    +0.000 C 
BRANCH  11  15
ATOM     15  C   UNL     1       0.165  10.978  21.719  0.00  0.00    +0.000 C 
BRANCH  15  16
ATOM     16  O   UNL     1       0.338  12.349  22.042  0.00  0.00    +0.000 OA
BRANCH  16  17
ATOM     17  C   UNL     1      -0.746  12.969  22.596  0.00  0.00    +0.000 A 
ATOM     18  C   UNL     1      -0.734  14.364  22.519  0.00  0.00    +0.000 A 
ATOM     19  C   UNL     1      -1.792  15.117  23.035  0.00  0.00    +0.000 A 
ATOM     20  C   UNL     1      -2.878  14.475  23.626  0.00  0.00    +0.000 A 
ATOM     21  C   UNL     1      -2.890  13.083  23.702  0.00  0.00    +0.000 A 
ATOM     22 CL   UNL     1      -4.232  12.282  24.429  0.00  0.00    +0.000 Cl
ATOM     23  C   UNL     1      -1.835  12.330  23.203  0.00  0.00    +0.000 A 
ENDBRANCH  16  17
ENDBRANCH  15  16
ENDBRANCH  11  15
ENDBRANCH   6   7
BRANCH   3  24
ATOM     24  C   UNL     1       6.682   4.524  16.138  0.00  0.00    +0.000 C 
ATOM     25  F   UNL     1       6.304   3.366  15.527  0.00  0.00    +0.000 F 
ATOM     26  F   UNL     1       7.365   5.233  15.200  0.00  0.00    +0.000 F 
ATOM     27  F   UNL     1       7.596   4.164  17.081  0.00  0.00    +0.000 F 
ENDBRANCH   3  24
BRANCH   1  28
ATOM     28  C   UNL     1       2.215   4.405  18.403  0.00  0.00    +0.000 C 
BRANCH  28  29
ATOM     29  N   UNL     1       1.194   4.179  17.366  0.00  0.00    +0.000 NA
ATOM     30  H   UNL     1       1.098   5.021  16.801  0.00  0.00    +0.000 HD
ATOM     31  H   UNL     1       0.286   4.077  17.823  0.00  0.00    +0.000 HD
ENDBRANCH  28  29
BRANCH  28  32
ATOM     32  C   UNL     1       2.655   3.024  18.947  0.00  0.00    +0.000 C 
BRANCH  32  34
ATOM     33  C   UNL     1       2.281   2.658  21.469  0.00  0.00    +0.000 C 
ATOM     34  C   UNL     1       3.269   3.038  20.362  0.00  0.00    +0.000 C 
ATOM     35  C   UNL     1       4.454   2.071  20.385  0.00  0.00    +0.000 C 
ENDBRANCH  32  34
ENDBRANCH  28  32
ENDBRANCH   1  28
TORSDOF 9
ENDMDL
MODEL 5
REMARK VINA RESULT:      -7.9      3.139      3.922
REMARK  Name = 
REMARK  11 active torsions:
REMARK  status: ('A' for Active; 'I' for Inactive)
REMARK    1  A    between atoms: C_1  and  C_2
REMARK    2  A    between atoms: C_2  and  C_3
REMARK    3  A    between atoms: C_2  and  C_4
REMARK    4  A    between atoms: C_4  and  C_5
REMARK    5  A    between atoms: C_5  and  N_6
REMARK    6  A    between atoms: C_5  and  C_7
REMARK    7  A    between atoms: C_9  and  C_10
REMARK    8  A    between atoms: C_16  and  N_17
REMARK    9  A    between atoms: C_21  and  C_23
REMARK   10  A    between atoms: C_23  and  O_24
REMARK   11  A    between atoms: O_24  and  C_25
REMARK                            x       y       z     vdW  Elec       q    Type
REMARK                         _______ _______ _______ _____ _____    ______ ____
ROOT
ATOM      1  C   UNL     1       3.002   5.435  17.814  0.00  0.00    +0.000 A 
ATOM      2  C   UNL     1       3.736   4.554  16.965  0.00  0.00    +0.000 A 
ATOM      3  C   UNL     1       4.911   4.920  16.309  0.00  0.00    +0.000 A 
ATOM      4  C   UNL     1       5.328   6.235  16.437  0.00  0.00    +0.000 A 
ATOM      5  C   UNL     1       4.575   7.142  17.198  0.00  0.00    +0.000 A 
ATOM      6  C   UNL     1       3.404   6.798  17.929  0.00  0.00    +0.000 A 
ENDROOT
BRANCH   6   7
ATOM      7  N   UNL     1       2.740   7.813  18.615  0.00  0.00    +0.000 N 
ATOM      8  C   UNL     1       2.742   9.212  18.112  0.00  0.00    +0.000 C 
ATOM      9  C   UNL     1       1.344   9.845  18.291  0.00  0.00    +0.000 C 
ATOM     10  N   UNL     1       0.808   9.711  19.656  0.00  0.00    +0.000 N 
ATOM     11  C   UNL     1      -0.255  10.466  20.151  0.00  0.00    +0.000 C 
ATOM     12  O   UNL     1      -0.758  10.243  21.255  0.00  0.00    +0.000 OA
ATOM     13  C   UNL     1       0.985   8.407  20.271  0.00  0.00    +0.000 C 
ATOM     14  C   UNL     1       2.358   7.788  20.041  0.00  0.00    +0.000 C 
BRANCH  11  15
ATOM     15  C   UNL     1      -0.830  11.544  19.251  0.00  0.00    +0.000 C 
BRANCH  15  16
ATOM     16  O   UNL     1      -2.228  11.677  19.453  0.00  0.00    +0.000 OA
BRANCH  16  17
ATOM     17  C   UNL     1      -3.009  11.466  18.352  0.00  0.00    +0.000 A 
ATOM     18  C   UNL     1      -4.361  11.782  18.515  0.00  0.00    +0.000 A 
ATOM     19  C   UNL     1      -5.263  11.625  17.460  0.00  0.00    +0.000 A 
ATOM     20  C   UNL     1      -4.814  11.157  16.227  0.00  0.00    +0.000 A 
ATOM     21  C   UNL     1      -3.466  10.842  16.064  0.00  0.00    +0.000 A 
ATOM     22 CL   UNL     1      -2.904  10.266  14.541  0.00  0.00    +0.000 Cl
ATOM     23  C   UNL     1      -2.567  10.983  17.114  0.00  0.00    +0.000 A 
ENDBRANCH  16  17
ENDBRANCH  15  16
ENDBRANCH  11  15
ENDBRANCH   6   7
BRANCH   3  24
ATOM     24  C   UNL     1       5.707   3.918  15.508  0.00  0.00    +0.000 C 
ATOM     25  F   UNL     1       7.047   4.173  15.504  0.00  0.00    +0.000 F 
ATOM     26  F   UNL     1       5.573   2.647  15.969  0.00  0.00    +0.000 F 
ATOM     27  F   UNL     1       5.333   3.889  14.199  0.00  0.00    +0.000 F 
ENDBRANCH   3  24
BRANCH   1  28
ATOM     28  C   UNL     1       1.811   4.807  18.529  0.00  0.00    +0.000 C 
BRANCH  28  29
ATOM     29  N   UNL     1       1.356   3.620  17.784  0.00  0.00    +0.000 NA
ATOM     30  H   UNL     1       2.083   3.334  17.131  0.00  0.00    +0.000 HD
ATOM     31  H   UNL     1       0.573   3.894  17.187  0.00  0.00    +0.000 HD
ENDBRANCH  28  29
BRANCH  28  32
ATOM     32  C   UNL     1       2.018   4.392  20.005  0.00  0.00    +0.000 C 
BRANCH  32  34
ATOM     33  C   UNL     1       3.690   2.444  20.220  0.00  0.00    +0.000 C 
ATOM     34  C   UNL     1       2.223   2.881  20.242  0.00  0.00    +0.000 C 
ATOM     35  C   UNL     1       1.604   2.515  21.592  0.00  0.00    +0.000 C 
ENDBRANCH  32  34
ENDBRANCH  28  32
ENDBRANCH   1  28
TORSDOF 9
ENDMDL
MODEL 6
REMARK VINA RESULT:      -7.9      1.551      2.011
REMARK  Name = 
REMARK  11 active torsions:
REMARK  status: ('A' for Active; 'I' for Inactive)
REMARK    1  A    between atoms: C_1  and  C_2
REMARK    2  A    between atoms: C_2  and  C_3
REMARK    3  A    between atoms: C_2  and  C_4
REMARK    4  A    between atoms: C_4  and  C_5
REMARK    5  A    between atoms: C_5  and  N_6
REMARK    6  A    between atoms: C_5  and  C_7
REMARK    7  A    between atoms: C_9  and  C_10
REMARK    8  A    between atoms: C_16  and  N_17
REMARK    9  A    between atoms: C_21  and  C_23
REMARK   10  A    between atoms: C_23  and  O_24
REMARK   11  A    between atoms: O_24  and  C_25
REMARK                            x       y       z     vdW  Elec       q    Type
REMARK                         _______ _______ _______ _____ _____    ______ ____
ROOT
ATOM      1  C   UNL     1       3.288   5.195  17.533  0.00  0.00    +0.000 A 
ATOM      2  C   UNL     1       4.039   4.437  16.584  0.00  0.00    +0.000 A 
ATOM      3  C   UNL     1       5.138   4.945  15.893  0.00  0.00    +0.000 A 
ATOM      4  C   UNL     1       5.454   6.280  16.091  0.00  0.00    +0.000 A 
ATOM      5  C   UNL     1       4.676   7.067  16.954  0.00  0.00    +0.000 A 
ATOM      6  C   UNL     1       3.584   6.576  17.721  0.00  0.00    +0.000 A 
ENDROOT
BRANCH   6   7
ATOM      7  N   UNL     1       2.882   7.483  18.513  0.00  0.00    +0.000 N 
ATOM      8  C   UNL     1       2.660   8.884  18.067  0.00  0.00    +0.000 C 
ATOM      9  C   UNL     1       1.224   9.334  18.418  0.00  0.00    +0.000 C 
ATOM     10  N   UNL     1       0.861   9.101  19.825  0.00  0.00    +0.000 N 
ATOM     11  C   UNL     1      -0.224   9.705  20.459  0.00  0.00    +0.000 C 
ATOM     12  O   UNL     1      -0.572   9.393  21.600  0.00  0.00    +0.000 OA
ATOM     13  C   UNL     1       1.260   7.813  20.367  0.00  0.00    +0.000 C 
ATOM     14  C   UNL     1       2.665   7.375  19.970  0.00  0.00    +0.000 C 
BRANCH  11  15
ATOM     15  C   UNL     1      -1.020  10.726  19.668  0.00  0.00    +0.000 C 
BRANCH  15  16
ATOM     16  O   UNL     1      -1.044  11.977  20.338  0.00  0.00    +0.000 OA
BRANCH  16  17
ATOM     17  C   UNL     1      -2.222  12.299  20.950  0.00  0.00    +0.000 A 
ATOM     18  C   UNL     1      -3.271  12.618  20.083  0.00  0.00    +0.000 A 
ATOM     19  C   UNL     1      -4.533  12.951  20.582  0.00  0.00    +0.000 A 
ATOM     20  C   UNL     1      -4.756  12.960  21.958  0.00  0.00    +0.000 A 
ATOM     21  C   UNL     1      -3.710  12.641  22.821  0.00  0.00    +0.000 A 
ATOM     22 CL   UNL     1      -3.979  12.647  24.523  0.00  0.00    +0.000 Cl
ATOM     23  C   UNL     1      -2.449  12.322  22.332  0.00  0.00    +0.000 A 
ENDBRANCH  16  17
ENDBRANCH  15  16
ENDBRANCH  11  15
ENDBRANCH   6   7
BRANCH   3  24
ATOM     24  C   UNL     1       5.964   4.070  14.981  0.00  0.00    +0.000 C 
ATOM     25  F   UNL     1       5.513   4.056  13.694  0.00  0.00    +0.000 F 
ATOM     26  F   UNL     1       7.266   4.456  14.914  0.00  0.00    +0.000 F 
ATOM     27  F   UNL     1       5.974   2.769  15.382  0.00  0.00    +0.000 F 
ENDBRANCH   3  24
BRANCH   1  28
ATOM     28  C   UNL     1       2.197   4.421  18.265  0.00  0.00    +0.000 C 
BRANCH  28  29
ATOM     29  N   UNL     1       1.220   3.901  17.293  0.00  0.00    +0.000 NA
ATOM     30  H   UNL     1       0.370   3.629  17.785  0.00  0.00    +0.000 HD
ATOM     31  H   UNL     1       1.581   3.027  16.908  0.00  0.00    +0.000 HD
ENDBRANCH  28  29
BRANCH  28  32
ATOM     32  C   UNL     1       2.653   3.243  19.159  0.00  0.00    +0.000 C 
BRANCH  32  34
ATOM     33  C   UNL     1       2.496   2.619  21.653  0.00  0.00    +0.000 C 
ATOM     34  C   UNL     1       1.736   2.936  20.362  0.00  0.00    +0.000 C 
ATOM     35  C   UNL     1       0.823   4.141  20.594  0.00  0.00    +0.000 C 
ENDBRANCH  32  34
ENDBRANCH  28  32
ENDBRANCH   1  28
TORSDOF 9
ENDMDL
MODEL 7
REMARK VINA RESULT:      -7.8      1.529      2.041
REMARK  Name = 
REMARK  11 active torsions:
REMARK  status: ('A' for Active; 'I' for Inactive)
REMARK    1  A    between atoms: C_1  and  C_2
REMARK    2  A    between atoms: C_2  and  C_3
REMARK    3  A    between atoms: C_2  and  C_4
REMARK    4  A    between atoms: C_4  and  C_5
REMARK    5  A    between atoms: C_5  and  N_6
REMARK    6  A    between atoms: C_5  and  C_7
REMARK    7  A    between atoms: C_9  and  C_10
REMARK    8  A    between atoms: C_16  and  N_17
REMARK    9  A    between atoms: C_21  and  C_23
REMARK   10  A    between atoms: C_23  and  O_24
REMARK   11  A    between atoms: O_24  and  C_25
REMARK                            x       y       z     vdW  Elec       q    Type
REMARK                         _______ _______ _______ _____ _____    ______ ____
ROOT
ATOM      1  C   UNL     1       3.222   5.151  17.578  0.00  0.00    +0.000 A 
ATOM      2  C   UNL     1       3.967   4.393  16.625  0.00  0.00    +0.000 A 
ATOM      3  C   UNL     1       5.088   4.887  15.958  0.00  0.00    +0.000 A 
ATOM      4  C   UNL     1       5.433   6.209  16.186  0.00  0.00    +0.000 A 
ATOM      5  C   UNL     1       4.664   6.998  17.054  0.00  0.00    +0.000 A 
ATOM      6  C   UNL     1       3.550   6.521  17.798  0.00  0.00    +0.000 A 
ENDROOT
BRANCH   6   7
ATOM      7  N   UNL     1       2.860   7.429  18.598  0.00  0.00    +0.000 N 
ATOM      8  C   UNL     1       2.648   8.834  18.162  0.00  0.00    +0.000 C 
ATOM      9  C   UNL     1       1.218   9.295  18.522  0.00  0.00    +0.000 C 
ATOM     10  N   UNL     1       0.861   9.057  19.930  0.00  0.00    +0.000 N 
ATOM     11  C   UNL     1      -0.216   9.667  20.573  0.00  0.00    +0.000 C 
ATOM     12  O   UNL     1      -0.561   9.352  21.715  0.00  0.00    +0.000 OA
ATOM     13  C   UNL     1       1.252   7.762  20.463  0.00  0.00    +0.000 C 
ATOM     14  C   UNL     1       2.650   7.315  20.055  0.00  0.00    +0.000 C 
BRANCH  11  15
ATOM     15  C   UNL     1      -1.007  10.700  19.792  0.00  0.00    +0.000 C 
BRANCH  15  16
ATOM     16  O   UNL     1      -1.026  11.943  20.475  0.00  0.00    +0.000 OA
BRANCH  16  17
ATOM     17  C   UNL     1      -2.215  12.280  21.059  0.00  0.00    +0.000 A 
ATOM     18  C   UNL     1      -3.223  12.666  20.172  0.00  0.00    +0.000 A 
ATOM     19  C   UNL     1      -4.490  13.021  20.641  0.00  0.00    +0.000 A 
ATOM     20  C   UNL     1      -4.760  12.983  22.007  0.00  0.00    +0.000 A 
ATOM     21  C   UNL     1      -3.755  12.598  22.893  0.00  0.00    +0.000 A 
ATOM     22 CL   UNL     1      -4.083  12.547  24.583  0.00  0.00    +0.000 Cl
ATOM     23  C   UNL     1      -2.489  12.257  22.433  0.00  0.00    +0.000 A 
ENDBRANCH  16  17
ENDBRANCH  15  16
ENDBRANCH  11  15
ENDBRANCH   6   7
BRANCH   3  24
ATOM     24  C   UNL     1       5.903   4.009  15.039  0.00  0.00    +0.000 C 
ATOM     25  F   UNL     1       6.011   2.722  15.477  0.00  0.00    +0.000 F 
ATOM     26  F   UNL     1       5.383   3.931  13.785  0.00  0.00    +0.000 F 
ATOM     27  F   UNL     1       7.179   4.458  14.893  0.00  0.00    +0.000 F 
ENDBRANCH   3  24
BRANCH   1  28
ATOM     28  C   UNL     1       2.104   4.390  18.282  0.00  0.00    +0.000 C 
BRANCH  28  29
ATOM     29  N   UNL     1       0.993   4.159  17.341  0.00  0.00    +0.000 NA
ATOM     30  H   UNL     1       0.960   3.171  17.098  0.00  0.00    +0.000 HD
ATOM     31  H   UNL     1       1.212   4.630  16.462  0.00  0.00    +0.000 HD
ENDBRANCH  28  29
BRANCH  28  32
ATOM     32  C   UNL     1       2.474   3.032  18.924  0.00  0.00    +0.000 C 
BRANCH  32  34
ATOM     33  C   UNL     1       2.403   2.778  21.486  0.00  0.00    +0.000 C 
ATOM     34  C   UNL     1       3.248   3.121  20.256  0.00  0.00    +0.000 C 
ATOM     35  C   UNL     1       4.447   2.175  20.183  0.00  0.00    +0.000 C 
ENDBRANCH  32  34
ENDBRANCH  28  32
ENDBRANCH   1  28
TORSDOF 9
ENDMDL
MODEL 8
REMARK VINA RESULT:      -7.8      3.050      4.038
REMARK  Name = 
REMARK  11 active torsions:
REMARK  status: ('A' for Active; 'I' for Inactive)
REMARK    1  A    between atoms: C_1  and  C_2
REMARK    2  A    between atoms: C_2  and  C_3
REMARK    3  A    between atoms: C_2  and  C_4
REMARK    4  A    between atoms: C_4  and  C_5
REMARK    5  A    between atoms: C_5  and  N_6
REMARK    6  A    between atoms: C_5  and  C_7
REMARK    7  A    between atoms: C_9  and  C_10
REMARK    8  A    between atoms: C_16  and  N_17
REMARK    9  A    between atoms: C_21  and  C_23
REMARK   10  A    between atoms: C_23  and  O_24
REMARK   11  A    between atoms: O_24  and  C_25
REMARK                            x       y       z     vdW  Elec       q    Type
REMARK                         _______ _______ _______ _____ _____    ______ ____
ROOT
ATOM      1  C   UNL     1       3.232   5.132  17.546  0.00  0.00    +0.000 A 
ATOM      2  C   UNL     1       3.983   4.387  16.588  0.00  0.00    +0.000 A 
ATOM      3  C   UNL     1       5.121   4.883  15.951  0.00  0.00    +0.000 A 
ATOM      4  C   UNL     1       5.478   6.195  16.215  0.00  0.00    +0.000 A 
ATOM      5  C   UNL     1       4.704   6.973  17.089  0.00  0.00    +0.000 A 
ATOM      6  C   UNL     1       3.572   6.492  17.803  0.00  0.00    +0.000 A 
ENDROOT
BRANCH   6   7
ATOM      7  N   UNL     1       2.880   7.390  18.613  0.00  0.00    +0.000 N 
ATOM      8  C   UNL     1       2.703   8.811  18.212  0.00  0.00    +0.000 C 
ATOM      9  C   UNL     1       1.274   9.287  18.553  0.00  0.00    +0.000 C 
ATOM     10  N   UNL     1       0.879   9.016  19.945  0.00  0.00    +0.000 N 
ATOM     11  C   UNL     1      -0.201   9.628  20.580  0.00  0.00    +0.000 C 
ATOM     12  O   UNL     1      -0.578   9.287  21.704  0.00  0.00    +0.000 OA
ATOM     13  C   UNL     1       1.234   7.700  20.449  0.00  0.00    +0.000 C 
ATOM     14  C   UNL     1       2.634   7.239  20.061  0.00  0.00    +0.000 C 
BRANCH  11  15
ATOM     15  C   UNL     1      -0.955  10.697  19.811  0.00  0.00    +0.000 C 
BRANCH  15  16
ATOM     16  O   UNL     1      -0.908  10.443  18.416  0.00  0.00    +0.000 OA
BRANCH  16  17
ATOM     17  C   UNL     1      -2.067  10.677  17.731  0.00  0.00    +0.000 A 
ATOM     18  C   UNL     1      -3.035  11.399  18.435  0.00  0.00    +0.000 A 
ATOM     19  C   UNL     1      -4.259  11.718  17.842  0.00  0.00    +0.000 A 
ATOM     20  C   UNL     1      -4.520  11.322  16.531  0.00  0.00    +0.000 A 
ATOM     21  C   UNL     1      -3.554  10.603  15.829  0.00  0.00    +0.000 A 
ATOM     22 CL   UNL     1      -3.869  10.114  14.208  0.00  0.00    +0.000 Cl
ATOM     23  C   UNL     1      -2.340  10.272  16.418  0.00  0.00    +0.000 A 
ENDBRANCH  16  17
ENDBRANCH  15  16
ENDBRANCH  11  15
ENDBRANCH   6   7
BRANCH   3  24
ATOM     24  C   UNL     1       5.941   4.017  15.025  0.00  0.00    +0.000 C 
ATOM     25  F   UNL     1       7.208   4.483  14.831  0.00  0.00    +0.000 F 
ATOM     26  F   UNL     1       6.079   2.742  15.479  0.00  0.00    +0.000 F 
ATOM     27  F   UNL     1       5.389   3.919  13.784  0.00  0.00    +0.000 F 
ENDBRANCH   3  24
BRANCH   1  28
ATOM     28  C   UNL     1       2.093   4.369  18.214  0.00  0.00    +0.000 C 
BRANCH  28  29
ATOM     29  N   UNL     1       1.014   4.135  17.237  0.00  0.00    +0.000 NA
ATOM     30  H   UNL     1       1.232   3.305  16.690  0.00  0.00    +0.000 HD
ATOM     31  H   UNL     1       1.024   4.897  16.557  0.00  0.00    +0.000 HD
ENDBRANCH  28  29
BRANCH  28  32
ATOM     32  C   UNL     1       2.445   3.012  18.868  0.00  0.00    +0.000 C 
BRANCH  32  34
ATOM     33  C   UNL     1       2.285   2.789  21.429  0.00  0.00    +0.000 C 
ATOM     34  C   UNL     1       3.176   3.104  20.224  0.00  0.00    +0.000 C 
ATOM     35  C   UNL     1       4.360   2.137  20.202  0.00  0.00    +0.000 C 
ENDBRANCH  32  34
ENDBRANCH  28  32
ENDBRANCH   1  28
TORSDOF 9
ENDMDL
MODEL 9
REMARK VINA RESULT:      -7.7      2.643      3.571
REMARK  Name = 
REMARK  11 active torsions:
REMARK  status: ('A' for Active; 'I' for Inactive)
REMARK    1  A    between atoms: C_1  and  C_2
REMARK    2  A    between atoms: C_2  and  C_3
REMARK    3  A    between atoms: C_2  and  C_4
REMARK    4  A    between atoms: C_4  and  C_5
REMARK    5  A    between atoms: C_5  and  N_6
REMARK    6  A    between atoms: C_5  and  C_7
REMARK    7  A    between atoms: C_9  and  C_10
REMARK    8  A    between atoms: C_16  and  N_17
REMARK    9  A    between atoms: C_21  and  C_23
REMARK   10  A    between atoms: C_23  and  O_24
REMARK   11  A    between atoms: O_24  and  C_25
REMARK                            x       y       z     vdW  Elec       q    Type
REMARK                         _______ _______ _______ _____ _____    ______ ____
ROOT
ATOM      1  C   UNL     1       3.274   5.123  17.518  0.00  0.00    +0.000 A 
ATOM      2  C   UNL     1       4.020   4.382  16.552  0.00  0.00    +0.000 A 
ATOM      3  C   UNL     1       5.141   4.889  15.895  0.00  0.00    +0.000 A 
ATOM      4  C   UNL     1       5.485   6.207  16.146  0.00  0.00    +0.000 A 
ATOM      5  C   UNL     1       4.714   6.981  17.027  0.00  0.00    +0.000 A 
ATOM      6  C   UNL     1       3.599   6.489  17.761  0.00  0.00    +0.000 A 
ENDROOT
BRANCH   6   7
ATOM      7  N   UNL     1       2.908   7.383  18.577  0.00  0.00    +0.000 N 
ATOM      8  C   UNL     1       2.721   8.803  18.178  0.00  0.00    +0.000 C 
ATOM      9  C   UNL     1       1.291   9.271  18.528  0.00  0.00    +0.000 C 
ATOM     10  N   UNL     1       0.907   8.997  19.923  0.00  0.00    +0.000 N 
ATOM     11  C   UNL     1      -0.172   9.602  20.565  0.00  0.00    +0.000 C 
ATOM     12  O   UNL     1      -0.541   9.258  21.691  0.00  0.00    +0.000 OA
ATOM     13  C   UNL     1       1.272   7.683  20.423  0.00  0.00    +0.000 C 
ATOM     14  C   UNL     1       2.672   7.229  20.026  0.00  0.00    +0.000 C 
BRANCH  11  15
ATOM     15  C   UNL     1      -0.937  10.667  19.801  0.00  0.00    +0.000 C 
BRANCH  15  16
ATOM     16  O   UNL     1      -1.130  10.280  18.450  0.00  0.00    +0.000 OA
BRANCH  16  17
ATOM     17  C   UNL     1      -2.307  10.679  17.881  0.00  0.00    +0.000 A 
ATOM     18  C   UNL     1      -2.507  10.243  16.569  0.00  0.00    +0.000 A 
ATOM     19  C   UNL     1      -3.677  10.570  15.878  0.00  0.00    +0.000 A 
ATOM     20  C   UNL     1      -4.662  11.333  16.504  0.00  0.00    +0.000 A 
ATOM     21  C   UNL     1      -4.462  11.767  17.813  0.00  0.00    +0.000 A 
ATOM     22 CL   UNL     1      -5.676  12.708  18.593  0.00  0.00    +0.000 Cl
ATOM     23  C   UNL     1      -3.295  11.456  18.499  0.00  0.00    +0.000 A 
ENDBRANCH  16  17
ENDBRANCH  15  16
ENDBRANCH  11  15
ENDBRANCH   6   7
BRANCH   3  24
ATOM     24  C   UNL     1       5.959   4.028  14.962  0.00  0.00    +0.000 C 
ATOM     25  F   UNL     1       6.100   2.744  15.398  0.00  0.00    +0.000 F 
ATOM     26  F   UNL     1       5.420   3.941  13.716  0.00  0.00    +0.000 F 
ATOM     27  F   UNL     1       7.224   4.503  14.796  0.00  0.00    +0.000 F 
ENDBRANCH   3  24
BRANCH   1  28
ATOM     28  C   UNL     1       2.155   4.349  18.207  0.00  0.00    +0.000 C 
BRANCH  28  29
ATOM     29  N   UNL     1       1.080   4.065  17.240  0.00  0.00    +0.000 NA
ATOM     30  H   UNL     1       0.918   3.060  17.204  0.00  0.00    +0.000 HD
ATOM     31  H   UNL     1       1.417   4.301  16.305  0.00  0.00    +0.000 HD
ENDBRANCH  28  29
BRANCH  28  32
ATOM     32  C   UNL     1       2.542   3.017  18.892  0.00  0.00    +0.000 C 
BRANCH  32  34
ATOM     33  C   UNL     1       2.846   2.632  21.421  0.00  0.00    +0.000 C 
ATOM     34  C   UNL     1       1.864   2.755  20.253  0.00  0.00    +0.000 C 
ATOM     35  C   UNL     1       0.884   3.896  20.532  0.00  0.00    +0.000 C 
ENDBRANCH  32  34
ENDBRANCH  28  32
ENDBRANCH   1  28
TORSDOF 9
ENDMDL
