MODEL 1
REMARK VINA RESULT:      -8.2      0.000      0.000
REMARK  Name = 
REMARK  2 active torsions:
REMARK  status: ('A' for Active; 'I' for Inactive)
REMARK    1  A    between atoms: C_4  and  C_5
REMARK    2  A    between atoms: C_12  and  C_13
REMARK                            x       y       z     vdW  Elec       q    Type
REMARK                         _______ _______ _______ _____ _____    ______ ____
ROOT
ATOM      1  O   UNL     1       8.000   5.070  19.307  0.00  0.00    +0.000 OA
ATOM      2  C   UNL     1       6.976   5.556  18.828  0.00  0.00    +0.000 C 
ATOM      3  C   UNL     1       5.663   4.977  19.186  0.00  0.00    +0.000 C 
ATOM      4  C   UNL     1       4.539   5.475  18.654  0.00  0.00    +0.000 C 
ATOM      5  C   UNL     1       4.519   6.614  17.667  0.00  0.00    +0.000 C 
ATOM      6  C   UNL     1       5.856   6.743  16.895  0.00  0.00    +0.000 C 
ATOM      7  C   UNL     1       7.018   6.755  17.902  0.00  0.00    +0.000 C 
ENDROOT
BRANCH   6   8
ATOM      8  C   UNL     1       5.966   5.707  15.770  0.00  0.00    +0.000 A 
ATOM      9  C   UNL     1       7.193   5.575  15.088  0.00  0.00    +0.000 A 
ATOM     10  C   UNL     1       7.329   4.680  14.026  0.00  0.00    +0.000 A 
ATOM     11  C   UNL     1       6.249   3.899  13.641  0.00  0.00    +0.000 A 
ATOM     12  F   UNL     1       6.375   3.054  12.610  0.00  0.00    +0.000 F 
ATOM     13  C   UNL     1       5.041   3.982  14.314  0.00  0.00    +0.000 A 
ATOM     14  C   UNL     1       4.900   4.876  15.379  0.00  0.00    +0.000 A 
ENDBRANCH   6   8
BRANCH   4  15
ATOM     15  C   UNL     1       3.261   4.830  18.988  0.00  0.00    +0.000 A 
ATOM     16  C   UNL     1       2.768   4.851  20.296  0.00  0.00    +0.000 A 
ATOM     17  C   UNL     1       1.593   4.164  20.614  0.00  0.00    +0.000 A 
ATOM     18  C   UNL     1       0.908   3.455  19.628  0.00  0.00    +0.000 A 
ATOM     19  C   UNL     1       1.392   3.436  18.321  0.00  0.00    +0.000 A 
ATOM     20  C   UNL     1       2.565   4.121  18.000  0.00  0.00    +0.000 A 
ENDBRANCH   4  15
TORSDOF 2
ENDMDL
MODEL 2
REMARK VINA RESULT:      -8.1      0.189      1.071
REMARK  Name = 
REMARK  2 active torsions:
REMARK  status: ('A' for Active; 'I' for Inactive)
REMARK    1  A    between atoms: C_4  and  C_5
REMARK    2  A    between atoms: C_12  and  C_13
REMARK                            x       y       z     vdW  Elec       q    Type
REMARK                         _______ _______ _______ _____ _____    ______ ____
ROOT
ATOM      1  O   UNL     1       8.013   5.114  19.303  0.00  0.00    +0.000 OA
ATOM      2  C   UNL     1       6.965   5.560  18.837  0.00  0.00    +0.000 C 
ATOM      3  C   UNL     1       5.681   4.924  19.206  0.00  0.00    +0.000 C 
ATOM      4  C   UNL     1       4.531   5.378  18.687  0.00  0.00    +0.000 C 
ATOM      5  C   UNL     1       4.454   6.520  17.707  0.00  0.00    +0.000 C 
ATOM      6  C   UNL     1       5.777   6.709  16.922  0.00  0.00    +0.000 C 
ATOM      7  C   UNL     1       6.947   6.764  17.918  0.00  0.00    +0.000 C 
ENDROOT
BRANCH   6   8
ATOM      8  C   UNL     1       5.918   5.684  15.790  0.00  0.00    +0.000 A 
ATOM      9  C   UNL     1       7.131   5.629  15.074  0.00  0.00    +0.000 A 
ATOM     10  C   UNL     1       7.292   4.747  14.005  0.00  0.00    +0.000 A 
ATOM     11  C   UNL     1       6.250   3.903  13.647  0.00  0.00    +0.000 A 
ATOM     12  F   UNL     1       6.399   3.070  12.609  0.00  0.00    +0.000 F 
ATOM     13  C   UNL     1       5.059   3.910  14.353  0.00  0.00    +0.000 A 
ATOM     14  C   UNL     1       4.894   4.791  15.425  0.00  0.00    +0.000 A 
ENDBRANCH   6   8
BRANCH   4  15
ATOM     15  C   UNL     1       3.285   4.679  19.030  0.00  0.00    +0.000 A 
ATOM     16  C   UNL     1       2.747   3.711  18.176  0.00  0.00    +0.000 A 
ATOM     17  C   UNL     1       1.520   3.114  18.476  0.00  0.00    +0.000 A 
ATOM     18  C   UNL     1       0.826   3.482  19.628  0.00  0.00    +0.000 A 
ATOM     19  C   UNL     1       1.360   4.441  20.486  0.00  0.00    +0.000 A 
ATOM     20  C   UNL     1       2.586   5.039  20.190  0.00  0.00    +0.000 A 
ENDBRANCH   4  15
TORSDOF 2
ENDMDL
MODEL 3
REMARK VINA RESULT:      -8.0      1.295      1.450
REMARK  Name = 
REMARK  2 active torsions:
REMARK  status: ('A' for Active; 'I' for Inactive)
REMARK    1  A    between atoms: C_4  and  C_5
REMARK    2  A    between atoms: C_12  and  C_13
REMARK                            x       y       z     vdW  Elec       q    Type
REMARK                         _______ _______ _______ _____ _____    ______ ____
ROOT
ATOM      1  O   UNL     1       8.302   4.433  18.182  0.00  0.00    +0.000 OA
ATOM      2  C   UNL     1       7.233   4.892  17.784  0.00  0.00    +0.000 C 
ATOM      3  C   UNL     1       5.971   4.218  18.162  0.00  0.00    +0.000 C 
ATOM      4  C   UNL     1       4.797   4.686  17.716  0.00  0.00    +0.000 C 
ATOM      5  C   UNL     1       4.670   5.884  16.810  0.00  0.00    +0.000 C 
ATOM      6  C   UNL     1       5.959   6.137  15.988  0.00  0.00    +0.000 C 
ATOM      7  C   UNL     1       7.166   6.148  16.940  0.00  0.00    +0.000 C 
ENDROOT
BRANCH   6   8
ATOM      8  C   UNL     1       6.068   5.183  14.792  0.00  0.00    +0.000 A 
ATOM      9  C   UNL     1       7.277   5.137  14.070  0.00  0.00    +0.000 A 
ATOM     10  C   UNL     1       7.410   4.321  12.946  0.00  0.00    +0.000 A 
ATOM     11  C   UNL     1       6.343   3.534  12.538  0.00  0.00    +0.000 A 
ATOM     12  F   UNL     1       6.465   2.765  11.448  0.00  0.00    +0.000 F 
ATOM     13  C   UNL     1       5.154   3.532  13.247  0.00  0.00    +0.000 A 
ATOM     14  C   UNL     1       5.017   4.347  14.373  0.00  0.00    +0.000 A 
ENDBRANCH   6   8
BRANCH   4  15
ATOM     15  C   UNL     1       3.573   3.952  18.063  0.00  0.00    +0.000 A 
ATOM     16  C   UNL     1       3.634   2.633  18.523  0.00  0.00    +0.000 A 
ATOM     17  C   UNL     1       2.458   1.921  18.771  0.00  0.00    +0.000 A 
ATOM     18  C   UNL     1       1.218   2.522  18.560  0.00  0.00    +0.000 A 
ATOM     19  C   UNL     1       1.151   3.839  18.108  0.00  0.00    +0.000 A 
ATOM     20  C   UNL     1       2.324   4.554  17.859  0.00  0.00    +0.000 A 
ENDBRANCH   4  15
TORSDOF 2
ENDMDL
MODEL 4
REMARK VINA RESULT:      -8.0      2.727      3.925
REMARK  Name = 
REMARK  2 active torsions:
REMARK  status: ('A' for Active; 'I' for Inactive)
REMARK    1  A    between atoms: C_4  and  C_5
REMARK    2  A    between atoms: C_12  and  C_13
REMARK                            x       y       z     vdW  Elec       q    Type
REMARK                         _______ _______ _______ _____ _____    ______ ____
ROOT
ATOM      1  O   UNL     1       1.867   2.630  17.326  0.00  0.00    +0.000 OA
ATOM      2  C   UNL     1       2.533   3.403  18.013  0.00  0.00    +0.000 C 
ATOM      3  C   UNL     1       2.096   4.811  18.148  0.00  0.00    +0.000 C 
ATOM      4  C   UNL     1       2.822   5.676  18.869  0.00  0.00    +0.000 C 
ATOM      5  C   UNL     1       4.109   5.306  19.562  0.00  0.00    +0.000 C 
ATOM      6  C   UNL     1       4.801   4.086  18.902  0.00  0.00    +0.000 C 
ATOM      7  C   UNL     1       3.776   2.950  18.751  0.00  0.00    +0.000 C 
ENDROOT
BRANCH   6   8
ATOM      8  C   UNL     1       5.548   4.479  17.623  0.00  0.00    +0.000 A 
ATOM      9  C   UNL     1       5.372   3.691  16.467  0.00  0.00    +0.000 A 
ATOM     10  C   UNL     1       6.066   3.980  15.291  0.00  0.00    +0.000 A 
ATOM     11  C   UNL     1       6.932   5.063  15.252  0.00  0.00    +0.000 A 
ATOM     12  F   UNL     1       7.612   5.329  14.129  0.00  0.00    +0.000 F 
ATOM     13  C   UNL     1       7.099   5.876  16.361  0.00  0.00    +0.000 A 
ATOM     14  C   UNL     1       6.406   5.591  17.540  0.00  0.00    +0.000 A 
ENDBRANCH   6   8
BRANCH   4  15
ATOM     15  C   UNL     1       2.387   7.077  18.926  0.00  0.00    +0.000 A 
ATOM     16  C   UNL     1       1.820   7.605  20.091  0.00  0.00    +0.000 A 
ATOM     17  C   UNL     1       1.336   8.916  20.104  0.00  0.00    +0.000 A 
ATOM     18  C   UNL     1       1.416   9.704  18.956  0.00  0.00    +0.000 A 
ATOM     19  C   UNL     1       1.986   9.185  17.795  0.00  0.00    +0.000 A 
ATOM     20  C   UNL     1       2.471   7.876  17.778  0.00  0.00    +0.000 A 
ENDBRANCH   4  15
TORSDOF 2
ENDMDL
MODEL 5
REMARK VINA RESULT:      -8.0      2.725      3.851
REMARK  Name = 
REMARK  2 active torsions:
REMARK  status: ('A' for Active; 'I' for Inactive)
REMARK    1  A    between atoms: C_4  and  C_5
REMARK    2  A    between atoms: C_12  and  C_13
REMARK                            x       y       z     vdW  Elec       q    Type
REMARK                         _______ _______ _______ _____ _____    ______ ____
ROOT
ATOM      1  O   UNL     1       1.721   2.541  17.742  0.00  0.00    +0.000 OA
ATOM      2  C   UNL     1       2.438   3.350  18.328  0.00  0.00    +0.000 C 
ATOM      3  C   UNL     1       2.022   4.769  18.396  0.00  0.00    +0.000 C 
ATOM      4  C   UNL     1       2.803   5.671  19.005  0.00  0.00    +0.000 C 
ATOM      5  C   UNL     1       4.131   5.333  19.634  0.00  0.00    +0.000 C 
ATOM      6  C   UNL     1       4.766   4.063  19.014  0.00  0.00    +0.000 C 
ATOM      7  C   UNL     1       3.725   2.932  19.010  0.00  0.00    +0.000 C 
ENDROOT
BRANCH   6   8
ATOM      8  C   UNL     1       5.427   4.359  17.663  0.00  0.00    +0.000 A 
ATOM      9  C   UNL     1       6.498   5.275  17.618  0.00  0.00    +0.000 A 
ATOM     10  C   UNL     1       7.101   5.613  16.406  0.00  0.00    +0.000 A 
ATOM     11  C   UNL     1       6.652   5.033  15.229  0.00  0.00    +0.000 A 
ATOM     12  F   UNL     1       7.219   5.372  14.064  0.00  0.00    +0.000 F 
ATOM     13  C   UNL     1       5.625   4.104  15.245  0.00  0.00    +0.000 A 
ATOM     14  C   UNL     1       5.019   3.762  16.456  0.00  0.00    +0.000 A 
ENDBRANCH   6   8
BRANCH   4  15
ATOM     15  C   UNL     1       2.384   7.079  18.997  0.00  0.00    +0.000 A 
ATOM     16  C   UNL     1       1.801   7.661  20.127  0.00  0.00    +0.000 A 
ATOM     17  C   UNL     1       1.333   8.977  20.077  0.00  0.00    +0.000 A 
ATOM     18  C   UNL     1       1.444   9.715  18.899  0.00  0.00    +0.000 A 
ATOM     19  C   UNL     1       2.029   9.142  17.771  0.00  0.00    +0.000 A 
ATOM     20  C   UNL     1       2.498   7.828  17.818  0.00  0.00    +0.000 A 
ENDBRANCH   4  15
TORSDOF 2
ENDMDL
MODEL 6
REMARK VINA RESULT:      -7.9      0.305      1.119
REMARK  Name = 
REMARK  2 active torsions:
REMARK  status: ('A' for Active; 'I' for Inactive)
REMARK    1  A    between atoms: C_4  and  C_5
REMARK    2  A    between atoms: C_12  and  C_13
REMARK                            x       y       z     vdW  Elec       q    Type
REMARK                         _______ _______ _______ _____ _____    ______ ____
ROOT
ATOM      1  O   UNL     1       7.941   5.087  19.410  0.00  0.00    +0.000 OA
ATOM      2  C   UNL     1       6.908   5.545  18.925  0.00  0.00    +0.000 C 
ATOM      3  C   UNL     1       5.616   4.885  19.217  0.00  0.00    +0.000 C 
ATOM      4  C   UNL     1       4.483   5.352  18.675  0.00  0.00    +0.000 C 
ATOM      5  C   UNL     1       4.433   6.535  17.743  0.00  0.00    +0.000 C 
ATOM      6  C   UNL     1       5.783   6.767  17.017  0.00  0.00    +0.000 C 
ATOM      7  C   UNL     1       6.914   6.787  18.058  0.00  0.00    +0.000 C 
ENDROOT
BRANCH   6   8
ATOM      8  C   UNL     1       5.975   5.793  15.849  0.00  0.00    +0.000 A 
ATOM      9  C   UNL     1       4.867   5.049  15.397  0.00  0.00    +0.000 A 
ATOM     10  C   UNL     1       5.002   4.115  14.368  0.00  0.00    +0.000 A 
ATOM     11  C   UNL     1       6.240   3.924  13.771  0.00  0.00    +0.000 A 
ATOM     12  F   UNL     1       6.372   3.014  12.797  0.00  0.00    +0.000 F 
ATOM     13  C   UNL     1       7.339   4.664  14.171  0.00  0.00    +0.000 A 
ATOM     14  C   UNL     1       7.209   5.601  15.199  0.00  0.00    +0.000 A 
ENDBRANCH   6   8
BRANCH   4  15
ATOM     15  C   UNL     1       3.232   4.631  18.941  0.00  0.00    +0.000 A 
ATOM     16  C   UNL     1       2.422   4.975  20.027  0.00  0.00    +0.000 A 
ATOM     17  C   UNL     1       1.276   4.227  20.314  0.00  0.00    +0.000 A 
ATOM     18  C   UNL     1       0.937   3.133  19.519  0.00  0.00    +0.000 A 
ATOM     19  C   UNL     1       1.737   2.790  18.430  0.00  0.00    +0.000 A 
ATOM     20  C   UNL     1       2.881   3.535  18.140  0.00  0.00    +0.000 A 
ENDBRANCH   4  15
TORSDOF 2
ENDMDL
MODEL 7
REMARK VINA RESULT:      -7.9      2.714      4.046
REMARK  Name = 
REMARK  2 active torsions:
REMARK  status: ('A' for Active; 'I' for Inactive)
REMARK    1  A    between atoms: C_4  and  C_5
REMARK    2  A    between atoms: C_12  and  C_13
REMARK                            x       y       z     vdW  Elec       q    Type
REMARK                         _______ _______ _______ _____ _____    ______ ____
ROOT
ATOM      1  O   UNL     1       1.879   2.487  17.598  0.00  0.00    +0.000 OA
ATOM      2  C   UNL     1       2.533   3.323  18.220  0.00  0.00    +0.000 C 
ATOM      3  C   UNL     1       2.044   4.717  18.293  0.00  0.00    +0.000 C 
ATOM      4  C   UNL     1       2.755   5.648  18.943  0.00  0.00    +0.000 C 
ATOM      5  C   UNL     1       4.075   5.368  19.615  0.00  0.00    +0.000 C 
ATOM      6  C   UNL     1       4.796   4.141  19.001  0.00  0.00    +0.000 C 
ATOM      7  C   UNL     1       3.814   2.959  18.944  0.00  0.00    +0.000 C 
ENDROOT
BRANCH   6   8
ATOM      8  C   UNL     1       5.489   4.491  17.679  0.00  0.00    +0.000 A 
ATOM      9  C   UNL     1       5.204   3.713  16.539  0.00  0.00    +0.000 A 
ATOM     10  C   UNL     1       5.845   3.962  15.324  0.00  0.00    +0.000 A 
ATOM     11  C   UNL     1       6.766   4.996  15.231  0.00  0.00    +0.000 A 
ATOM     12  F   UNL     1       7.394   5.222  14.071  0.00  0.00    +0.000 F 
ATOM     13  C   UNL     1       7.041   5.798  16.326  0.00  0.00    +0.000 A 
ATOM     14  C   UNL     1       6.401   5.554  17.543  0.00  0.00    +0.000 A 
ENDBRANCH   6   8
BRANCH   4  15
ATOM     15  C   UNL     1       2.265   7.033  18.938  0.00  0.00    +0.000 A 
ATOM     16  C   UNL     1       2.405   7.839  17.804  0.00  0.00    +0.000 A 
ATOM     17  C   UNL     1       2.008   9.179  17.842  0.00  0.00    +0.000 A 
ATOM     18  C   UNL     1       1.472   9.718  19.011  0.00  0.00    +0.000 A 
ATOM     19  C   UNL     1       1.326   8.917  20.142  0.00  0.00    +0.000 A 
ATOM     20  C   UNL     1       1.720   7.579  20.108  0.00  0.00    +0.000 A 
ENDBRANCH   4  15
TORSDOF 2
ENDMDL
MODEL 8
REMARK VINA RESULT:      -7.8      0.377      1.534
REMARK  Name = 
REMARK  2 active torsions:
REMARK  status: ('A' for Active; 'I' for Inactive)
REMARK    1  A    between atoms: C_4  and  C_5
REMARK    2  A    between atoms: C_12  and  C_13
REMARK                            x       y       z     vdW  Elec       q    Type
REMARK                         _______ _______ _______ _____ _____    ______ ____
ROOT
ATOM      1  O   UNL     1       8.090   5.065  19.113  0.00  0.00    +0.000 OA
ATOM      2  C   UNL     1       7.026   5.489  18.665  0.00  0.00    +0.000 C 
ATOM      3  C   UNL     1       5.767   4.788  19.003  0.00  0.00    +0.000 C 
ATOM      4  C   UNL     1       4.601   5.217  18.502  0.00  0.00    +0.000 C 
ATOM      5  C   UNL     1       4.479   6.398  17.573  0.00  0.00    +0.000 C 
ATOM      6  C   UNL     1       5.794   6.673  16.800  0.00  0.00    +0.000 C 
ATOM      7  C   UNL     1       6.960   6.730  17.799  0.00  0.00    +0.000 C 
ENDROOT
BRANCH   6   8
ATOM      8  C   UNL     1       5.976   5.705  15.624  0.00  0.00    +0.000 A 
ATOM      9  C   UNL     1       4.868   4.949  15.192  0.00  0.00    +0.000 A 
ATOM     10  C   UNL     1       4.995   4.021  14.157  0.00  0.00    +0.000 A 
ATOM     11  C   UNL     1       6.223   3.846  13.536  0.00  0.00    +0.000 A 
ATOM     12  F   UNL     1       6.349   2.942  12.557  0.00  0.00    +0.000 F 
ATOM     13  C   UNL     1       7.321   4.599  13.917  0.00  0.00    +0.000 A 
ATOM     14  C   UNL     1       7.199   5.530  14.951  0.00  0.00    +0.000 A 
ENDBRANCH   6   8
BRANCH   4  15
ATOM     15  C   UNL     1       3.384   4.456  18.812  0.00  0.00    +0.000 A 
ATOM     16  C   UNL     1       2.994   3.373  18.017  0.00  0.00    +0.000 A 
ATOM     17  C   UNL     1       1.791   2.710  18.276  0.00  0.00    +0.000 A 
ATOM     18  C   UNL     1       0.974   3.126  19.326  0.00  0.00    +0.000 A 
ATOM     19  C   UNL     1       1.361   4.200  20.125  0.00  0.00    +0.000 A 
ATOM     20  C   UNL     1       2.562   4.865  19.871  0.00  0.00    +0.000 A 
ENDBRANCH   4  15
TORSDOF 2
ENDMDL
MODEL 9
REMARK VINA RESULT:      -7.8      2.717      3.992
REMARK  Name = 
REMARK  2 active torsions:
REMARK  status: ('A' for Active; 'I' for Inactive)
REMARK    1  A    between atoms: C_4  and  C_5
REMARK    2  A    between atoms: C_12  and  C_13
REMARK                            x       y       z     vdW  Elec       q    Type
REMARK                         _______ _______ _______ _____ _____    ______ ____
ROOT
ATOM      1  O   UNL     1       1.814   2.398  17.662  0.00  0.00    +0.000 OA
ATOM      2  C   UNL     1       2.474   3.236  18.274  0.00  0.00    +0.000 C 
ATOM      3  C   UNL     1       2.005   4.639  18.314  0.00  0.00    +0.000 C 
ATOM      4  C   UNL     1       2.724   5.572  18.952  0.00  0.00    +0.000 C 
ATOM      5  C   UNL     1       4.033   5.286  19.642  0.00  0.00    +0.000 C 
ATOM      6  C   UNL     1       4.741   4.037  19.060  0.00  0.00    +0.000 C 
ATOM      7  C   UNL     1       3.743   2.869  19.017  0.00  0.00    +0.000 C 
ENDROOT
BRANCH   6   8
ATOM      8  C   UNL     1       5.452   4.349  17.738  0.00  0.00    +0.000 A 
ATOM      9  C   UNL     1       6.506   5.285  17.741  0.00  0.00    +0.000 A 
ATOM     10  C   UNL     1       7.153   5.638  16.555  0.00  0.00    +0.000 A 
ATOM     11  C   UNL     1       6.764   5.054  15.359  0.00  0.00    +0.000 A 
ATOM     12  F   UNL     1       7.372   5.407  14.219  0.00  0.00    +0.000 F 
ATOM     13  C   UNL     1       5.754   4.106  15.330  0.00  0.00    +0.000 A 
ATOM     14  C   UNL     1       5.105   3.748  16.514  0.00  0.00    +0.000 A 
ENDBRANCH   6   8
BRANCH   4  15
ATOM     15  C   UNL     1       2.255   6.964  18.914  0.00  0.00    +0.000 A 
ATOM     16  C   UNL     1       2.382   7.732  17.753  0.00  0.00    +0.000 A 
ATOM     17  C   UNL     1       2.006   9.079  17.757  0.00  0.00    +0.000 A 
ATOM     18  C   UNL     1       1.503   9.661  18.919  0.00  0.00    +0.000 A 
ATOM     19  C   UNL     1       1.368   8.898  20.078  0.00  0.00    +0.000 A 
ATOM     20  C   UNL     1       1.742   7.553  20.077  0.00  0.00    +0.000 A 
ENDBRANCH   4  15
TORSDOF 2
ENDMDL
