MODEL 1
REMARK VINA RESULT:      -7.9      0.000      0.000
REMARK  Name = 
REMARK  6 active torsions:
REMARK  status: ('A' for Active; 'I' for Inactive)
REMARK    1  A    between atoms: C_1  and  C_2
REMARK    2  A    between atoms: C_2  and  O_3
REMARK    3  A    between atoms: O_3  and  C_4
REMARK    4  A    between atoms: C_4  and  C_6
REMARK    5  A    between atoms: C_9  and  N_10
REMARK    6  A    between atoms: N_10  and  C_11
REMARK                            x       y       z     vdW  Elec       q    Type
REMARK                         _______ _______ _______ _____ _____    ______ ____
ROOT
ATOM      1  N   UNL     1       4.463   6.108  18.795  0.00  0.00    +0.000 N 
ATOM      2  H   UNL     1       4.959   5.758  19.621  0.00  0.00    +0.000 HD
ENDROOT
BRANCH   1   3
ATOM      3  C   UNL     1       3.133   5.795  19.101  0.00  0.00    +0.000 A 
ATOM      4  N   UNL     1       2.539   6.802  19.760  0.00  0.00    +0.000 NA
ATOM      5  C   UNL     1       1.599   6.433  20.620  0.00  0.00    +0.000 A 
ATOM      6  N   UNL     1       1.309   5.170  20.934  0.00  0.00    +0.000 NA
ATOM      7  C   UNL     1       1.742   4.235  20.084  0.00  0.00    +0.000 A 
ATOM      8  C   UNL     1       1.386   2.921  20.299  0.00  0.00    +0.000 A 
ATOM      9  C   UNL     1       1.479   1.976  19.283  0.00  0.00    +0.000 A 
ATOM     10  C   UNL     1       1.964   2.352  18.036  0.00  0.00    +0.000 A 
ATOM     11  C   UNL     1       2.566   3.605  17.893  0.00  0.00    +0.000 A 
ATOM     12  C   UNL     1       2.521   4.537  18.970  0.00  0.00    +0.000 A 
ENDBRANCH   1   3
BRANCH   1  16
ATOM     13  C   UNL     1       6.497   5.135  15.183  0.00  0.00    +0.000 A 
ATOM     14  C   UNL     1       5.488   6.091  15.217  0.00  0.00    +0.000 A 
ATOM     15  C   UNL     1       4.876   6.434  16.444  0.00  0.00    +0.000 A 
ATOM     16  C   UNL     1       5.262   5.828  17.655  0.00  0.00    +0.000 A 
ATOM     17  C   UNL     1       6.340   4.941  17.620  0.00  0.00    +0.000 A 
ATOM     18  C   UNL     1       6.955   4.602  16.399  0.00  0.00    +0.000 A 
BRANCH  13  19
ATOM     19  C   UNL     1       7.030   4.720  13.856  0.00  0.00    +0.000 C 
ATOM     20  O   UNL     1       7.812   5.384  13.200  0.00  0.00    +0.000 OA
BRANCH  19  21
ATOM     21  O   UNL     1       6.473   3.543  13.491  0.00  0.00    +0.000 OA
BRANCH  21  23
ATOM     22  C   UNL     1       4.724   3.344  11.821  0.00  0.00    +0.000 C 
ATOM     23  C   UNL     1       6.218   3.354  12.091  0.00  0.00    +0.000 C 
ENDBRANCH  21  23
ENDBRANCH  19  21
ENDBRANCH  13  19
ENDBRANCH   1  16
TORSDOF 5
ENDMDL
MODEL 2
REMARK VINA RESULT:      -7.5      4.679      7.603
REMARK  Name = 
REMARK  6 active torsions:
REMARK  status: ('A' for Active; 'I' for Inactive)
REMARK    1  A    between atoms: C_1  and  C_2
REMARK    2  A    between atoms: C_2  and  O_3
REMARK    3  A    between atoms: O_3  and  C_4
REMARK    4  A    between atoms: C_4  and  C_6
REMARK    5  A    between atoms: C_9  and  N_10
REMARK    6  A    between atoms: N_10  and  C_11
REMARK                            x       y       z     vdW  Elec       q    Type
REMARK                         _______ _______ _______ _____ _____    ______ ____
ROOT
ATOM      1  N   UNL     1       2.842   6.054  17.722  0.00  0.00    +0.000 N 
ATOM      2  H   UNL     1       2.099   5.351  17.783  0.00  0.00    +0.000 HD
ENDROOT
BRANCH   1   3
ATOM      3  C   UNL     1       3.994   5.271  17.857  0.00  0.00    +0.000 A 
ATOM      4  N   UNL     1       3.685   4.007  18.184  0.00  0.00    +0.000 NA
ATOM      5  C   UNL     1       4.587   3.384  18.930  0.00  0.00    +0.000 A 
ATOM      6  N   UNL     1       5.676   3.956  19.444  0.00  0.00    +0.000 NA
ATOM      7  C   UNL     1       6.053   5.111  18.890  0.00  0.00    +0.000 A 
ATOM      8  C   UNL     1       7.229   5.699  19.308  0.00  0.00    +0.000 A 
ATOM      9  C   UNL     1       7.858   6.672  18.539  0.00  0.00    +0.000 A 
ATOM     10  C   UNL     1       7.283   7.080  17.341  0.00  0.00    +0.000 A 
ATOM     11  C   UNL     1       5.976   6.684  17.047  0.00  0.00    +0.000 A 
ATOM     12  C   UNL     1       5.320   5.737  17.886  0.00  0.00    +0.000 A 
ENDBRANCH   1   3
BRANCH   1  16
ATOM     13  C   UNL     1       1.190   9.299  19.931  0.00  0.00    +0.000 A 
ATOM     14  C   UNL     1       1.596   8.124  20.553  0.00  0.00    +0.000 A 
ATOM     15  C   UNL     1       2.196   7.091  19.799  0.00  0.00    +0.000 A 
ATOM     16  C   UNL     1       2.401   7.215  18.412  0.00  0.00    +0.000 A 
ATOM     17  C   UNL     1       2.078   8.436  17.817  0.00  0.00    +0.000 A 
ATOM     18  C   UNL     1       1.483   9.470  18.568  0.00  0.00    +0.000 A 
BRANCH  13  19
ATOM     19  C   UNL     1       0.455  10.309  20.741  0.00  0.00    +0.000 C 
ATOM     20  O   UNL     1       0.905  10.831  21.746  0.00  0.00    +0.000 OA
BRANCH  19  21
ATOM     21  O   UNL     1      -0.777  10.502  20.218  0.00  0.00    +0.000 OA
BRANCH  21  23
ATOM     22  C   UNL     1      -1.132  12.194  18.516  0.00  0.00    +0.000 C 
ATOM     23  C   UNL     1      -1.180  11.863  19.996  0.00  0.00    +0.000 C 
ENDBRANCH  21  23
ENDBRANCH  19  21
ENDBRANCH  13  19
ENDBRANCH   1  16
TORSDOF 5
ENDMDL
MODEL 3
REMARK VINA RESULT:      -7.4      4.649      7.715
REMARK  Name = 
REMARK  6 active torsions:
REMARK  status: ('A' for Active; 'I' for Inactive)
REMARK    1  A    between atoms: C_1  and  C_2
REMARK    2  A    between atoms: C_2  and  O_3
REMARK    3  A    between atoms: O_3  and  C_4
REMARK    4  A    between atoms: C_4  and  C_6
REMARK    5  A    between atoms: C_9  and  N_10
REMARK    6  A    between atoms: N_10  and  C_11
REMARK                            x       y       z     vdW  Elec       q    Type
REMARK                         _______ _______ _______ _____ _____    ______ ____
ROOT
ATOM      1  N   UNL     1       2.883   6.017  17.725  0.00  0.00    +0.000 N 
ATOM      2  H   UNL     1       2.158   5.321  17.924  0.00  0.00    +0.000 HD
ENDROOT
BRANCH   1   3
ATOM      3  C   UNL     1       4.054   5.262  17.858  0.00  0.00    +0.000 A 
ATOM      4  N   UNL     1       3.777   3.994  18.197  0.00  0.00    +0.000 NA
ATOM      5  C   UNL     1       4.697   3.397  18.942  0.00  0.00    +0.000 A 
ATOM      6  N   UNL     1       5.775   3.999  19.445  0.00  0.00    +0.000 NA
ATOM      7  C   UNL     1       6.122   5.158  18.881  0.00  0.00    +0.000 A 
ATOM      8  C   UNL     1       7.286   5.777  19.287  0.00  0.00    +0.000 A 
ATOM      9  C   UNL     1       7.888   6.758  18.507  0.00  0.00    +0.000 A 
ATOM     10  C   UNL     1       7.297   7.144  17.310  0.00  0.00    +0.000 A 
ATOM     11  C   UNL     1       5.998   6.715  17.026  0.00  0.00    +0.000 A 
ATOM     12  C   UNL     1       5.369   5.759  17.876  0.00  0.00    +0.000 A 
ENDBRANCH   1   3
BRANCH   1  16
ATOM     13  C   UNL     1       1.314   9.504  19.598  0.00  0.00    +0.000 A 
ATOM     14  C   UNL     1       1.575   8.344  20.318  0.00  0.00    +0.000 A 
ATOM     15  C   UNL     1       2.152   7.225  19.678  0.00  0.00    +0.000 A 
ATOM     16  C   UNL     1       2.479   7.248  18.308  0.00  0.00    +0.000 A 
ATOM     17  C   UNL     1       2.301   8.449  17.620  0.00  0.00    +0.000 A 
ATOM     18  C   UNL     1       1.729   9.568  18.258  0.00  0.00    +0.000 A 
BRANCH  13  19
ATOM     19  C   UNL     1       0.596  10.613  20.285  0.00  0.00    +0.000 C 
ATOM     20  O   UNL     1      -0.099  11.432  19.708  0.00  0.00    +0.000 OA
BRANCH  19  21
ATOM     21  O   UNL     1       0.880  10.589  21.607  0.00  0.00    +0.000 OA
BRANCH  21  23
ATOM     22  C   UNL     1      -0.619   9.501  23.173  0.00  0.00    +0.000 C 
ATOM     23  C   UNL     1      -0.217  10.804  22.508  0.00  0.00    +0.000 C 
ENDBRANCH  21  23
ENDBRANCH  19  21
ENDBRANCH  13  19
ENDBRANCH   1  16
TORSDOF 5
ENDMDL
MODEL 4
REMARK VINA RESULT:      -7.3      4.952      7.053
REMARK  Name = 
REMARK  6 active torsions:
REMARK  status: ('A' for Active; 'I' for Inactive)
REMARK    1  A    between atoms: C_1  and  C_2
REMARK    2  A    between atoms: C_2  and  O_3
REMARK    3  A    between atoms: O_3  and  C_4
REMARK    4  A    between atoms: C_4  and  C_6
REMARK    5  A    between atoms: C_9  and  N_10
REMARK    6  A    between atoms: N_10  and  C_11
REMARK                            x       y       z     vdW  Elec       q    Type
REMARK                         _______ _______ _______ _____ _____    ______ ____
ROOT
ATOM      1  N   UNL     1       2.471   7.222  20.229  0.00  0.00    +0.000 N 
ATOM      2  H   UNL     1       3.338   7.601  20.622  0.00  0.00    +0.000 HD
ENDROOT
BRANCH   1   3
ATOM      3  C   UNL     1       2.914   6.029  19.645  0.00  0.00    +0.000 A 
ATOM      4  N   UNL     1       3.958   6.246  18.832  0.00  0.00    +0.000 NA
ATOM      5  C   UNL     1       4.048   5.420  17.798  0.00  0.00    +0.000 A 
ATOM      6  N   UNL     1       3.134   4.505  17.476  0.00  0.00    +0.000 NA
ATOM      7  C   UNL     1       2.269   4.170  18.436  0.00  0.00    +0.000 A 
ATOM      8  C   UNL     1       1.366   3.155  18.198  0.00  0.00    +0.000 A 
ATOM      9  C   UNL     1       0.710   2.516  19.244  0.00  0.00    +0.000 A 
ATOM     10  C   UNL     1       0.945   2.922  20.553  0.00  0.00    +0.000 A 
ATOM     11  C   UNL     1       1.648   4.108  20.779  0.00  0.00    +0.000 A 
ATOM     12  C   UNL     1       2.257   4.788  19.684  0.00  0.00    +0.000 A 
ENDBRANCH   1   3
BRANCH   1  16
ATOM     13  C   UNL     1      -0.142  10.267  18.802  0.00  0.00    +0.000 A 
ATOM     14  C   UNL     1      -0.079   9.932  20.150  0.00  0.00    +0.000 A 
ATOM     15  C   UNL     1       0.843   8.960  20.598  0.00  0.00    +0.000 A 
ATOM     16  C   UNL     1       1.717   8.307  19.707  0.00  0.00    +0.000 A 
ATOM     17  C   UNL     1       1.710   8.720  18.374  0.00  0.00    +0.000 A 
ATOM     18  C   UNL     1       0.794   9.693  17.925  0.00  0.00    +0.000 A 
BRANCH  13  19
ATOM     19  C   UNL     1      -1.208  11.207  18.358  0.00  0.00    +0.000 C 
ATOM     20  O   UNL     1      -1.132  12.418  18.463  0.00  0.00    +0.000 OA
BRANCH  19  21
ATOM     21  O   UNL     1      -2.262  10.506  17.882  0.00  0.00    +0.000 OA
BRANCH  21  23
ATOM     22  C   UNL     1      -2.782   9.958  15.577  0.00  0.00    +0.000 C 
ATOM     23  C   UNL     1      -2.876  10.996  16.680  0.00  0.00    +0.000 C 
ENDBRANCH  21  23
ENDBRANCH  19  21
ENDBRANCH  13  19
ENDBRANCH   1  16
TORSDOF 5
ENDMDL
MODEL 5
REMARK VINA RESULT:      -7.3      4.666      7.703
REMARK  Name = 
REMARK  6 active torsions:
REMARK  status: ('A' for Active; 'I' for Inactive)
REMARK    1  A    between atoms: C_1  and  C_2
REMARK    2  A    between atoms: C_2  and  O_3
REMARK    3  A    between atoms: O_3  and  C_4
REMARK    4  A    between atoms: C_4  and  C_6
REMARK    5  A    between atoms: C_9  and  N_10
REMARK    6  A    between atoms: N_10  and  C_11
REMARK                            x       y       z     vdW  Elec       q    Type
REMARK                         _______ _______ _______ _____ _____    ______ ____
ROOT
ATOM      1  N   UNL     1       2.852   6.181  17.674  0.00  0.00    +0.000 N 
ATOM      2  H   UNL     1       2.094   5.492  17.644  0.00  0.00    +0.000 HD
ENDROOT
BRANCH   1   3
ATOM      3  C   UNL     1       3.981   5.363  17.805  0.00  0.00    +0.000 A 
ATOM      4  N   UNL     1       3.634   4.101  18.100  0.00  0.00    +0.000 NA
ATOM      5  C   UNL     1       4.509   3.436  18.843  0.00  0.00    +0.000 A 
ATOM      6  N   UNL     1       5.607   3.967  19.381  0.00  0.00    +0.000 NA
ATOM      7  C   UNL     1       6.022   5.123  18.858  0.00  0.00    +0.000 A 
ATOM      8  C   UNL     1       7.208   5.669  19.302  0.00  0.00    +0.000 A 
ATOM      9  C   UNL     1       7.874   6.640  18.563  0.00  0.00    +0.000 A 
ATOM     10  C   UNL     1       7.325   7.091  17.368  0.00  0.00    +0.000 A 
ATOM     11  C   UNL     1       6.011   6.737  17.050  0.00  0.00    +0.000 A 
ATOM     12  C   UNL     1       5.319   5.790  17.860  0.00  0.00    +0.000 A 
ENDBRANCH   1   3
BRANCH   1  16
ATOM     13  C   UNL     1       1.173   9.274  20.070  0.00  0.00    +0.000 A 
ATOM     14  C   UNL     1       1.612   8.078  20.626  0.00  0.00    +0.000 A 
ATOM     15  C   UNL     1       2.220   7.097  19.811  0.00  0.00    +0.000 A 
ATOM     16  C   UNL     1       2.400   7.296  18.429  0.00  0.00    +0.000 A 
ATOM     17  C   UNL     1       2.043   8.538  17.902  0.00  0.00    +0.000 A 
ATOM     18  C   UNL     1       1.440   9.520  18.714  0.00  0.00    +0.000 A 
BRANCH  13  19
ATOM     19  C   UNL     1       0.431  10.226  20.942  0.00  0.00    +0.000 C 
ATOM     20  O   UNL     1      -0.730  10.074  21.281  0.00  0.00    +0.000 OA
BRANCH  19  21
ATOM     21  O   UNL     1       1.223  11.281  21.241  0.00  0.00    +0.000 OA
BRANCH  21  23
ATOM     22  C   UNL     1       1.286  13.125  19.665  0.00  0.00    +0.000 C 
ATOM     23  C   UNL     1       0.697  12.587  20.956  0.00  0.00    +0.000 C 
ENDBRANCH  21  23
ENDBRANCH  19  21
ENDBRANCH  13  19
ENDBRANCH   1  16
TORSDOF 5
ENDMDL
MODEL 6
REMARK VINA RESULT:      -7.2      4.914      7.552
REMARK  Name = 
REMARK  6 active torsions:
REMARK  status: ('A' for Active; 'I' for Inactive)
REMARK    1  A    between atoms: C_1  and  C_2
REMARK    2  A    between atoms: C_2  and  O_3
REMARK    3  A    between atoms: O_3  and  C_4
REMARK    4  A    between atoms: C_4  and  C_6
REMARK    5  A    between atoms: C_9  and  N_10
REMARK    6  A    between atoms: N_10  and  C_11
REMARK                            x       y       z     vdW  Elec       q    Type
REMARK                         _______ _______ _______ _____ _____    ______ ____
ROOT
ATOM      1  N   UNL     1       3.051   6.832  18.518  0.00  0.00    +0.000 N 
ATOM      2  H   UNL     1       2.727   6.541  17.590  0.00  0.00    +0.000 HD
ENDROOT
BRANCH   1   3
ATOM      3  C   UNL     1       3.485   5.620  19.067  0.00  0.00    +0.000 A 
ATOM      4  N   UNL     1       4.821   5.592  19.183  0.00  0.00    +0.000 NA
ATOM      5  C   UNL     1       5.371   4.391  19.062  0.00  0.00    +0.000 A 
ATOM      6  N   UNL     1       4.709   3.282  18.732  0.00  0.00    +0.000 NA
ATOM      7  C   UNL     1       3.382   3.321  18.876  0.00  0.00    +0.000 A 
ATOM      8  C   UNL     1       2.652   2.173  18.650  0.00  0.00    +0.000 A 
ATOM      9  C   UNL     1       1.354   2.040  19.130  0.00  0.00    +0.000 A 
ATOM     10  C   UNL     1       0.769   3.091  19.829  0.00  0.00    +0.000 A 
ATOM     11  C   UNL     1       1.400   4.338  19.832  0.00  0.00    +0.000 A 
ATOM     12  C   UNL     1       2.704   4.470  19.272  0.00  0.00    +0.000 A 
ENDBRANCH   1   3
BRANCH   1  16
ATOM     13  C   UNL     1       0.655  10.096  19.839  0.00  0.00    +0.000 A 
ATOM     14  C   UNL     1       1.008   9.944  18.503  0.00  0.00    +0.000 A 
ATOM     15  C   UNL     1       1.753   8.817  18.089  0.00  0.00    +0.000 A 
ATOM     16  C   UNL     1       2.155   7.823  19.002  0.00  0.00    +0.000 A 
ATOM     17  C   UNL     1       1.713   7.939  20.321  0.00  0.00    +0.000 A 
ATOM     18  C   UNL     1       0.966   9.060  20.736  0.00  0.00    +0.000 A 
BRANCH  13  19
ATOM     19  C   UNL     1      -0.024  11.355  20.250  0.00  0.00    +0.000 C 
ATOM     20  O   UNL     1      -0.799  11.972  19.540  0.00  0.00    +0.000 OA
BRANCH  19  21
ATOM     21  O   UNL     1       0.393  11.715  21.485  0.00  0.00    +0.000 OA
BRANCH  21  23
ATOM     22  C   UNL     1      -1.261  10.954  23.088  0.00  0.00    +0.000 C 
ATOM     23  C   UNL     1      -0.617  12.149  22.409  0.00  0.00    +0.000 C 
ENDBRANCH  21  23
ENDBRANCH  19  21
ENDBRANCH  13  19
ENDBRANCH   1  16
TORSDOF 5
ENDMDL
MODEL 7
REMARK VINA RESULT:      -7.2      4.706      7.427
REMARK  Name = 
REMARK  6 active torsions:
REMARK  status: ('A' for Active; 'I' for Inactive)
REMARK    1  A    between atoms: C_1  and  C_2
REMARK    2  A    between atoms: C_2  and  O_3
REMARK    3  A    between atoms: O_3  and  C_4
REMARK    4  A    between atoms: C_4  and  C_6
REMARK    5  A    between atoms: C_9  and  N_10
REMARK    6  A    between atoms: N_10  and  C_11
REMARK                            x       y       z     vdW  Elec       q    Type
REMARK                         _______ _______ _______ _____ _____    ______ ____
ROOT
ATOM      1  N   UNL     1       3.320   6.735  18.515  0.00  0.00    +0.000 N 
ATOM      2  H   UNL     1       3.638   6.994  17.577  0.00  0.00    +0.000 HD
ENDROOT
BRANCH   1   3
ATOM      3  C   UNL     1       3.302   5.337  18.441  0.00  0.00    +0.000 A 
ATOM      4  N   UNL     1       3.774   4.910  17.260  0.00  0.00    +0.000 NA
ATOM      5  C   UNL     1       3.246   3.775  16.821  0.00  0.00    +0.000 A 
ATOM      6  N   UNL     1       2.236   3.130  17.406  0.00  0.00    +0.000 NA
ATOM      7  C   UNL     1       1.985   3.455  18.676  0.00  0.00    +0.000 A 
ATOM      8  C   UNL     1       1.021   2.750  19.367  0.00  0.00    +0.000 A 
ATOM      9  C   UNL     1       0.970   2.776  20.756  0.00  0.00    +0.000 A 
ATOM     10  C   UNL     1       1.887   3.545  21.464  0.00  0.00    +0.000 A 
ATOM     11  C   UNL     1       2.687   4.456  20.769  0.00  0.00    +0.000 A 
ATOM     12  C   UNL     1       2.675   4.462  19.344  0.00  0.00    +0.000 A 
ENDBRANCH   1   3
BRANCH   1  16
ATOM     13  C   UNL     1       0.624   9.856  19.576  0.00  0.00    +0.000 A 
ATOM     14  C   UNL     1       1.029   9.658  18.261  0.00  0.00    +0.000 A 
ATOM     15  C   UNL     1       1.876   8.575  17.934  0.00  0.00    +0.000 A 
ATOM     16  C   UNL     1       2.331   7.673  18.916  0.00  0.00    +0.000 A 
ATOM     17  C   UNL     1       1.840   7.828  20.213  0.00  0.00    +0.000 A 
ATOM     18  C   UNL     1       0.992   8.904  20.540  0.00  0.00    +0.000 A 
BRANCH  13  19
ATOM     19  C   UNL     1      -0.169  11.076  19.892  0.00  0.00    +0.000 C 
ATOM     20  O   UNL     1      -1.045  11.522  19.172  0.00  0.00    +0.000 OA
BRANCH  19  21
ATOM     21  O   UNL     1       0.271  11.616  21.051  0.00  0.00    +0.000 OA
BRANCH  21  23
ATOM     22  C   UNL     1      -0.989  10.817  22.964  0.00  0.00    +0.000 C 
ATOM     23  C   UNL     1      -0.728  11.975  22.019  0.00  0.00    +0.000 C 
ENDBRANCH  21  23
ENDBRANCH  19  21
ENDBRANCH  13  19
ENDBRANCH   1  16
TORSDOF 5
ENDMDL
MODEL 8
REMARK VINA RESULT:      -7.2      4.771      6.931
REMARK  Name = 
REMARK  6 active torsions:
REMARK  status: ('A' for Active; 'I' for Inactive)
REMARK    1  A    between atoms: C_1  and  C_2
REMARK    2  A    between atoms: C_2  and  O_3
REMARK    3  A    between atoms: O_3  and  C_4
REMARK    4  A    between atoms: C_4  and  C_6
REMARK    5  A    between atoms: C_9  and  N_10
REMARK    6  A    between atoms: N_10  and  C_11
REMARK                            x       y       z     vdW  Elec       q    Type
REMARK                         _______ _______ _______ _____ _____    ______ ____
ROOT
ATOM      1  N   UNL     1       3.353   6.611  18.510  0.00  0.00    +0.000 N 
ATOM      2  H   UNL     1       3.727   6.834  17.583  0.00  0.00    +0.000 HD
ENDROOT
BRANCH   1   3
ATOM      3  C   UNL     1       3.286   5.213  18.467  0.00  0.00    +0.000 A 
ATOM      4  N   UNL     1       3.658   4.747  17.266  0.00  0.00    +0.000 NA
ATOM      5  C   UNL     1       3.064   3.623  16.890  0.00  0.00    +0.000 A 
ATOM      6  N   UNL     1       2.079   3.023  17.560  0.00  0.00    +0.000 NA
ATOM      7  C   UNL     1       1.931   3.381  18.838  0.00  0.00    +0.000 A 
ATOM      8  C   UNL     1       0.998   2.722  19.611  0.00  0.00    +0.000 A 
ATOM      9  C   UNL     1       1.047   2.777  20.999  0.00  0.00    +0.000 A 
ATOM     10  C   UNL     1       2.037   3.529  21.623  0.00  0.00    +0.000 A 
ATOM     11  C   UNL     1       2.813   4.399  20.853  0.00  0.00    +0.000 A 
ATOM     12  C   UNL     1       2.699   4.377  19.432  0.00  0.00    +0.000 A 
ENDBRANCH   1   3
BRANCH   1  16
ATOM     13  C   UNL     1       0.724   9.855  19.348  0.00  0.00    +0.000 A 
ATOM     14  C   UNL     1       1.161   9.584  18.056  0.00  0.00    +0.000 A 
ATOM     15  C   UNL     1       1.984   8.464  17.804  0.00  0.00    +0.000 A 
ATOM     16  C   UNL     1       2.383   7.595  18.838  0.00  0.00    +0.000 A 
ATOM     17  C   UNL     1       1.860   7.823  20.112  0.00  0.00    +0.000 A 
ATOM     18  C   UNL     1       1.036   8.938  20.365  0.00  0.00    +0.000 A 
BRANCH  13  19
ATOM     19  C   UNL     1      -0.040  11.110  19.585  0.00  0.00    +0.000 C 
ATOM     20  O   UNL     1      -0.155  11.639  20.677  0.00  0.00    +0.000 OA
BRANCH  19  21
ATOM     21  O   UNL     1      -0.610  11.521  18.430  0.00  0.00    +0.000 OA
BRANCH  21  23
ATOM     22  C   UNL     1      -2.431  11.086  16.886  0.00  0.00    +0.000 C 
ATOM     23  C   UNL     1      -2.035  11.372  18.323  0.00  0.00    +0.000 C 
ENDBRANCH  21  23
ENDBRANCH  19  21
ENDBRANCH  13  19
ENDBRANCH   1  16
TORSDOF 5
ENDMDL
MODEL 9
REMARK VINA RESULT:      -7.1      4.900      6.969
REMARK  Name = 
REMARK  6 active torsions:
REMARK  status: ('A' for Active; 'I' for Inactive)
REMARK    1  A    between atoms: C_1  and  C_2
REMARK    2  A    between atoms: C_2  and  O_3
REMARK    3  A    between atoms: O_3  and  C_4
REMARK    4  A    between atoms: C_4  and  C_6
REMARK    5  A    between atoms: C_9  and  N_10
REMARK    6  A    between atoms: N_10  and  C_11
REMARK                            x       y       z     vdW  Elec       q    Type
REMARK                         _______ _______ _______ _____ _____    ______ ____
ROOT
ATOM      1  N   UNL     1       3.235   6.738  18.457  0.00  0.00    +0.000 N 
ATOM      2  H   UNL     1       2.975   6.371  17.536  0.00  0.00    +0.000 HD
ENDROOT
BRANCH   1   3
ATOM      3  C   UNL     1       3.657   5.581  19.123  0.00  0.00    +0.000 A 
ATOM      4  N   UNL     1       4.987   5.582  19.297  0.00  0.00    +0.000 NA
ATOM      5  C   UNL     1       5.554   4.383  19.300  0.00  0.00    +0.000 A 
ATOM      6  N   UNL     1       4.919   3.242  19.035  0.00  0.00    +0.000 NA
ATOM      7  C   UNL     1       3.587   3.273  19.118  0.00  0.00    +0.000 A 
ATOM      8  C   UNL     1       2.880   2.100  18.956  0.00  0.00    +0.000 A 
ATOM      9  C   UNL     1       1.563   1.990  19.390  0.00  0.00    +0.000 A 
ATOM     10  C   UNL     1       0.937   3.085  19.973  0.00  0.00    +0.000 A 
ATOM     11  C   UNL     1       1.554   4.337  19.900  0.00  0.00    +0.000 A 
ATOM     12  C   UNL     1       2.880   4.441  19.388  0.00  0.00    +0.000 A 
ENDBRANCH   1   3
BRANCH   1  16
ATOM     13  C   UNL     1       0.695  10.033  19.368  0.00  0.00    +0.000 A 
ATOM     14  C   UNL     1       1.116   9.774  18.069  0.00  0.00    +0.000 A 
ATOM     15  C   UNL     1       1.909   8.638  17.792  0.00  0.00    +0.000 A 
ATOM     16  C   UNL     1       2.292   7.741  18.808  0.00  0.00    +0.000 A 
ATOM     17  C   UNL     1       1.783   7.960  20.090  0.00  0.00    +0.000 A 
ATOM     18  C   UNL     1       0.989   9.091  20.367  0.00  0.00    +0.000 A 
BRANCH  13  19
ATOM     19  C   UNL     1      -0.035  11.303  19.633  0.00  0.00    +0.000 C 
ATOM     20  O   UNL     1       0.513  12.378  19.805  0.00  0.00    +0.000 OA
BRANCH  19  21
ATOM     21  O   UNL     1      -1.363  11.058  19.700  0.00  0.00    +0.000 OA
BRANCH  21  23
ATOM     22  C   UNL     1      -2.618  10.192  17.813  0.00  0.00    +0.000 C 
ATOM     23  C   UNL     1      -2.149  11.429  18.556  0.00  0.00    +0.000 C 
ENDBRANCH  21  23
ENDBRANCH  19  21
ENDBRANCH  13  19
ENDBRANCH   1  16
TORSDOF 5
ENDMDL
