MODEL 1
REMARK VINA RESULT:      -8.9      0.000      0.000
REMARK  Name = 
REMARK  2 active torsions:
REMARK  status: ('A' for Active; 'I' for Inactive)
REMARK    1  A    between atoms: N_3  and  C_4
REMARK    2  A    between atoms: C_7  and  C_8
REMARK                            x       y       z     vdW  Elec       q    Type
REMARK                         _______ _______ _______ _____ _____    ______ ____
ROOT
ATOM      1  C   UNL     1       0.806   9.667  19.678  0.00  0.00    +0.000 A 
ATOM      2  C   UNL     1       1.313   8.523  20.301  0.00  0.00    +0.000 A 
ATOM      3  C   UNL     1       2.218   7.687  19.631  0.00  0.00    +0.000 A 
ATOM      4  C   UNL     1       2.616   7.977  18.323  0.00  0.00    +0.000 A 
ATOM      5  C   UNL     1       2.037   9.070  17.676  0.00  0.00    +0.000 A 
ATOM      6  C   UNL     1       1.169   9.927  18.356  0.00  0.00    +0.000 A 
ENDROOT
BRANCH   1   9
ATOM      7  O   UNL     1       0.414  10.326  22.516  0.00  0.00    +0.000 OA
ATOM      8  C   UNL     1      -0.295  10.776  21.619  0.00  0.00    +0.000 C 
ATOM      9  N   UNL     1      -0.100  10.565  20.276  0.00  0.00    +0.000 N 
ATOM     10  N   UNL     1      -1.409  11.522  21.926  0.00  0.00    +0.000 N 
ATOM     11  C   UNL     1      -2.380  12.132  21.014  0.00  0.00    +0.000 C 
ATOM     12  C   UNL     1      -3.445  12.642  21.926  0.00  0.00    +0.000 A 
ATOM     13  C   UNL     1      -4.612  13.315  21.629  0.00  0.00    +0.000 A 
ATOM     14  C   UNL     1      -5.431  13.629  22.705  0.00  0.00    +0.000 A 
ATOM     15  N   UNL     1      -5.156  13.320  24.000  0.00  0.00    +0.000 NA
ATOM     16  C   UNL     1      -4.000  12.665  24.251  0.00  0.00    +0.000 A 
ATOM     17  C   UNL     1      -3.132  12.322  23.247  0.00  0.00    +0.000 A 
ATOM     18  C   UNL     1      -1.839  11.593  23.321  0.00  0.00    +0.000 C 
ATOM     19  H   UNL     1      -0.640  11.132  19.647  0.00  0.00    +0.000 HD
ENDBRANCH   1   9
BRANCH   4  20
ATOM     20  C   UNL     1       3.533   7.036  17.617  0.00  0.00    +0.000 C 
ATOM     21  O   UNL     1       4.559   7.515  17.133  0.00  0.00    +0.000 OA
ATOM     22  N   UNL     1       3.243   5.673  17.555  0.00  0.00    +0.000 N 
ATOM     23  C   UNL     1       4.290   4.737  17.161  0.00  0.00    +0.000 C 
ATOM     24  C   UNL     1       4.543   3.752  18.302  0.00  0.00    +0.000 C 
ATOM     25  C   UNL     1       3.242   3.083  18.776  0.00  0.00    +0.000 C 
ATOM     26  C   UNL     1       3.439   2.175  20.018  0.00  0.00    +0.000 C 
ATOM     27  C   UNL     1       3.571   1.024  19.020  0.00  0.00    +0.000 C 
ATOM     28  N   UNL     1       2.896   1.857  18.001  0.00  0.00    +0.000 NA
ATOM     29  C   UNL     1       2.058   4.043  18.950  0.00  0.00    +0.000 C 
ATOM     30  C   UNL     1       1.953   5.024  17.787  0.00  0.00    +0.000 C 
ATOM     31  H   UNL     1       1.894   1.662  17.951  0.00  0.00    +0.000 HD
ENDBRANCH   4  20
TORSDOF 2
ENDMDL
MODEL 2
REMARK VINA RESULT:      -8.8      1.225      1.676
REMARK  Name = 
REMARK  2 active torsions:
REMARK  status: ('A' for Active; 'I' for Inactive)
REMARK    1  A    between atoms: N_3  and  C_4
REMARK    2  A    between atoms: C_7  and  C_8
REMARK                            x       y       z     vdW  Elec       q    Type
REMARK                         _______ _______ _______ _____ _____    ______ ____
ROOT
ATOM      1  C   UNL     1       0.805   9.700  19.595  0.00  0.00    +0.000 A 
ATOM      2  C   UNL     1       1.195   9.887  18.265  0.00  0.00    +0.000 A 
ATOM      3  C   UNL     1       2.055   8.974  17.640  0.00  0.00    +0.000 A 
ATOM      4  C   UNL     1       2.549   7.870  18.340  0.00  0.00    +0.000 A 
ATOM      5  C   UNL     1       2.227   7.739  19.691  0.00  0.00    +0.000 A 
ATOM      6  C   UNL     1       1.337   8.622  20.305  0.00  0.00    +0.000 A 
ENDROOT
BRANCH   1   9
ATOM      7  O   UNL     1       1.247  12.450  20.536  0.00  0.00    +0.000 OA
ATOM      8  C   UNL     1       0.228  11.811  20.786  0.00  0.00    +0.000 C 
ATOM      9  N   UNL     1      -0.060  10.559  20.300  0.00  0.00    +0.000 N 
ATOM     10  N   UNL     1      -0.715  12.323  21.647  0.00  0.00    +0.000 N 
ATOM     11  C   UNL     1      -1.978  11.721  22.081  0.00  0.00    +0.000 C 
ATOM     12  C   UNL     1      -2.464  12.652  23.140  0.00  0.00    +0.000 A 
ATOM     13  C   UNL     1      -3.612  12.597  23.904  0.00  0.00    +0.000 A 
ATOM     14  C   UNL     1      -3.770  13.602  24.849  0.00  0.00    +0.000 A 
ATOM     15  N   UNL     1      -2.883  14.611  25.058  0.00  0.00    +0.000 NA
ATOM     16  C   UNL     1      -1.773  14.634  24.286  0.00  0.00    +0.000 A 
ATOM     17  C   UNL     1      -1.542  13.682  23.326  0.00  0.00    +0.000 A 
ATOM     18  C   UNL     1      -0.386  13.529  22.405  0.00  0.00    +0.000 C 
ATOM     19  H   UNL     1      -0.999  10.228  20.435  0.00  0.00    +0.000 HD
ENDBRANCH   1   9
BRANCH   4  20
ATOM     20  C   UNL     1       3.510   6.950  17.663  0.00  0.00    +0.000 C 
ATOM     21  O   UNL     1       4.536   7.455  17.206  0.00  0.00    +0.000 OA
ATOM     22  N   UNL     1       3.258   5.580  17.599  0.00  0.00    +0.000 N 
ATOM     23  C   UNL     1       4.339   4.671  17.237  0.00  0.00    +0.000 C 
ATOM     24  C   UNL     1       4.587   3.697  18.389  0.00  0.00    +0.000 C 
ATOM     25  C   UNL     1       3.291   2.995  18.830  0.00  0.00    +0.000 C 
ATOM     26  C   UNL     1       3.478   2.097  20.081  0.00  0.00    +0.000 C 
ATOM     27  C   UNL     1       3.667   0.946  19.091  0.00  0.00    +0.000 C 
ATOM     28  N   UNL     1       2.999   1.758  18.050  0.00  0.00    +0.000 NA
ATOM     29  C   UNL     1       2.078   3.924  18.967  0.00  0.00    +0.000 C 
ATOM     30  C   UNL     1       1.979   4.898  17.798  0.00  0.00    +0.000 C 
ATOM     31  H   UNL     1       2.005   1.536  17.974  0.00  0.00    +0.000 HD
ENDBRANCH   4  20
TORSDOF 2
ENDMDL
MODEL 3
REMARK VINA RESULT:      -8.7      3.589      4.517
REMARK  Name = 
REMARK  2 active torsions:
REMARK  status: ('A' for Active; 'I' for Inactive)
REMARK    1  A    between atoms: N_3  and  C_4
REMARK    2  A    between atoms: C_7  and  C_8
REMARK                            x       y       z     vdW  Elec       q    Type
REMARK                         _______ _______ _______ _____ _____    ______ ____
ROOT
ATOM      1  C   UNL     1       1.289  10.167  18.972  0.00  0.00    +0.000 A 
ATOM      2  C   UNL     1       1.210   9.444  20.166  0.00  0.00    +0.000 A 
ATOM      3  C   UNL     1       1.647   8.113  20.224  0.00  0.00    +0.000 A 
ATOM      4  C   UNL     1       2.155   7.483  19.084  0.00  0.00    +0.000 A 
ATOM      5  C   UNL     1       2.148   8.182  17.877  0.00  0.00    +0.000 A 
ATOM      6  C   UNL     1       1.753   9.520  17.826  0.00  0.00    +0.000 A 
ENDROOT
BRANCH   1   9
ATOM      7  O   UNL     1       2.851  12.528  18.176  0.00  0.00    +0.000 OA
ATOM      8  C   UNL     1       1.675  12.588  18.525  0.00  0.00    +0.000 C 
ATOM      9  N   UNL     1       0.882  11.507  18.824  0.00  0.00    +0.000 N 
ATOM     10  N   UNL     1       1.063  13.810  18.686  0.00  0.00    +0.000 N 
ATOM     11  C   UNL     1      -0.312  14.095  19.103  0.00  0.00    +0.000 C 
ATOM     12  C   UNL     1      -0.327  15.578  19.271  0.00  0.00    +0.000 A 
ATOM     13  C   UNL     1      -1.359  16.412  19.646  0.00  0.00    +0.000 A 
ATOM     14  C   UNL     1      -1.051  17.762  19.753  0.00  0.00    +0.000 A 
ATOM     15  N   UNL     1       0.177  18.294  19.513  0.00  0.00    +0.000 NA
ATOM     16  C   UNL     1       1.162  17.444  19.142  0.00  0.00    +0.000 A 
ATOM     17  C   UNL     1       0.941  16.098  19.008  0.00  0.00    +0.000 A 
ATOM     18  C   UNL     1       1.888  15.016  18.634  0.00  0.00    +0.000 C 
ATOM     19  H   UNL     1      -0.103  11.683  18.920  0.00  0.00    +0.000 HD
ENDBRANCH   1   9
BRANCH   4  20
ATOM     20  C   UNL     1       2.556   6.048  19.165  0.00  0.00    +0.000 C 
ATOM     21  O   UNL     1       1.777   5.284  19.736  0.00  0.00    +0.000 OA
ATOM     22  N   UNL     1       3.742   5.606  18.579  0.00  0.00    +0.000 N 
ATOM     23  C   UNL     1       3.952   4.177  18.381  0.00  0.00    +0.000 C 
ATOM     24  C   UNL     1       4.118   3.893  16.889  0.00  0.00    +0.000 C 
ATOM     25  C   UNL     1       5.200   4.785  16.256  0.00  0.00    +0.000 C 
ATOM     26  C   UNL     1       5.307   4.617  14.718  0.00  0.00    +0.000 C 
ATOM     27  C   UNL     1       6.424   3.615  15.015  0.00  0.00    +0.000 C 
ATOM     28  N   UNL     1       6.572   4.209  16.361  0.00  0.00    +0.000 NA
ATOM     29  C   UNL     1       5.130   6.261  16.668  0.00  0.00    +0.000 C 
ATOM     30  C   UNL     1       4.887   6.417  18.166  0.00  0.00    +0.000 C 
ATOM     31  H   UNL     1       7.317   4.906  16.391  0.00  0.00    +0.000 HD
ENDBRANCH   4  20
TORSDOF 2
ENDMDL
MODEL 4
REMARK VINA RESULT:      -8.5      1.967      2.968
REMARK  Name = 
REMARK  2 active torsions:
REMARK  status: ('A' for Active; 'I' for Inactive)
REMARK    1  A    between atoms: N_3  and  C_4
REMARK    2  A    between atoms: C_7  and  C_8
REMARK                            x       y       z     vdW  Elec       q    Type
REMARK                         _______ _______ _______ _____ _____    ______ ____
ROOT
ATOM      1  C   UNL     1       1.102   8.532  20.318  0.00  0.00    +0.000 A 
ATOM      2  C   UNL     1       1.085   7.430  21.177  0.00  0.00    +0.000 A 
ATOM      3  C   UNL     1       1.800   6.267  20.859  0.00  0.00    +0.000 A 
ATOM      4  C   UNL     1       2.529   6.186  19.669  0.00  0.00    +0.000 A 
ATOM      5  C   UNL     1       2.468   7.256  18.775  0.00  0.00    +0.000 A 
ATOM      6  C   UNL     1       1.792   8.431  19.110  0.00  0.00    +0.000 A 
ENDROOT
BRANCH   1   9
ATOM      7  O   UNL     1       0.730  10.007  22.835  0.00  0.00    +0.000 OA
ATOM      8  C   UNL     1       0.210  10.347  21.775  0.00  0.00    +0.000 C 
ATOM      9  N   UNL     1       0.421   9.741  20.561  0.00  0.00    +0.000 N 
ATOM     10  N   UNL     1      -0.695  11.383  21.750  0.00  0.00    +0.000 N 
ATOM     11  C   UNL     1      -1.428  11.928  20.605  0.00  0.00    +0.000 C 
ATOM     12  C   UNL     1      -2.379  12.896  21.226  0.00  0.00    +0.000 A 
ATOM     13  C   UNL     1      -3.319  13.711  20.633  0.00  0.00    +0.000 A 
ATOM     14  C   UNL     1      -4.092  14.484  21.490  0.00  0.00    +0.000 A 
ATOM     15  N   UNL     1      -3.977  14.482  22.845  0.00  0.00    +0.000 NA
ATOM     16  C   UNL     1      -3.039  13.673  23.388  0.00  0.00    +0.000 A 
ATOM     17  C   UNL     1      -2.231  12.882  22.613  0.00  0.00    +0.000 A 
ATOM     18  C   UNL     1      -1.171  11.924  23.022  0.00  0.00    +0.000 C 
ATOM     19  H   UNL     1       0.077  10.225  19.750  0.00  0.00    +0.000 HD
ENDBRANCH   1   9
BRANCH   4  20
ATOM     20  C   UNL     1       3.231   4.913  19.331  0.00  0.00    +0.000 C 
ATOM     21  O   UNL     1       2.693   3.867  19.697  0.00  0.00    +0.000 OA
ATOM     22  N   UNL     1       4.418   4.927  18.598  0.00  0.00    +0.000 N 
ATOM     23  C   UNL     1       4.904   3.688  18.002  0.00  0.00    +0.000 C 
ATOM     24  C   UNL     1       4.974   3.852  16.484  0.00  0.00    +0.000 C 
ATOM     25  C   UNL     1       5.773   5.104  16.082  0.00  0.00    +0.000 C 
ATOM     26  C   UNL     1       5.757   5.375  14.555  0.00  0.00    +0.000 C 
ATOM     27  C   UNL     1       7.084   4.616  14.517  0.00  0.00    +0.000 C 
ATOM     28  N   UNL     1       7.239   4.854  15.969  0.00  0.00    +0.000 NA
ATOM     29  C   UNL     1       5.435   6.363  16.892  0.00  0.00    +0.000 C 
ATOM     30  C   UNL     1       5.318   6.059  18.382  0.00  0.00    +0.000 C 
ATOM     31  H   UNL     1       7.819   5.672  16.162  0.00  0.00    +0.000 HD
ENDBRANCH   4  20
TORSDOF 2
ENDMDL
MODEL 5
REMARK VINA RESULT:      -8.4      3.363      4.327
REMARK  Name = 
REMARK  2 active torsions:
REMARK  status: ('A' for Active; 'I' for Inactive)
REMARK    1  A    between atoms: N_3  and  C_4
REMARK    2  A    between atoms: C_7  and  C_8
REMARK                            x       y       z     vdW  Elec       q    Type
REMARK                         _______ _______ _______ _____ _____    ______ ____
ROOT
ATOM      1  C   UNL     1       1.258   9.484  20.007  0.00  0.00    +0.000 A 
ATOM      2  C   UNL     1       1.124   8.519  21.009  0.00  0.00    +0.000 A 
ATOM      3  C   UNL     1       1.521   7.194  20.781  0.00  0.00    +0.000 A 
ATOM      4  C   UNL     1       2.045   6.814  19.542  0.00  0.00    +0.000 A 
ATOM      5  C   UNL     1       2.093   7.762  18.519  0.00  0.00    +0.000 A 
ATOM      6  C   UNL     1       1.737   9.091  18.756  0.00  0.00    +0.000 A 
ENDROOT
BRANCH   1   9
ATOM      7  O   UNL     1      -0.541  11.127  18.360  0.00  0.00    +0.000 OA
ATOM      8  C   UNL     1       0.106  11.579  19.301  0.00  0.00    +0.000 C 
ATOM      9  N   UNL     1       0.892  10.837  20.149  0.00  0.00    +0.000 N 
ATOM     10  N   UNL     1       0.116  12.932  19.548  0.00  0.00    +0.000 N 
ATOM     11  C   UNL     1       0.825  13.664  20.600  0.00  0.00    +0.000 C 
ATOM     12  C   UNL     1       0.599  15.095  20.244  0.00  0.00    +0.000 A 
ATOM     13  C   UNL     1       1.029  16.240  20.882  0.00  0.00    +0.000 A 
ATOM     14  C   UNL     1       0.688  17.444  20.280  0.00  0.00    +0.000 A 
ATOM     15  N   UNL     1      -0.028  17.556  19.129  0.00  0.00    +0.000 NA
ATOM     16  C   UNL     1      -0.435  16.410  18.537  0.00  0.00    +0.000 A 
ATOM     17  C   UNL     1      -0.145  15.180  19.068  0.00  0.00    +0.000 A 
ATOM     18  C   UNL     1      -0.484  13.826  18.559  0.00  0.00    +0.000 C 
ATOM     19  H   UNL     1       1.221  11.298  20.979  0.00  0.00    +0.000 HD
ENDBRANCH   1   9
BRANCH   4  20
ATOM     20  C   UNL     1       2.404   5.383  19.312  0.00  0.00    +0.000 C 
ATOM     21  O   UNL     1       1.558   4.542  19.617  0.00  0.00    +0.000 OA
ATOM     22  N   UNL     1       3.629   5.040  18.741  0.00  0.00    +0.000 N 
ATOM     23  C   UNL     1       3.824   3.689  18.227  0.00  0.00    +0.000 C 
ATOM     24  C   UNL     1       4.122   3.757  16.729  0.00  0.00    +0.000 C 
ATOM     25  C   UNL     1       5.278   4.724  16.421  0.00  0.00    +0.000 C 
ATOM     26  C   UNL     1       5.524   4.918  14.902  0.00  0.00    +0.000 C 
ATOM     27  C   UNL     1       6.585   3.826  15.046  0.00  0.00    +0.000 C 
ATOM     28  N   UNL     1       6.620   4.079  16.503  0.00  0.00    +0.000 NA
ATOM     29  C   UNL     1       5.204   6.063  17.166  0.00  0.00    +0.000 C 
ATOM     30  C   UNL     1       4.826   5.873  18.631  0.00  0.00    +0.000 C 
ATOM     31  H   UNL     1       7.375   4.716  16.761  0.00  0.00    +0.000 HD
ENDBRANCH   4  20
TORSDOF 2
ENDMDL
MODEL 6
REMARK VINA RESULT:      -8.4      3.224      4.237
REMARK  Name = 
REMARK  2 active torsions:
REMARK  status: ('A' for Active; 'I' for Inactive)
REMARK    1  A    between atoms: N_3  and  C_4
REMARK    2  A    between atoms: C_7  and  C_8
REMARK                            x       y       z     vdW  Elec       q    Type
REMARK                         _______ _______ _______ _____ _____    ______ ____
ROOT
ATOM      1  C   UNL     1       1.187   9.854  18.970  0.00  0.00    +0.000 A 
ATOM      2  C   UNL     1       1.677   9.212  17.828  0.00  0.00    +0.000 A 
ATOM      3  C   UNL     1       2.173   7.903  17.903  0.00  0.00    +0.000 A 
ATOM      4  C   UNL     1       2.198   7.224  19.125  0.00  0.00    +0.000 A 
ATOM      5  C   UNL     1       1.791   7.902  20.274  0.00  0.00    +0.000 A 
ATOM      6  C   UNL     1       1.258   9.190  20.195  0.00  0.00    +0.000 A 
ENDROOT
BRANCH   1   9
ATOM      7  O   UNL     1       2.472  12.399  18.250  0.00  0.00    +0.000 OA
ATOM      8  C   UNL     1       1.337  12.329  18.715  0.00  0.00    +0.000 C 
ATOM      9  N   UNL     1       0.665  11.162  18.986  0.00  0.00    +0.000 N 
ATOM     10  N   UNL     1       0.654  13.475  19.047  0.00  0.00    +0.000 N 
ATOM     11  C   UNL     1      -0.689  13.605  19.618  0.00  0.00    +0.000 C 
ATOM     12  C   UNL     1      -0.800  15.061  19.923  0.00  0.00    +0.000 A 
ATOM     13  C   UNL     1      -1.849  15.769  20.472  0.00  0.00    +0.000 A 
ATOM     14  C   UNL     1      -1.636  17.127  20.673  0.00  0.00    +0.000 A 
ATOM     15  N   UNL     1      -0.484  17.781  20.368  0.00  0.00    +0.000 NA
ATOM     16  C   UNL     1       0.519  17.053  19.827  0.00  0.00    +0.000 A 
ATOM     17  C   UNL     1       0.390  15.708  19.590  0.00  0.00    +0.000 A 
ATOM     18  C   UNL     1       1.374  14.747  19.028  0.00  0.00    +0.000 C 
ATOM     19  H   UNL     1      -0.315  11.244  19.193  0.00  0.00    +0.000 HD
ENDBRANCH   1   9
BRANCH   4  20
ATOM     20  C   UNL     1       2.787   5.854  19.181  0.00  0.00    +0.000 C 
ATOM     21  O   UNL     1       2.160   5.003  19.813  0.00  0.00    +0.000 OA
ATOM     22  N   UNL     1       3.974   5.561  18.509  0.00  0.00    +0.000 N 
ATOM     23  C   UNL     1       4.353   4.168  18.302  0.00  0.00    +0.000 C 
ATOM     24  C   UNL     1       4.443   3.887  16.803  0.00  0.00    +0.000 C 
ATOM     25  C   UNL     1       5.349   4.903  16.085  0.00  0.00    +0.000 C 
ATOM     26  C   UNL     1       5.363   4.728  14.545  0.00  0.00    +0.000 C 
ATOM     27  C   UNL     1       6.619   3.883  14.760  0.00  0.00    +0.000 C 
ATOM     28  N   UNL     1       6.788   4.511  16.089  0.00  0.00    +0.000 NA
ATOM     29  C   UNL     1       5.119   6.363  16.496  0.00  0.00    +0.000 C 
ATOM     30  C   UNL     1       4.970   6.507  18.007  0.00  0.00    +0.000 C 
ATOM     31  H   UNL     1       7.437   5.299  16.060  0.00  0.00    +0.000 HD
ENDBRANCH   4  20
TORSDOF 2
ENDMDL
MODEL 7
REMARK VINA RESULT:      -8.4      2.139      3.191
REMARK  Name = 
REMARK  2 active torsions:
REMARK  status: ('A' for Active; 'I' for Inactive)
REMARK    1  A    between atoms: N_3  and  C_4
REMARK    2  A    between atoms: C_7  and  C_8
REMARK                            x       y       z     vdW  Elec       q    Type
REMARK                         _______ _______ _______ _____ _____    ______ ____
ROOT
ATOM      1  C   UNL     1       1.081   8.993  19.498  0.00  0.00    +0.000 A 
ATOM      2  C   UNL     1       1.806   8.710  18.337  0.00  0.00    +0.000 A 
ATOM      3  C   UNL     1       2.599   7.556  18.256  0.00  0.00    +0.000 A 
ATOM      4  C   UNL     1       2.688   6.679  19.340  0.00  0.00    +0.000 A 
ATOM      5  C   UNL     1       2.033   7.014  20.525  0.00  0.00    +0.000 A 
ATOM      6  C   UNL     1       1.210   8.140  20.595  0.00  0.00    +0.000 A 
ENDROOT
BRANCH   1   9
ATOM      7  O   UNL     1       1.458  11.361  21.201  0.00  0.00    +0.000 OA
ATOM      8  C   UNL     1       0.442  11.166  20.539  0.00  0.00    +0.000 C 
ATOM      9  N   UNL     1       0.255  10.122  19.666  0.00  0.00    +0.000 N 
ATOM     10  N   UNL     1      -0.641  12.004  20.671  0.00  0.00    +0.000 N 
ATOM     11  C   UNL     1      -1.936  11.938  19.989  0.00  0.00    +0.000 C 
ATOM     12  C   UNL     1      -2.746  12.986  20.674  0.00  0.00    +0.000 A 
ATOM     13  C   UNL     1      -4.049  13.380  20.449  0.00  0.00    +0.000 A 
ATOM     14  C   UNL     1      -4.545  14.370  21.287  0.00  0.00    +0.000 A 
ATOM     15  N   UNL     1      -3.838  14.959  22.289  0.00  0.00    +0.000 NA
ATOM     16  C   UNL     1      -2.563  14.549  22.474  0.00  0.00    +0.000 A 
ATOM     17  C   UNL     1      -1.994  13.580  21.688  0.00  0.00    +0.000 A 
ATOM     18  C   UNL     1      -0.631  12.991  21.749  0.00  0.00    +0.000 C 
ATOM     19  H   UNL     1      -0.544  10.179  19.059  0.00  0.00    +0.000 HD
ENDBRANCH   1   9
BRANCH   4  20
ATOM     20  C   UNL     1       3.588   5.492  19.242  0.00  0.00    +0.000 C 
ATOM     21  O   UNL     1       3.290   4.510  19.922  0.00  0.00    +0.000 OA
ATOM     22  N   UNL     1       4.687   5.502  18.383  0.00  0.00    +0.000 N 
ATOM     23  C   UNL     1       5.349   4.244  18.056  0.00  0.00    +0.000 C 
ATOM     24  C   UNL     1       5.264   4.006  16.549  0.00  0.00    +0.000 C 
ATOM     25  C   UNL     1       5.775   5.217  15.750  0.00  0.00    +0.000 C 
ATOM     26  C   UNL     1       5.584   5.064  14.219  0.00  0.00    +0.000 C 
ATOM     27  C   UNL     1       7.023   4.547  14.200  0.00  0.00    +0.000 C 
ATOM     28  N   UNL     1       7.248   5.186  15.516  0.00  0.00    +0.000 NA
ATOM     29  C   UNL     1       5.272   6.574  16.258  0.00  0.00    +0.000 C 
ATOM     30  C   UNL     1       5.336   6.665  17.779  0.00  0.00    +0.000 C 
ATOM     31  H   UNL     1       7.677   6.108  15.424  0.00  0.00    +0.000 HD
ENDBRANCH   4  20
TORSDOF 2
ENDMDL
MODEL 8
REMARK VINA RESULT:      -8.4      1.423      1.987
REMARK  Name = 
REMARK  2 active torsions:
REMARK  status: ('A' for Active; 'I' for Inactive)
REMARK    1  A    between atoms: N_3  and  C_4
REMARK    2  A    between atoms: C_7  and  C_8
REMARK                            x       y       z     vdW  Elec       q    Type
REMARK                         _______ _______ _______ _____ _____    ______ ____
ROOT
ATOM      1  C   UNL     1       0.883   9.611  19.834  0.00  0.00    +0.000 A 
ATOM      2  C   UNL     1       1.277   9.913  18.526  0.00  0.00    +0.000 A 
ATOM      3  C   UNL     1       2.085   9.025  17.802  0.00  0.00    +0.000 A 
ATOM      4  C   UNL     1       2.521   7.830  18.381  0.00  0.00    +0.000 A 
ATOM      5  C   UNL     1       2.199   7.579  19.715  0.00  0.00    +0.000 A 
ATOM      6  C   UNL     1       1.360   8.440  20.424  0.00  0.00    +0.000 A 
ENDROOT
BRANCH   1   9
ATOM      7  O   UNL     1      -1.644  10.960  19.171  0.00  0.00    +0.000 OA
ATOM      8  C   UNL     1      -1.065  11.110  20.244  0.00  0.00    +0.000 C 
ATOM      9  N   UNL     1       0.069  10.438  20.632  0.00  0.00    +0.000 N 
ATOM     10  N   UNL     1      -1.520  12.038  21.152  0.00  0.00    +0.000 N 
ATOM     11  C   UNL     1      -0.971  12.374  22.468  0.00  0.00    +0.000 C 
ATOM     12  C   UNL     1      -1.769  13.563  22.887  0.00  0.00    +0.000 A 
ATOM     13  C   UNL     1      -1.698  14.308  24.046  0.00  0.00    +0.000 A 
ATOM     14  C   UNL     1      -2.558  15.395  24.131  0.00  0.00    +0.000 A 
ATOM     15  N   UNL     1      -3.443  15.756  23.164  0.00  0.00    +0.000 NA
ATOM     16  C   UNL     1      -3.487  14.998  22.046  0.00  0.00    +0.000 A 
ATOM     17  C   UNL     1      -2.675  13.904  21.883  0.00  0.00    +0.000 A 
ATOM     18  C   UNL     1      -2.565  12.971  20.732  0.00  0.00    +0.000 C 
ATOM     19  H   UNL     1       0.335  10.521  21.597  0.00  0.00    +0.000 HD
ENDBRANCH   1   9
BRANCH   4  20
ATOM     20  C   UNL     1       3.429   6.936  17.604  0.00  0.00    +0.000 C 
ATOM     21  O   UNL     1       4.396   7.465  17.056  0.00  0.00    +0.000 OA
ATOM     22  N   UNL     1       3.197   5.561  17.549  0.00  0.00    +0.000 N 
ATOM     23  C   UNL     1       4.255   4.677  17.075  0.00  0.00    +0.000 C 
ATOM     24  C   UNL     1       4.630   3.697  18.186  0.00  0.00    +0.000 C 
ATOM     25  C   UNL     1       3.396   2.966  18.743  0.00  0.00    +0.000 C 
ATOM     26  C   UNL     1       3.720   2.060  19.959  0.00  0.00    +0.000 C 
ATOM     27  C   UNL     1       3.833   0.923  18.943  0.00  0.00    +0.000 C 
ATOM     28  N   UNL     1       3.052   1.731  17.981  0.00  0.00    +0.000 NA
ATOM     29  C   UNL     1       2.185   3.871  19.007  0.00  0.00    +0.000 C 
ATOM     30  C   UNL     1       1.956   4.854  17.864  0.00  0.00    +0.000 C 
ATOM     31  H   UNL     1       2.060   1.492  17.998  0.00  0.00    +0.000 HD
ENDBRANCH   4  20
TORSDOF 2
ENDMDL
MODEL 9
REMARK VINA RESULT:      -8.3      2.556      3.582
REMARK  Name = 
REMARK  2 active torsions:
REMARK  status: ('A' for Active; 'I' for Inactive)
REMARK    1  A    between atoms: N_3  and  C_4
REMARK    2  A    between atoms: C_7  and  C_8
REMARK                            x       y       z     vdW  Elec       q    Type
REMARK                         _______ _______ _______ _____ _____    ______ ____
ROOT
ATOM      1  C   UNL     1       1.021   9.234  19.261  0.00  0.00    +0.000 A 
ATOM      2  C   UNL     1       1.648   8.781  18.096  0.00  0.00    +0.000 A 
ATOM      3  C   UNL     1       2.423   7.614  18.112  0.00  0.00    +0.000 A 
ATOM      4  C   UNL     1       2.594   6.892  19.297  0.00  0.00    +0.000 A 
ATOM      5  C   UNL     1       2.040   7.399  20.473  0.00  0.00    +0.000 A 
ATOM      6  C   UNL     1       1.233   8.537  20.452  0.00  0.00    +0.000 A 
ENDROOT
BRANCH   1   9
ATOM      7  O   UNL     1       1.794  12.069  19.135  0.00  0.00    +0.000 OA
ATOM      8  C   UNL     1       0.644  11.696  19.352  0.00  0.00    +0.000 C 
ATOM      9  N   UNL     1       0.219  10.390  19.337  0.00  0.00    +0.000 N 
ATOM     10  N   UNL     1      -0.329  12.611  19.682  0.00  0.00    +0.000 N 
ATOM     11  C   UNL     1      -1.742  12.373  19.986  0.00  0.00    +0.000 C 
ATOM     12  C   UNL     1      -2.231  13.707  20.443  0.00  0.00    +0.000 A 
ATOM     13  C   UNL     1      -3.491  14.089  20.856  0.00  0.00    +0.000 A 
ATOM     14  C   UNL     1      -3.629  15.409  21.263  0.00  0.00    +0.000 A 
ATOM     15  N   UNL     1      -2.622  16.322  21.277  0.00  0.00    +0.000 NA
ATOM     16  C   UNL     1      -1.403  15.910  20.860  0.00  0.00    +0.000 A 
ATOM     17  C   UNL     1      -1.182  14.625  20.436  0.00  0.00    +0.000 A 
ATOM     18  C   UNL     1       0.076  13.987  19.966  0.00  0.00    +0.000 C 
ATOM     19  H   UNL     1      -0.774  10.238  19.352  0.00  0.00    +0.000 HD
ENDBRANCH   1   9
BRANCH   4  20
ATOM     20  C   UNL     1       3.475   5.686  19.293  0.00  0.00    +0.000 C 
ATOM     21  O   UNL     1       3.159   4.764  20.044  0.00  0.00    +0.000 OA
ATOM     22  N   UNL     1       4.576   5.613  18.440  0.00  0.00    +0.000 N 
ATOM     23  C   UNL     1       5.218   4.324  18.211  0.00  0.00    +0.000 C 
ATOM     24  C   UNL     1       5.133   3.973  16.726  0.00  0.00    +0.000 C 
ATOM     25  C   UNL     1       5.666   5.112  15.840  0.00  0.00    +0.000 C 
ATOM     26  C   UNL     1       5.476   4.846  14.324  0.00  0.00    +0.000 C 
ATOM     27  C   UNL     1       6.907   4.306  14.350  0.00  0.00    +0.000 C 
ATOM     28  N   UNL     1       7.138   5.039  15.614  0.00  0.00    +0.000 NA
ATOM     29  C   UNL     1       5.184   6.512  16.242  0.00  0.00    +0.000 C 
ATOM     30  C   UNL     1       5.245   6.717  17.752  0.00  0.00    +0.000 C 
ATOM     31  H   UNL     1       7.582   5.945  15.454  0.00  0.00    +0.000 HD
ENDBRANCH   4  20
TORSDOF 2
ENDMDL
