MODEL 1
REMARK VINA RESULT:      -6.4      0.000      0.000
REMARK  Name = 
REMARK  4 active torsions:
REMARK  status: ('A' for Active; 'I' for Inactive)
REMARK    1  A    between atoms: C_1  and  N_2
REMARK    2  A    between atoms: N_5  and  C_6
REMARK    3  A    between atoms: C_12  and  N_13
REMARK    4  A    between atoms: C_14  and  C_16
REMARK                            x       y       z     vdW  Elec       q    Type
REMARK                         _______ _______ _______ _____ _____    ______ ____
ROOT
ATOM      1  C   UNL     1       3.907   4.575  18.017  0.00  0.00    +0.000 A 
ATOM      2  C   UNL     1       4.135   3.183  18.006  0.00  0.00    +0.000 A 
ATOM      3  C   UNL     1       3.118   2.257  18.169  0.00  0.00    +0.000 A 
ATOM      4  C   UNL     1       1.815   2.710  18.344  0.00  0.00    +0.000 A 
ATOM      5 CL   UNL     1       0.551   1.569  18.563  0.00  0.00    +0.000 Cl
ATOM      6  C   UNL     1       1.536   4.073  18.340  0.00  0.00    +0.000 A 
ATOM      7  C   UNL     1       2.559   5.017  18.176  0.00  0.00    +0.000 A 
ENDROOT
BRANCH   1  12
ATOM      8  C   UNL     1       8.350   8.045  17.977  0.00  0.00    +0.000 C 
ATOM      9  N   UNL     1       7.464   6.934  17.652  0.00  0.00    +0.000 NA
ATOM     10  C   UNL     1       6.179   7.422  17.103  0.00  0.00    +0.000 C 
ATOM     11  C   UNL     1       5.239   6.253  16.735  0.00  0.00    +0.000 C 
ATOM     12  N   UNL     1       5.015   5.425  17.947  0.00  0.00    +0.000 N 
ATOM     13  C   UNL     1       6.277   4.906  18.532  0.00  0.00    +0.000 C 
ATOM     14  C   UNL     1       7.200   6.101  18.849  0.00  0.00    +0.000 C 
ENDBRANCH   1  12
BRANCH   7  15
ATOM     15  N   UNL     1       2.175   6.391  18.121  0.00  0.00    +0.000 N 
ATOM     16  C   UNL     1       2.152   7.204  19.270  0.00  0.00    +0.000 C 
ATOM     17  O   UNL     1       2.466   6.820  20.376  0.00  0.00    +0.000 OA
ATOM     18  H   UNL     1       2.291   6.889  17.250  0.00  0.00    +0.000 HD
BRANCH  16  19
ATOM     19  C   UNL     1       1.793   8.599  18.994  0.00  0.00    +0.000 A 
ATOM     20  C   UNL     1       2.021   9.446  17.916  0.00  0.00    +0.000 A 
ATOM     21  C   UNL     1       1.449  10.703  18.255  0.00  0.00    +0.000 A 
ATOM     22  C   UNL     1       0.871  10.538  19.487  0.00  0.00    +0.000 A 
ATOM     23  O   UNL     1       1.070   9.279  19.945  0.00  0.00    +0.000 OA
ENDBRANCH  16  19
ENDBRANCH   7  15
TORSDOF 3
ENDMDL
MODEL 2
REMARK VINA RESULT:      -6.2      3.370      5.992
REMARK  Name = 
REMARK  4 active torsions:
REMARK  status: ('A' for Active; 'I' for Inactive)
REMARK    1  A    between atoms: C_1  and  N_2
REMARK    2  A    between atoms: N_5  and  C_6
REMARK    3  A    between atoms: C_12  and  N_13
REMARK    4  A    between atoms: C_14  and  C_16
REMARK                            x       y       z     vdW  Elec       q    Type
REMARK                         _______ _______ _______ _____ _____    ______ ____
ROOT
ATOM      1  C   UNL     1       2.916   6.180  19.148  0.00  0.00    +0.000 A 
ATOM      2  C   UNL     1       2.148   6.913  20.075  0.00  0.00    +0.000 A 
ATOM      3  C   UNL     1       1.720   8.208  19.833  0.00  0.00    +0.000 A 
ATOM      4  C   UNL     1       2.051   8.814  18.625  0.00  0.00    +0.000 A 
ATOM      5 CL   UNL     1       1.537  10.425  18.326  0.00  0.00    +0.000 Cl
ATOM      6  C   UNL     1       2.788   8.123  17.669  0.00  0.00    +0.000 A 
ATOM      7  C   UNL     1       3.226   6.813  17.906  0.00  0.00    +0.000 A 
ENDROOT
BRANCH   1  12
ATOM      8  C   UNL     1       4.867   1.055  20.456  0.00  0.00    +0.000 C 
ATOM      9  N   UNL     1       4.526   2.468  20.556  0.00  0.00    +0.000 NA
ATOM     10  C   UNL     1       3.062   2.669  20.474  0.00  0.00    +0.000 C 
ATOM     11  C   UNL     1       2.687   4.162  20.600  0.00  0.00    +0.000 C 
ATOM     12  N   UNL     1       3.385   4.919  19.531  0.00  0.00    +0.000 N 
ATOM     13  C   UNL     1       4.859   4.754  19.575  0.00  0.00    +0.000 C 
ATOM     14  C   UNL     1       5.188   3.249  19.484  0.00  0.00    +0.000 C 
ENDBRANCH   1  12
BRANCH   7  15
ATOM     15  N   UNL     1       3.922   6.157  16.846  0.00  0.00    +0.000 N 
ATOM     16  C   UNL     1       5.291   6.380  16.605  0.00  0.00    +0.000 C 
ATOM     17  O   UNL     1       5.984   7.117  17.273  0.00  0.00    +0.000 OA
ATOM     18  H   UNL     1       3.570   5.270  16.515  0.00  0.00    +0.000 HD
BRANCH  16  19
ATOM     19  C   UNL     1       5.833   5.564  15.513  0.00  0.00    +0.000 A 
ATOM     20  C   UNL     1       5.292   4.570  14.706  0.00  0.00    +0.000 A 
ATOM     21  C   UNL     1       6.333   4.131  13.843  0.00  0.00    +0.000 A 
ATOM     22  C   UNL     1       7.426   4.906  14.139  0.00  0.00    +0.000 A 
ATOM     23  O   UNL     1       7.141   5.771  15.141  0.00  0.00    +0.000 OA
ENDBRANCH  16  19
ENDBRANCH   7  15
TORSDOF 3
ENDMDL
MODEL 3
REMARK VINA RESULT:      -6.1      2.164      4.950
REMARK  Name = 
REMARK  4 active torsions:
REMARK  status: ('A' for Active; 'I' for Inactive)
REMARK    1  A    between atoms: C_1  and  N_2
REMARK    2  A    between atoms: N_5  and  C_6
REMARK    3  A    between atoms: C_12  and  N_13
REMARK    4  A    between atoms: C_14  and  C_16
REMARK                            x       y       z     vdW  Elec       q    Type
REMARK                         _______ _______ _______ _____ _____    ______ ____
ROOT
ATOM      1  C   UNL     1       2.664   5.383  18.742  0.00  0.00    +0.000 A 
ATOM      2  C   UNL     1       1.676   4.377  18.738  0.00  0.00    +0.000 A 
ATOM      3  C   UNL     1       1.978   3.033  18.596  0.00  0.00    +0.000 A 
ATOM      4  C   UNL     1       3.309   2.651  18.458  0.00  0.00    +0.000 A 
ATOM      5 CL   UNL     1       3.689   0.988  18.266  0.00  0.00    +0.000 Cl
ATOM      6  C   UNL     1       4.322   3.604  18.478  0.00  0.00    +0.000 A 
ATOM      7  C   UNL     1       4.024   4.967  18.620  0.00  0.00    +0.000 A 
ENDROOT
BRANCH   1  12
ATOM      8  C   UNL     1       0.762  10.683  19.015  0.00  0.00    +0.000 C 
ATOM      9  N   UNL     1       1.661   9.537  19.049  0.00  0.00    +0.000 NA
ATOM     10  C   UNL     1       1.734   8.877  17.726  0.00  0.00    +0.000 C 
ATOM     11  C   UNL     1       2.700   7.673  17.746  0.00  0.00    +0.000 C 
ATOM     12  N   UNL     1       2.247   6.717  18.788  0.00  0.00    +0.000 N 
ATOM     13  C   UNL     1       2.163   7.331  20.136  0.00  0.00    +0.000 C 
ATOM     14  C   UNL     1       1.220   8.550  20.064  0.00  0.00    +0.000 C 
ENDBRANCH   1  12
BRANCH   7  15
ATOM     15  N   UNL     1       5.128   5.869  18.694  0.00  0.00    +0.000 N 
ATOM     16  C   UNL     1       5.952   6.130  17.582  0.00  0.00    +0.000 C 
ATOM     17  O   UNL     1       5.787   5.635  16.488  0.00  0.00    +0.000 OA
ATOM     18  H   UNL     1       5.105   6.604  19.387  0.00  0.00    +0.000 HD
BRANCH  16  19
ATOM     19  C   UNL     1       6.990   7.133  17.844  0.00  0.00    +0.000 A 
ATOM     20  C   UNL     1       8.123   7.143  18.649  0.00  0.00    +0.000 A 
ATOM     21  C   UNL     1       8.716   8.428  18.504  0.00  0.00    +0.000 A 
ATOM     22  C   UNL     1       7.943   9.104  17.594  0.00  0.00    +0.000 A 
ATOM     23  O   UNL     1       6.901   8.339  17.190  0.00  0.00    +0.000 OA
ENDBRANCH  16  19
ENDBRANCH   7  15
TORSDOF 3
ENDMDL
MODEL 4
REMARK VINA RESULT:      -6.1      1.597      1.597
REMARK  Name = 
REMARK  4 active torsions:
REMARK  status: ('A' for Active; 'I' for Inactive)
REMARK    1  A    between atoms: C_1  and  N_2
REMARK    2  A    between atoms: N_5  and  C_6
REMARK    3  A    between atoms: C_12  and  N_13
REMARK    4  A    between atoms: C_14  and  C_16
REMARK                            x       y       z     vdW  Elec       q    Type
REMARK                         _______ _______ _______ _____ _____    ______ ____
ROOT
ATOM      1  C   UNL     1       4.125   4.816  19.540  0.00  0.00    +0.000 A 
ATOM      2  C   UNL     1       4.300   3.425  19.689  0.00  0.00    +0.000 A 
ATOM      3  C   UNL     1       3.415   2.631  20.398  0.00  0.00    +0.000 A 
ATOM      4  C   UNL     1       2.300   3.221  20.986  0.00  0.00    +0.000 A 
ATOM      5 CL   UNL     1       1.207   2.245  21.881  0.00  0.00    +0.000 Cl
ATOM      6  C   UNL     1       2.072   4.587  20.850  0.00  0.00    +0.000 A 
ATOM      7  C   UNL     1       2.963   5.397  20.134  0.00  0.00    +0.000 A 
ENDROOT
BRANCH   1  12
ATOM      8  C   UNL     1       8.205   7.874  17.136  0.00  0.00    +0.000 C 
ATOM      9  N   UNL     1       7.338   6.752  17.472  0.00  0.00    +0.000 NA
ATOM     10  C   UNL     1       5.931   7.039  17.112  0.00  0.00    +0.000 C 
ATOM     11  C   UNL     1       5.006   5.849  17.445  0.00  0.00    +0.000 C 
ATOM     12  N   UNL     1       5.129   5.542  18.892  0.00  0.00    +0.000 N 
ATOM     13  C   UNL     1       6.523   5.240  19.301  0.00  0.00    +0.000 C 
ATOM     14  C   UNL     1       7.419   6.436  18.918  0.00  0.00    +0.000 C 
ENDBRANCH   1  12
BRANCH   7  15
ATOM     15  N   UNL     1       2.618   6.775  19.990  0.00  0.00    +0.000 N 
ATOM     16  C   UNL     1       2.075   7.286  18.796  0.00  0.00    +0.000 C 
ATOM     17  O   UNL     1       1.844   6.611  17.816  0.00  0.00    +0.000 OA
ATOM     18  H   UNL     1       2.392   7.305  20.820  0.00  0.00    +0.000 HD
BRANCH  16  19
ATOM     19  C   UNL     1       1.729   8.709  18.871  0.00  0.00    +0.000 A 
ATOM     20  C   UNL     1       1.918   9.782  18.008  0.00  0.00    +0.000 A 
ATOM     21  C   UNL     1       1.389  10.930  18.660  0.00  0.00    +0.000 A 
ATOM     22  C   UNL     1       0.874  10.488  19.852  0.00  0.00    +0.000 A 
ATOM     23  O   UNL     1       1.072   9.155  19.993  0.00  0.00    +0.000 OA
ENDBRANCH  16  19
ENDBRANCH   7  15
TORSDOF 3
ENDMDL
MODEL 5
REMARK VINA RESULT:      -6.0      2.217      5.029
REMARK  Name = 
REMARK  4 active torsions:
REMARK  status: ('A' for Active; 'I' for Inactive)
REMARK    1  A    between atoms: C_1  and  N_2
REMARK    2  A    between atoms: N_5  and  C_6
REMARK    3  A    between atoms: C_12  and  N_13
REMARK    4  A    between atoms: C_14  and  C_16
REMARK                            x       y       z     vdW  Elec       q    Type
REMARK                         _______ _______ _______ _____ _____    ______ ____
ROOT
ATOM      1  C   UNL     1       2.832   5.052  19.351  0.00  0.00    +0.000 A 
ATOM      2  C   UNL     1       1.876   4.021  19.458  0.00  0.00    +0.000 A 
ATOM      3  C   UNL     1       2.191   2.686  19.265  0.00  0.00    +0.000 A 
ATOM      4  C   UNL     1       3.503   2.339  18.960  0.00  0.00    +0.000 A 
ATOM      5 CL   UNL     1       3.897   0.688  18.703  0.00  0.00    +0.000 Cl
ATOM      6  C   UNL     1       4.487   3.318  18.865  0.00  0.00    +0.000 A 
ATOM      7  C   UNL     1       4.176   4.672  19.058  0.00  0.00    +0.000 A 
ENDROOT
BRANCH   1  12
ATOM      8  C   UNL     1       1.276  10.457  19.724  0.00  0.00    +0.000 C 
ATOM      9  N   UNL     1       1.217   9.016  19.517  0.00  0.00    +0.000 NA
ATOM     10  C   UNL     1       1.545   8.286  20.762  0.00  0.00    +0.000 C 
ATOM     11  C   UNL     1       1.466   6.757  20.560  0.00  0.00    +0.000 C 
ATOM     12  N   UNL     1       2.391   6.374  19.464  0.00  0.00    +0.000 N 
ATOM     13  C   UNL     1       2.097   7.077  18.190  0.00  0.00    +0.000 C 
ATOM     14  C   UNL     1       2.150   8.598  18.444  0.00  0.00    +0.000 C 
ENDBRANCH   1  12
BRANCH   7  15
ATOM     15  N   UNL     1       5.258   5.601  19.005  0.00  0.00    +0.000 N 
ATOM     16  C   UNL     1       5.853   5.982  17.787  0.00  0.00    +0.000 C 
ATOM     17  O   UNL     1       5.494   5.576  16.703  0.00  0.00    +0.000 OA
ATOM     18  H   UNL     1       5.353   6.274  19.753  0.00  0.00    +0.000 HD
BRANCH  16  19
ATOM     19  C   UNL     1       6.904   6.995  17.940  0.00  0.00    +0.000 A 
ATOM     20  C   UNL     1       8.061   7.058  18.707  0.00  0.00    +0.000 A 
ATOM     21  C   UNL     1       8.657   8.323  18.446  0.00  0.00    +0.000 A 
ATOM     22  C   UNL     1       7.861   8.932  17.509  0.00  0.00    +0.000 A 
ATOM     23  O   UNL     1       6.803   8.147  17.197  0.00  0.00    +0.000 OA
ENDBRANCH  16  19
ENDBRANCH   7  15
TORSDOF 3
ENDMDL
MODEL 6
REMARK VINA RESULT:      -5.9      0.857      1.134
REMARK  Name = 
REMARK  4 active torsions:
REMARK  status: ('A' for Active; 'I' for Inactive)
REMARK    1  A    between atoms: C_1  and  N_2
REMARK    2  A    between atoms: N_5  and  C_6
REMARK    3  A    between atoms: C_12  and  N_13
REMARK    4  A    between atoms: C_14  and  C_16
REMARK                            x       y       z     vdW  Elec       q    Type
REMARK                         _______ _______ _______ _____ _____    ______ ____
ROOT
ATOM      1  C   UNL     1       3.829   4.565  18.017  0.00  0.00    +0.000 A 
ATOM      2  C   UNL     1       4.045   3.217  17.663  0.00  0.00    +0.000 A 
ATOM      3  C   UNL     1       3.079   2.238  17.826  0.00  0.00    +0.000 A 
ATOM      4  C   UNL     1       1.841   2.592  18.354  0.00  0.00    +0.000 A 
ATOM      5 CL   UNL     1       0.645   1.379  18.575  0.00  0.00    +0.000 Cl
ATOM      6  C   UNL     1       1.573   3.913  18.698  0.00  0.00    +0.000 A 
ATOM      7  C   UNL     1       2.545   4.910  18.536  0.00  0.00    +0.000 A 
ENDROOT
BRANCH   1  12
ATOM      8  C   UNL     1       8.153   8.178  17.823  0.00  0.00    +0.000 C 
ATOM      9  N   UNL     1       7.272   7.063  17.501  0.00  0.00    +0.000 NA
ATOM     10  C   UNL     1       5.929   7.543  17.105  0.00  0.00    +0.000 C 
ATOM     11  C   UNL     1       4.992   6.371  16.742  0.00  0.00    +0.000 C 
ATOM     12  N   UNL     1       4.903   5.455  17.907  0.00  0.00    +0.000 N 
ATOM     13  C   UNL     1       6.226   4.941  18.339  0.00  0.00    +0.000 C 
ATOM     14  C   UNL     1       7.141   6.142  18.656  0.00  0.00    +0.000 C 
ENDBRANCH   1  12
BRANCH   7  15
ATOM     15  N   UNL     1       2.164   6.248  18.855  0.00  0.00    +0.000 N 
ATOM     16  C   UNL     1       1.827   6.634  20.166  0.00  0.00    +0.000 C 
ATOM     17  O   UNL     1       1.850   5.884  21.118  0.00  0.00    +0.000 OA
ATOM     18  H   UNL     1       2.493   6.997  18.262  0.00  0.00    +0.000 HD
BRANCH  16  19
ATOM     19  C   UNL     1       1.526   8.064  20.298  0.00  0.00    +0.000 A 
ATOM     20  C   UNL     1       1.225   8.878  21.383  0.00  0.00    +0.000 A 
ATOM     21  C   UNL     1       0.997  10.182  20.865  0.00  0.00    +0.000 A 
ATOM     22  C   UNL     1       1.215  10.099  19.513  0.00  0.00    +0.000 A 
ATOM     23  O   UNL     1       1.533   8.831  19.157  0.00  0.00    +0.000 OA
ENDBRANCH  16  19
ENDBRANCH   7  15
TORSDOF 3
ENDMDL
MODEL 7
REMARK VINA RESULT:      -5.8      3.605      5.311
REMARK  Name = 
REMARK  4 active torsions:
REMARK  status: ('A' for Active; 'I' for Inactive)
REMARK    1  A    between atoms: C_1  and  N_2
REMARK    2  A    between atoms: N_5  and  C_6
REMARK    3  A    between atoms: C_12  and  N_13
REMARK    4  A    between atoms: C_14  and  C_16
REMARK                            x       y       z     vdW  Elec       q    Type
REMARK                         _______ _______ _______ _____ _____    ______ ____
ROOT
ATOM      1  C   UNL     1       4.818   5.099  18.142  0.00  0.00    +0.000 A 
ATOM      2  C   UNL     1       4.219   4.807  19.386  0.00  0.00    +0.000 A 
ATOM      3  C   UNL     1       3.180   3.902  19.520  0.00  0.00    +0.000 A 
ATOM      4  C   UNL     1       2.707   3.243  18.390  0.00  0.00    +0.000 A 
ATOM      5 CL   UNL     1       1.408   2.131  18.548  0.00  0.00    +0.000 Cl
ATOM      6  C   UNL     1       3.279   3.481  17.145  0.00  0.00    +0.000 A 
ATOM      7  C   UNL     1       4.331   4.397  16.999  0.00  0.00    +0.000 A 
ENDROOT
BRANCH   1  12
ATOM      8  C   UNL     1       8.743   9.145  18.214  0.00  0.00    +0.000 C 
ATOM      9  N   UNL     1       7.960   7.990  17.794  0.00  0.00    +0.000 NA
ATOM     10  C   UNL     1       6.555   8.370  17.520  0.00  0.00    +0.000 C 
ATOM     11  C   UNL     1       5.721   7.157  17.055  0.00  0.00    +0.000 C 
ATOM     12  N   UNL     1       5.789   6.104  18.099  0.00  0.00    +0.000 N 
ATOM     13  C   UNL     1       7.180   5.684  18.404  0.00  0.00    +0.000 C 
ATOM     14  C   UNL     1       7.987   6.928  18.828  0.00  0.00    +0.000 C 
ENDBRANCH   1  12
BRANCH   7  15
ATOM     15  N   UNL     1       4.901   4.531  15.697  0.00  0.00    +0.000 N 
ATOM     16  C   UNL     1       6.167   4.003  15.381  0.00  0.00    +0.000 C 
ATOM     17  O   UNL     1       6.857   3.387  16.164  0.00  0.00    +0.000 OA
ATOM     18  H   UNL     1       4.280   4.649  14.909  0.00  0.00    +0.000 HD
BRANCH  16  19
ATOM     19  C   UNL     1       6.546   4.191  13.976  0.00  0.00    +0.000 A 
ATOM     20  C   UNL     1       6.199   3.535  12.800  0.00  0.00    +0.000 A 
ATOM     21  C   UNL     1       6.926   4.164  11.752  0.00  0.00    +0.000 A 
ATOM     22  C   UNL     1       7.632   5.185  12.337  0.00  0.00    +0.000 A 
ATOM     23  O   UNL     1       7.414   5.212  13.673  0.00  0.00    +0.000 OA
ENDBRANCH  16  19
ENDBRANCH   7  15
TORSDOF 3
ENDMDL
MODEL 8
REMARK VINA RESULT:      -5.8      6.084      9.648
REMARK  Name = 
REMARK  4 active torsions:
REMARK  status: ('A' for Active; 'I' for Inactive)
REMARK    1  A    between atoms: C_1  and  N_2
REMARK    2  A    between atoms: N_5  and  C_6
REMARK    3  A    between atoms: C_12  and  N_13
REMARK    4  A    between atoms: C_14  and  C_16
REMARK                            x       y       z     vdW  Elec       q    Type
REMARK                         _______ _______ _______ _____ _____    ______ ____
ROOT
ATOM      1  C   UNL     1      -3.779  11.286  18.049  0.00  0.00    +0.000 A 
ATOM      2  C   UNL     1      -4.552  11.634  16.921  0.00  0.00    +0.000 A 
ATOM      3  C   UNL     1      -4.245  11.201  15.642  0.00  0.00    +0.000 A 
ATOM      4  C   UNL     1      -3.135  10.384  15.454  0.00  0.00    +0.000 A 
ATOM      5 CL   UNL     1      -2.740   9.857  13.868  0.00  0.00    +0.000 Cl
ATOM      6  C   UNL     1      -2.354   9.995  16.537  0.00  0.00    +0.000 A 
ATOM      7  C   UNL     1      -2.657  10.429  17.835  0.00  0.00    +0.000 A 
ENDROOT
BRANCH   1  12
ATOM      8  C   UNL     1      -4.958  13.450  23.119  0.00  0.00    +0.000 C 
ATOM      9  N   UNL     1      -4.765  13.335  21.679  0.00  0.00    +0.000 NA
ATOM     10  C   UNL     1      -5.702  12.350  21.093  0.00  0.00    +0.000 C 
ATOM     11  C   UNL     1      -5.521  12.235  19.564  0.00  0.00    +0.000 C 
ATOM     12  N   UNL     1      -4.113  11.858  19.280  0.00  0.00    +0.000 N 
ATOM     13  C   UNL     1      -3.134  12.820  19.843  0.00  0.00    +0.000 C 
ATOM     14  C   UNL     1      -3.373  12.934  21.363  0.00  0.00    +0.000 C 
ENDBRANCH   1  12
BRANCH   7  15
ATOM     15  N   UNL     1      -1.840   9.931  18.895  0.00  0.00    +0.000 N 
ATOM     16  C   UNL     1      -0.595  10.507  19.209  0.00  0.00    +0.000 C 
ATOM     17  O   UNL     1      -0.128  11.464  18.630  0.00  0.00    +0.000 OA
ATOM     18  H   UNL     1      -2.287   9.441  19.658  0.00  0.00    +0.000 HD
BRANCH  16  19
ATOM     19  C   UNL     1       0.059   9.893  20.369  0.00  0.00    +0.000 A 
ATOM     20  C   UNL     1       1.072   8.950  20.504  0.00  0.00    +0.000 A 
ATOM     21  C   UNL     1       1.246   8.733  21.899  0.00  0.00    +0.000 A 
ATOM     22  C   UNL     1       0.371   9.581  22.529  0.00  0.00    +0.000 A 
ATOM     23  O   UNL     1      -0.350  10.283  21.622  0.00  0.00    +0.000 OA
ENDBRANCH  16  19
ENDBRANCH   7  15
TORSDOF 3
ENDMDL
MODEL 9
REMARK VINA RESULT:      -5.7      6.193      9.312
REMARK  Name = 
REMARK  4 active torsions:
REMARK  status: ('A' for Active; 'I' for Inactive)
REMARK    1  A    between atoms: C_1  and  N_2
REMARK    2  A    between atoms: N_5  and  C_6
REMARK    3  A    between atoms: C_12  and  N_13
REMARK    4  A    between atoms: C_14  and  C_16
REMARK                            x       y       z     vdW  Elec       q    Type
REMARK                         _______ _______ _______ _____ _____    ______ ____
ROOT
ATOM      1  C   UNL     1      -1.539  12.321  21.883  0.00  0.00    +0.000 A 
ATOM      2  C   UNL     1      -1.342  13.095  23.046  0.00  0.00    +0.000 A 
ATOM      3  C   UNL     1      -1.960  14.318  23.243  0.00  0.00    +0.000 A 
ATOM      4  C   UNL     1      -2.816  14.809  22.263  0.00  0.00    +0.000 A 
ATOM      5 CL   UNL     1      -3.572  16.333  22.494  0.00  0.00    +0.000 Cl
ATOM      6  C   UNL     1      -3.060  14.073  21.107  0.00  0.00    +0.000 A 
ATOM      7  C   UNL     1      -2.438  12.834  20.899  0.00  0.00    +0.000 A 
ENDROOT
BRANCH   1  12
ATOM      8  C   UNL     1       1.419   7.596  21.050  0.00  0.00    +0.000 C 
ATOM      9  N   UNL     1       1.005   8.889  21.579  0.00  0.00    +0.000 NA
ATOM     10  C   UNL     1      -0.310   8.792  22.252  0.00  0.00    +0.000 C 
ATOM     11  C   UNL     1      -0.750  10.152  22.835  0.00  0.00    +0.000 C 
ATOM     12  N   UNL     1      -0.791  11.150  21.736  0.00  0.00    +0.000 N 
ATOM     13  C   UNL     1       0.510  11.287  21.033  0.00  0.00    +0.000 C 
ATOM     14  C   UNL     1       0.930   9.902  20.500  0.00  0.00    +0.000 C 
ENDBRANCH   1  12
BRANCH   7  15
ATOM     15  N   UNL     1      -2.795  12.118  19.717  0.00  0.00    +0.000 N 
ATOM     16  C   UNL     1      -2.023  12.192  18.542  0.00  0.00    +0.000 C 
ATOM     17  O   UNL     1      -1.005  12.841  18.441  0.00  0.00    +0.000 OA
ATOM     18  H   UNL     1      -3.348  11.277  19.810  0.00  0.00    +0.000 HD
BRANCH  16  19
ATOM     19  C   UNL     1      -2.520  11.334  17.460  0.00  0.00    +0.000 A 
ATOM     20  C   UNL     1      -2.015  10.200  16.835  0.00  0.00    +0.000 A 
ATOM     21  C   UNL     1      -2.949   9.839  15.825  0.00  0.00    +0.000 A 
ATOM     22  C   UNL     1      -3.981  10.737  15.921  0.00  0.00    +0.000 A 
ATOM     23  O   UNL     1      -3.736  11.643  16.898  0.00  0.00    +0.000 OA
ENDBRANCH  16  19
ENDBRANCH   7  15
TORSDOF 3
ENDMDL
