MODEL 1
REMARK VINA RESULT:      -8.5      0.000      0.000
REMARK  Name = 
REMARK  5 active torsions:
REMARK  status: ('A' for Active; 'I' for Inactive)
REMARK    1  A    between atoms: C_1  and  C_2
REMARK    2  A    between atoms: N_5  and  C_6
REMARK    3  A    between atoms: C_11  and  N_12
REMARK    4  A    between atoms: C_14  and  N_15
REMARK    5  A    between atoms: C_16  and  C_18
REMARK                            x       y       z     vdW  Elec       q    Type
REMARK                         _______ _______ _______ _____ _____    ______ ____
ROOT
ATOM      1  N   UNL     1       7.326   5.881  17.410  0.00  0.00    +0.000 N 
ATOM      2  C   UNL     1       7.755   7.197  17.430  0.00  0.00    +0.000 A 
ATOM      3  C   UNL     1       8.300   7.434  18.664  0.00  0.00    +0.000 A 
ATOM      4  C   UNL     1       8.256   6.184  19.306  0.00  0.00    +0.000 A 
ATOM      5  N   UNL     1       7.706   5.233  18.549  0.00  0.00    +0.000 NA
ENDROOT
BRANCH   1  11
ATOM      6  C   UNL     1       5.431   4.571  16.497  0.00  0.00    +0.000 A 
ATOM      7  C   UNL     1       5.061   3.899  15.326  0.00  0.00    +0.000 A 
ATOM      8  N   UNL     1       5.718   3.900  14.144  0.00  0.00    +0.000 NA
ATOM      9  C   UNL     1       6.812   4.656  14.104  0.00  0.00    +0.000 A 
ATOM     10  N   UNL     1       7.304   5.352  15.128  0.00  0.00    +0.000 NA
ATOM     11  C   UNL     1       6.640   5.256  16.324  0.00  0.00    +0.000 A 
BRANCH   6  16
ATOM     12  C   UNL     1       0.940   3.668  19.658  0.00  0.00    +0.000 C 
ATOM     13  C   UNL     1       2.323   4.241  19.365  0.00  0.00    +0.000 C 
ATOM     14  C   UNL     1       2.251   5.199  18.172  0.00  0.00    +0.000 C 
ATOM     15  C   UNL     1       3.633   5.730  17.804  0.00  0.00    +0.000 C 
ATOM     16  N   UNL     1       4.544   4.606  17.566  0.00  0.00    +0.000 N 
ATOM     17  C   UNL     1       4.712   3.700  18.704  0.00  0.00    +0.000 C 
ATOM     18  C   UNL     1       3.345   3.125  19.093  0.00  0.00    +0.000 C 
ENDBRANCH   6  16
ENDBRANCH   1  11
BRANCH   3  19
ATOM     19  N   UNL     1       8.788   8.615  19.189  0.00  0.00    +0.000 N 
ATOM     20  C   UNL     1       8.713   9.856  18.587  0.00  0.00    +0.000 C 
ATOM     21  O   UNL     1       8.200  10.066  17.491  0.00  0.00    +0.000 OA
ATOM     22  H   UNL     1       9.235   8.563  20.097  0.00  0.00    +0.000 HD
BRANCH  20  23
ATOM     23  C   UNL     1       9.301  10.948  19.361  0.00  0.00    +0.000 A 
ATOM     24  C   UNL     1       9.454  10.993  20.736  0.00  0.00    +0.000 A 
ATOM     25  C   UNL     1      10.087  12.191  21.182  0.00  0.00    +0.000 A 
ATOM     26  C   UNL     1      10.385  13.008  20.124  0.00  0.00    +0.000 A 
ATOM     27 CL   UNL     1      11.160  14.537  20.195  0.00  0.00    +0.000 Cl
ATOM     28  S   UNL     1       9.915  12.376  18.628  0.00  0.00    +0.000 S 
ENDBRANCH  20  23
ENDBRANCH   3  19
TORSDOF 4
ENDMDL
MODEL 2
REMARK VINA RESULT:      -8.3      0.733      1.123
REMARK  Name = 
REMARK  5 active torsions:
REMARK  status: ('A' for Active; 'I' for Inactive)
REMARK    1  A    between atoms: C_1  and  C_2
REMARK    2  A    between atoms: N_5  and  C_6
REMARK    3  A    between atoms: C_11  and  N_12
REMARK    4  A    between atoms: C_14  and  N_15
REMARK    5  A    between atoms: C_16  and  C_18
REMARK                            x       y       z     vdW  Elec       q    Type
REMARK                         _______ _______ _______ _____ _____    ______ ____
ROOT
ATOM      1  N   UNL     1       7.184   5.826  17.108  0.00  0.00    +0.000 N 
ATOM      2  C   UNL     1       7.801   7.064  17.141  0.00  0.00    +0.000 A 
ATOM      3  C   UNL     1       8.160   7.311  18.440  0.00  0.00    +0.000 A 
ATOM      4  C   UNL     1       7.816   6.131  19.122  0.00  0.00    +0.000 A 
ATOM      5  N   UNL     1       7.261   5.216  18.326  0.00  0.00    +0.000 NA
ENDROOT
BRANCH   1  11
ATOM      6  C   UNL     1       5.326   4.651  15.963  0.00  0.00    +0.000 A 
ATOM      7  C   UNL     1       5.064   3.977  14.765  0.00  0.00    +0.000 A 
ATOM      8  N   UNL     1       5.876   3.885  13.687  0.00  0.00    +0.000 NA
ATOM      9  C   UNL     1       7.027   4.545  13.787  0.00  0.00    +0.000 A 
ATOM     10  N   UNL     1       7.431   5.229  14.857  0.00  0.00    +0.000 NA
ATOM     11  C   UNL     1       6.603   5.227  15.948  0.00  0.00    +0.000 A 
BRANCH   6  16
ATOM     12  C   UNL     1       2.574   4.751  20.799  0.00  0.00    +0.000 C 
ATOM     13  C   UNL     1       2.710   4.931  19.292  0.00  0.00    +0.000 C 
ATOM     14  C   UNL     1       3.077   3.596  18.636  0.00  0.00    +0.000 C 
ATOM     15  C   UNL     1       3.297   3.758  17.135  0.00  0.00    +0.000 C 
ATOM     16  N   UNL     1       4.305   4.795  16.895  0.00  0.00    +0.000 N 
ATOM     17  C   UNL     1       3.968   6.116  17.433  0.00  0.00    +0.000 C 
ATOM     18  C   UNL     1       3.760   6.000  18.947  0.00  0.00    +0.000 C 
ENDBRANCH   6  16
ENDBRANCH   1  11
BRANCH   3  19
ATOM     19  N   UNL     1       8.728   8.445  18.986  0.00  0.00    +0.000 N 
ATOM     20  C   UNL     1       8.589   9.731  18.500  0.00  0.00    +0.000 C 
ATOM     21  O   UNL     1       7.936  10.029  17.504  0.00  0.00    +0.000 OA
ATOM     22  H   UNL     1       9.293   8.320  19.818  0.00  0.00    +0.000 HD
BRANCH  20  23
ATOM     23  C   UNL     1       9.289  10.756  19.272  0.00  0.00    +0.000 A 
ATOM     24  C   UNL     1       9.325  10.867  20.651  0.00  0.00    +0.000 A 
ATOM     25  C   UNL     1      10.117  11.968  21.095  0.00  0.00    +0.000 A 
ATOM     26  C   UNL     1      10.646  12.649  20.032  0.00  0.00    +0.000 A 
ATOM     27 CL   UNL     1      11.668  14.025  20.100  0.00  0.00    +0.000 Cl
ATOM     28  S   UNL     1      10.206  12.007  18.531  0.00  0.00    +0.000 S 
ENDBRANCH  20  23
ENDBRANCH   3  19
TORSDOF 4
ENDMDL
MODEL 3
REMARK VINA RESULT:      -7.9      5.096      6.582
REMARK  Name = 
REMARK  5 active torsions:
REMARK  status: ('A' for Active; 'I' for Inactive)
REMARK    1  A    between atoms: C_1  and  C_2
REMARK    2  A    between atoms: N_5  and  C_6
REMARK    3  A    between atoms: C_11  and  N_12
REMARK    4  A    between atoms: C_14  and  N_15
REMARK    5  A    between atoms: C_16  and  C_18
REMARK                            x       y       z     vdW  Elec       q    Type
REMARK                         _______ _______ _______ _____ _____    ______ ____
ROOT
ATOM      1  N   UNL     1       3.900   7.021  17.753  0.00  0.00    +0.000 N 
ATOM      2  C   UNL     1       3.330   7.142  19.008  0.00  0.00    +0.000 A 
ATOM      3  C   UNL     1       2.312   8.054  18.911  0.00  0.00    +0.000 A 
ATOM      4  C   UNL     1       2.261   8.369  17.542  0.00  0.00    +0.000 A 
ATOM      5  N   UNL     1       3.187   7.727  16.829  0.00  0.00    +0.000 NA
ENDROOT
BRANCH   1  11
ATOM      6  C   UNL     1       5.127   4.868  17.815  0.00  0.00    +0.000 A 
ATOM      7  C   UNL     1       6.404   4.357  17.558  0.00  0.00    +0.000 A 
ATOM      8  N   UNL     1       7.446   5.012  16.993  0.00  0.00    +0.000 NA
ATOM      9  C   UNL     1       7.192   6.263  16.620  0.00  0.00    +0.000 A 
ATOM     10  N   UNL     1       6.035   6.900  16.797  0.00  0.00    +0.000 NA
ATOM     11  C   UNL     1       5.038   6.215  17.441  0.00  0.00    +0.000 A 
BRANCH   6  16
ATOM     12  C   UNL     1       0.548   2.904  20.295  0.00  0.00    +0.000 C 
ATOM     13  C   UNL     1       1.785   2.798  19.410  0.00  0.00    +0.000 C 
ATOM     14  C   UNL     1       3.044   3.097  20.231  0.00  0.00    +0.000 C 
ATOM     15  C   UNL     1       4.293   3.075  19.357  0.00  0.00    +0.000 C 
ATOM     16  N   UNL     1       4.124   4.002  18.234  0.00  0.00    +0.000 N 
ATOM     17  C   UNL     1       2.978   3.714  17.367  0.00  0.00    +0.000 C 
ATOM     18  C   UNL     1       1.696   3.749  18.205  0.00  0.00    +0.000 C 
ENDBRANCH   6  16
ENDBRANCH   1  11
BRANCH   3  19
ATOM     19  N   UNL     1       1.504   8.567  19.908  0.00  0.00    +0.000 N 
ATOM     20  C   UNL     1       1.020   9.859  19.968  0.00  0.00    +0.000 C 
ATOM     21  O   UNL     1       1.256  10.728  19.132  0.00  0.00    +0.000 OA
ATOM     22  H   UNL     1       1.242   7.936  20.655  0.00  0.00    +0.000 HD
BRANCH  20  23
ATOM     23  C   UNL     1       0.177  10.144  21.128  0.00  0.00    +0.000 A 
ATOM     24  C   UNL     1       0.121   9.415  22.303  0.00  0.00    +0.000 A 
ATOM     25  C   UNL     1      -0.788   9.969  23.252  0.00  0.00    +0.000 A 
ATOM     26  C   UNL     1      -1.387  11.095  22.755  0.00  0.00    +0.000 A 
ATOM     27 CL   UNL     1      -2.533  12.088  23.558  0.00  0.00    +0.000 Cl
ATOM     28  S   UNL     1      -0.893  11.488  21.186  0.00  0.00    +0.000 S 
ENDBRANCH  20  23
ENDBRANCH   3  19
TORSDOF 4
ENDMDL
MODEL 4
REMARK VINA RESULT:      -7.8      5.177      6.117
REMARK  Name = 
REMARK  5 active torsions:
REMARK  status: ('A' for Active; 'I' for Inactive)
REMARK    1  A    between atoms: C_1  and  C_2
REMARK    2  A    between atoms: N_5  and  C_6
REMARK    3  A    between atoms: C_11  and  N_12
REMARK    4  A    between atoms: C_14  and  N_15
REMARK    5  A    between atoms: C_16  and  C_18
REMARK                            x       y       z     vdW  Elec       q    Type
REMARK                         _______ _______ _______ _____ _____    ______ ____
ROOT
ATOM      1  N   UNL     1       3.768   6.421  17.606  0.00  0.00    +0.000 N 
ATOM      2  C   UNL     1       3.295   7.646  17.170  0.00  0.00    +0.000 A 
ATOM      3  C   UNL     1       2.550   8.185  18.184  0.00  0.00    +0.000 A 
ATOM      4  C   UNL     1       2.698   7.273  19.243  0.00  0.00    +0.000 A 
ATOM      5  N   UNL     1       3.458   6.225  18.920  0.00  0.00    +0.000 NA
ENDROOT
BRANCH   1  11
ATOM      6  C   UNL     1       4.631   4.145  17.134  0.00  0.00    +0.000 A 
ATOM      7  C   UNL     1       5.579   3.507  16.326  0.00  0.00    +0.000 A 
ATOM      8  N   UNL     1       6.313   4.065  15.335  0.00  0.00    +0.000 NA
ATOM      9  C   UNL     1       6.062   5.350  15.099  0.00  0.00    +0.000 A 
ATOM     10  N   UNL     1       5.197   6.103  15.778  0.00  0.00    +0.000 NA
ATOM     11  C   UNL     1       4.535   5.507  16.820  0.00  0.00    +0.000 A 
BRANCH   6  16
ATOM     12  C   UNL     1       1.122   2.705  21.206  0.00  0.00    +0.000 C 
ATOM     13  C   UNL     1       2.026   2.430  20.011  0.00  0.00    +0.000 C 
ATOM     14  C   UNL     1       3.465   2.843  20.337  0.00  0.00    +0.000 C 
ATOM     15  C   UNL     1       4.382   2.653  19.133  0.00  0.00    +0.000 C 
ATOM     16  N   UNL     1       3.840   3.380  17.981  0.00  0.00    +0.000 N 
ATOM     17  C   UNL     1       2.493   2.969  17.575  0.00  0.00    +0.000 C 
ATOM     18  C   UNL     1       1.533   3.166  18.753  0.00  0.00    +0.000 C 
ENDBRANCH   6  16
ENDBRANCH   1  11
BRANCH   3  19
ATOM     19  N   UNL     1       1.810   9.352  18.197  0.00  0.00    +0.000 N 
ATOM     20  C   UNL     1       0.971   9.764  19.214  0.00  0.00    +0.000 C 
ATOM     21  O   UNL     1       0.772   9.131  20.248  0.00  0.00    +0.000 OA
ATOM     22  H   UNL     1       1.897   9.958  17.390  0.00  0.00    +0.000 HD
BRANCH  20  23
ATOM     23  C   UNL     1       0.311  11.047  18.981  0.00  0.00    +0.000 A 
ATOM     24  C   UNL     1      -1.026  11.241  18.679  0.00  0.00    +0.000 A 
ATOM     25  C   UNL     1      -1.364  12.619  18.533  0.00  0.00    +0.000 A 
ATOM     26  C   UNL     1      -0.266  13.414  18.727  0.00  0.00    +0.000 A 
ATOM     27 CL   UNL     1      -0.215  15.128  18.661  0.00  0.00    +0.000 Cl
ATOM     28  S   UNL     1       1.145  12.547  19.065  0.00  0.00    +0.000 S 
ENDBRANCH  20  23
ENDBRANCH   3  19
TORSDOF 4
ENDMDL
MODEL 5
REMARK VINA RESULT:      -7.8      5.491      6.504
REMARK  Name = 
REMARK  5 active torsions:
REMARK  status: ('A' for Active; 'I' for Inactive)
REMARK    1  A    between atoms: C_1  and  C_2
REMARK    2  A    between atoms: N_5  and  C_6
REMARK    3  A    between atoms: C_11  and  N_12
REMARK    4  A    between atoms: C_14  and  N_15
REMARK    5  A    between atoms: C_16  and  C_18
REMARK                            x       y       z     vdW  Elec       q    Type
REMARK                         _______ _______ _______ _____ _____    ______ ____
ROOT
ATOM      1  N   UNL     1       3.261   6.746  18.167  0.00  0.00    +0.000 N 
ATOM      2  C   UNL     1       2.669   7.960  17.866  0.00  0.00    +0.000 A 
ATOM      3  C   UNL     1       1.971   8.363  18.974  0.00  0.00    +0.000 A 
ATOM      4  C   UNL     1       2.268   7.388  19.942  0.00  0.00    +0.000 A 
ATOM      5  N   UNL     1       3.072   6.429  19.480  0.00  0.00    +0.000 NA
ENDROOT
BRANCH   1  11
ATOM      6  C   UNL     1       4.197   4.575  17.420  0.00  0.00    +0.000 A 
ATOM      7  C   UNL     1       5.129   4.070  16.507  0.00  0.00    +0.000 A 
ATOM      8  N   UNL     1       5.785   4.760  15.546  0.00  0.00    +0.000 NA
ATOM      9  C   UNL     1       5.466   6.049  15.456  0.00  0.00    +0.000 A 
ATOM     10  N   UNL     1       4.605   6.686  16.250  0.00  0.00    +0.000 NA
ATOM     11  C   UNL     1       4.026   5.956  17.254  0.00  0.00    +0.000 A 
BRANCH   6  16
ATOM     12  C   UNL     1       1.219   2.502  21.641  0.00  0.00    +0.000 C 
ATOM     13  C   UNL     1       1.922   2.432  20.290  0.00  0.00    +0.000 C 
ATOM     14  C   UNL     1       3.418   2.717  20.462  0.00  0.00    +0.000 C 
ATOM     15  C   UNL     1       4.137   2.730  19.117  0.00  0.00    +0.000 C 
ATOM     16  N   UNL     1       3.486   3.689  18.221  0.00  0.00    +0.000 N 
ATOM     17  C   UNL     1       2.070   3.419  17.957  0.00  0.00    +0.000 C 
ATOM     18  C   UNL     1       1.305   3.419  19.284  0.00  0.00    +0.000 C 
ENDBRANCH   6  16
ENDBRANCH   1  11
BRANCH   3  19
ATOM     19  N   UNL     1       1.154   9.465  19.135  0.00  0.00    +0.000 N 
ATOM     20  C   UNL     1       1.414  10.737  18.664  0.00  0.00    +0.000 C 
ATOM     21  O   UNL     1       2.423  11.052  18.037  0.00  0.00    +0.000 OA
ATOM     22  H   UNL     1       0.288   9.324  19.640  0.00  0.00    +0.000 HD
BRANCH  20  23
ATOM     23  C   UNL     1       0.379  11.725  18.964  0.00  0.00    +0.000 A 
ATOM     24  C   UNL     1       0.346  13.040  18.532  0.00  0.00    +0.000 A 
ATOM     25  C   UNL     1      -0.814  13.739  18.981  0.00  0.00    +0.000 A 
ATOM     26  C   UNL     1      -1.611  12.924  19.739  0.00  0.00    +0.000 A 
ATOM     27 CL   UNL     1      -3.107  13.342  20.468  0.00  0.00    +0.000 Cl
ATOM     28  S   UNL     1      -0.995  11.361  19.929  0.00  0.00    +0.000 S 
ENDBRANCH  20  23
ENDBRANCH   3  19
TORSDOF 4
ENDMDL
MODEL 6
REMARK VINA RESULT:      -7.8      5.250      7.296
REMARK  Name = 
REMARK  5 active torsions:
REMARK  status: ('A' for Active; 'I' for Inactive)
REMARK    1  A    between atoms: C_1  and  C_2
REMARK    2  A    between atoms: N_5  and  C_6
REMARK    3  A    between atoms: C_11  and  N_12
REMARK    4  A    between atoms: C_14  and  N_15
REMARK    5  A    between atoms: C_16  and  C_18
REMARK                            x       y       z     vdW  Elec       q    Type
REMARK                         _______ _______ _______ _____ _____    ______ ____
ROOT
ATOM      1  N   UNL     1       2.704   6.096  19.298  0.00  0.00    +0.000 N 
ATOM      2  C   UNL     1       2.136   6.909  20.263  0.00  0.00    +0.000 A 
ATOM      3  C   UNL     1       1.830   8.104  19.667  0.00  0.00    +0.000 A 
ATOM      4  C   UNL     1       2.152   7.906  18.313  0.00  0.00    +0.000 A 
ATOM      5  N   UNL     1       2.644   6.691  18.071  0.00  0.00    +0.000 NA
ENDROOT
BRANCH   1  11
ATOM      6  C   UNL     1       4.403   4.330  18.925  0.00  0.00    +0.000 A 
ATOM      7  C   UNL     1       4.596   2.964  19.164  0.00  0.00    +0.000 A 
ATOM      8  N   UNL     1       3.806   2.146  19.897  0.00  0.00    +0.000 NA
ATOM      9  C   UNL     1       2.760   2.733  20.472  0.00  0.00    +0.000 A 
ATOM     10  N   UNL     1       2.431   4.018  20.343  0.00  0.00    +0.000 NA
ATOM     11  C   UNL     1       3.222   4.785  19.528  0.00  0.00    +0.000 A 
BRANCH   6  16
ATOM     12  C   UNL     1       7.911   8.452  17.633  0.00  0.00    +0.000 C 
ATOM     13  C   UNL     1       7.324   7.052  17.492  0.00  0.00    +0.000 C 
ATOM     14  C   UNL     1       5.845   7.141  17.101  0.00  0.00    +0.000 C 
ATOM     15  C   UNL     1       5.208   5.758  17.028  0.00  0.00    +0.000 C 
ATOM     16  N   UNL     1       5.408   5.056  18.299  0.00  0.00    +0.000 N 
ATOM     17  C   UNL     1       6.810   4.872  18.684  0.00  0.00    +0.000 C 
ATOM     18  C   UNL     1       7.484   6.244  18.791  0.00  0.00    +0.000 C 
ENDBRANCH   6  16
ENDBRANCH   1  11
BRANCH   3  19
ATOM     19  N   UNL     1       1.323   9.256  20.236  0.00  0.00    +0.000 N 
ATOM     20  C   UNL     1       0.248   9.323  21.101  0.00  0.00    +0.000 C 
ATOM     21  O   UNL     1      -0.404   8.352  21.473  0.00  0.00    +0.000 OA
ATOM     22  H   UNL     1       1.786  10.126  20.000  0.00  0.00    +0.000 HD
BRANCH  20  23
ATOM     23  C   UNL     1      -0.080  10.670  21.567  0.00  0.00    +0.000 A 
ATOM     24  C   UNL     1      -0.933  10.996  22.607  0.00  0.00    +0.000 A 
ATOM     25  C   UNL     1      -1.022  12.402  22.827  0.00  0.00    +0.000 A 
ATOM     26  C   UNL     1      -0.235  13.086  21.940  0.00  0.00    +0.000 A 
ATOM     27 CL   UNL     1      -0.028  14.787  21.850  0.00  0.00    +0.000 Cl
ATOM     28  S   UNL     1       0.589  12.084  20.856  0.00  0.00    +0.000 S 
ENDBRANCH  20  23
ENDBRANCH   3  19
TORSDOF 4
ENDMDL
MODEL 7
REMARK VINA RESULT:      -7.8      5.393      6.972
REMARK  Name = 
REMARK  5 active torsions:
REMARK  status: ('A' for Active; 'I' for Inactive)
REMARK    1  A    between atoms: C_1  and  C_2
REMARK    2  A    between atoms: N_5  and  C_6
REMARK    3  A    between atoms: C_11  and  N_12
REMARK    4  A    between atoms: C_14  and  N_15
REMARK    5  A    between atoms: C_16  and  C_18
REMARK                            x       y       z     vdW  Elec       q    Type
REMARK                         _______ _______ _______ _____ _____    ______ ____
ROOT
ATOM      1  N   UNL     1       3.993   6.694  18.355  0.00  0.00    +0.000 N 
ATOM      2  C   UNL     1       3.314   7.745  17.764  0.00  0.00    +0.000 A 
ATOM      3  C   UNL     1       2.185   7.975  18.505  0.00  0.00    +0.000 A 
ATOM      4  C   UNL     1       2.298   7.087  19.589  0.00  0.00    +0.000 A 
ATOM      5  N   UNL     1       3.399   6.336  19.530  0.00  0.00    +0.000 NA
ENDROOT
BRANCH   1  11
ATOM      6  C   UNL     1       5.430   4.722  17.917  0.00  0.00    +0.000 A 
ATOM      7  C   UNL     1       6.740   4.419  17.527  0.00  0.00    +0.000 A 
ATOM      8  N   UNL     1       7.685   5.288  17.100  0.00  0.00    +0.000 NA
ATOM      9  C   UNL     1       7.293   6.556  17.017  0.00  0.00    +0.000 A 
ATOM     10  N   UNL     1       6.087   7.012  17.354  0.00  0.00    +0.000 NA
ATOM     11  C   UNL     1       5.192   6.101  17.851  0.00  0.00    +0.000 A 
BRANCH   6  16
ATOM     12  C   UNL     1       0.779   1.958  19.219  0.00  0.00    +0.000 C 
ATOM     13  C   UNL     1       2.231   2.069  18.766  0.00  0.00    +0.000 C 
ATOM     14  C   UNL     1       3.071   2.732  19.862  0.00  0.00    +0.000 C 
ATOM     15  C   UNL     1       4.514   2.929  19.410  0.00  0.00    +0.000 C 
ATOM     16  N   UNL     1       4.538   3.684  18.154  0.00  0.00    +0.000 N 
ATOM     17  C   UNL     1       3.814   3.056  17.046  0.00  0.00    +0.000 C 
ATOM     18  C   UNL     1       2.350   2.860  17.452  0.00  0.00    +0.000 C 
ENDBRANCH   6  16
ENDBRANCH   1  11
BRANCH   3  19
ATOM     19  N   UNL     1       1.155   8.863  18.269  0.00  0.00    +0.000 N 
ATOM     20  C   UNL     1       0.674   9.798  19.166  0.00  0.00    +0.000 C 
ATOM     21  O   UNL     1       1.108   9.953  20.305  0.00  0.00    +0.000 OA
ATOM     22  H   UNL     1       0.718   8.827  17.356  0.00  0.00    +0.000 HD
BRANCH  20  23
ATOM     23  C   UNL     1      -0.421  10.624  18.662  0.00  0.00    +0.000 A 
ATOM     24  C   UNL     1      -0.516  12.003  18.742  0.00  0.00    +0.000 A 
ATOM     25  C   UNL     1      -1.702  12.510  18.133  0.00  0.00    +0.000 A 
ATOM     26  C   UNL     1      -2.460  11.493  17.619  0.00  0.00    +0.000 A 
ATOM     27 CL   UNL     1      -3.954  11.644  16.789  0.00  0.00    +0.000 Cl
ATOM     28  S   UNL     1      -1.788   9.960  17.861  0.00  0.00    +0.000 S 
ENDBRANCH  20  23
ENDBRANCH   3  19
TORSDOF 4
ENDMDL
MODEL 8
REMARK VINA RESULT:      -7.8      7.655     10.066
REMARK  Name = 
REMARK  5 active torsions:
REMARK  status: ('A' for Active; 'I' for Inactive)
REMARK    1  A    between atoms: C_1  and  C_2
REMARK    2  A    between atoms: N_5  and  C_6
REMARK    3  A    between atoms: C_11  and  N_12
REMARK    4  A    between atoms: C_14  and  N_15
REMARK    5  A    between atoms: C_16  and  C_18
REMARK                            x       y       z     vdW  Elec       q    Type
REMARK                         _______ _______ _______ _____ _____    ______ ____
ROOT
ATOM      1  N   UNL     1       0.921  10.782  21.002  0.00  0.00    +0.000 N 
ATOM      2  C   UNL     1       1.241   9.634  20.298  0.00  0.00    +0.000 A 
ATOM      3  C   UNL     1       1.207   8.587  21.180  0.00  0.00    +0.000 A 
ATOM      4  C   UNL     1       0.761   9.164  22.382  0.00  0.00    +0.000 A 
ATOM      5  N   UNL     1       0.551  10.476  22.279  0.00  0.00    +0.000 NA
ENDROOT
BRANCH   1  11
ATOM      6  C   UNL     1      -0.043  12.520  19.520  0.00  0.00    +0.000 A 
ATOM      7  C   UNL     1       0.270  13.786  19.012  0.00  0.00    +0.000 A 
ATOM      8  N   UNL     1       1.316  14.569  19.364  0.00  0.00    +0.000 NA
ATOM      9  C   UNL     1       2.096  14.077  20.322  0.00  0.00    +0.000 A 
ATOM     10  N   UNL     1       1.942  12.888  20.905  0.00  0.00    +0.000 NA
ATOM     11  C   UNL     1       0.910  12.104  20.459  0.00  0.00    +0.000 A 
BRANCH   6  16
ATOM     12  C   UNL     1      -5.048  11.707  17.226  0.00  0.00    +0.000 C 
ATOM     13  C   UNL     1      -3.842  11.310  18.071  0.00  0.00    +0.000 C 
ATOM     14  C   UNL     1      -3.673  12.291  19.236  0.00  0.00    +0.000 C 
ATOM     15  C   UNL     1      -2.429  11.967  20.056  0.00  0.00    +0.000 C 
ATOM     16  N   UNL     1      -1.256  11.934  19.178  0.00  0.00    +0.000 N 
ATOM     17  C   UNL     1      -1.330  10.956  18.090  0.00  0.00    +0.000 C 
ATOM     18  C   UNL     1      -2.558  11.260  17.226  0.00  0.00    +0.000 C 
ENDBRANCH   6  16
ENDBRANCH   1  11
BRANCH   3  19
ATOM     19  N   UNL     1       1.530   7.260  20.970  0.00  0.00    +0.000 N 
ATOM     20  C   UNL     1       2.198   6.758  19.871  0.00  0.00    +0.000 C 
ATOM     21  O   UNL     1       2.589   7.438  18.926  0.00  0.00    +0.000 OA
ATOM     22  H   UNL     1       1.256   6.602  21.690  0.00  0.00    +0.000 HD
BRANCH  20  23
ATOM     23  C   UNL     1       2.423   5.313  19.898  0.00  0.00    +0.000 A 
ATOM     24  C   UNL     1       2.191   4.465  20.967  0.00  0.00    +0.000 A 
ATOM     25  C   UNL     1       2.491   3.103  20.665  0.00  0.00    +0.000 A 
ATOM     26  C   UNL     1       2.943   2.977  19.380  0.00  0.00    +0.000 A 
ATOM     27 CL   UNL     1       3.406   1.524  18.592  0.00  0.00    +0.000 Cl
ATOM     28  S   UNL     1       3.024   4.444  18.543  0.00  0.00    +0.000 S 
ENDBRANCH  20  23
ENDBRANCH   3  19
TORSDOF 4
ENDMDL
MODEL 9
REMARK VINA RESULT:      -7.8      1.362      1.567
REMARK  Name = 
REMARK  5 active torsions:
REMARK  status: ('A' for Active; 'I' for Inactive)
REMARK    1  A    between atoms: C_1  and  C_2
REMARK    2  A    between atoms: N_5  and  C_6
REMARK    3  A    between atoms: C_11  and  N_12
REMARK    4  A    between atoms: C_14  and  N_15
REMARK    5  A    between atoms: C_16  and  C_18
REMARK                            x       y       z     vdW  Elec       q    Type
REMARK                         _______ _______ _______ _____ _____    ______ ____
ROOT
ATOM      1  N   UNL     1       7.366   6.679  17.272  0.00  0.00    +0.000 N 
ATOM      2  C   UNL     1       7.537   7.994  16.876  0.00  0.00    +0.000 A 
ATOM      3  C   UNL     1       8.115   8.666  17.920  0.00  0.00    +0.000 A 
ATOM      4  C   UNL     1       8.355   7.669  18.881  0.00  0.00    +0.000 A 
ATOM      5  N   UNL     1       7.942   6.463  18.489  0.00  0.00    +0.000 NA
ENDROOT
BRANCH   1  11
ATOM      6  C   UNL     1       5.646   4.919  16.971  0.00  0.00    +0.000 A 
ATOM      7  C   UNL     1       5.330   3.870  16.099  0.00  0.00    +0.000 A 
ATOM      8  N   UNL     1       5.931   3.579  14.922  0.00  0.00    +0.000 NA
ATOM      9  C   UNL     1       6.901   4.415  14.559  0.00  0.00    +0.000 A 
ATOM     10  N   UNL     1       7.327   5.456  15.274  0.00  0.00    +0.000 NA
ATOM     11  C   UNL     1       6.734   5.661  16.493  0.00  0.00    +0.000 A 
BRANCH   6  16
ATOM     12  C   UNL     1       1.300   4.724  20.441  0.00  0.00    +0.000 C 
ATOM     13  C   UNL     1       2.669   5.210  19.979  0.00  0.00    +0.000 C 
ATOM     14  C   UNL     1       2.546   5.908  18.621  0.00  0.00    +0.000 C 
ATOM     15  C   UNL     1       3.911   6.338  18.094  0.00  0.00    +0.000 C 
ATOM     16  N   UNL     1       4.807   5.179  18.047  0.00  0.00    +0.000 N 
ATOM     17  C   UNL     1       5.025   4.519  19.337  0.00  0.00    +0.000 C 
ATOM     18  C   UNL     1       3.675   4.051  19.892  0.00  0.00    +0.000 C 
ENDBRANCH   6  16
ENDBRANCH   1  11
BRANCH   3  19
ATOM     19  N   UNL     1       8.406  10.012  18.035  0.00  0.00    +0.000 N 
ATOM     20  C   UNL     1       9.145  10.593  19.047  0.00  0.00    +0.000 C 
ATOM     21  O   UNL     1       9.638   9.976  19.988  0.00  0.00    +0.000 OA
ATOM     22  H   UNL     1       8.049  10.622  17.309  0.00  0.00    +0.000 HD
BRANCH  20  23
ATOM     23  C   UNL     1       9.314  12.040  18.928  0.00  0.00    +0.000 A 
ATOM     24  C   UNL     1       8.810  12.848  17.924  0.00  0.00    +0.000 A 
ATOM     25  C   UNL     1       9.133  14.225  18.109  0.00  0.00    +0.000 A 
ATOM     26  C   UNL     1       9.873  14.404  19.246  0.00  0.00    +0.000 A 
ATOM     27 CL   UNL     1      10.466  15.891  19.862  0.00  0.00    +0.000 Cl
ATOM     28  S   UNL     1      10.193  12.967  20.078  0.00  0.00    +0.000 S 
ENDBRANCH  20  23
ENDBRANCH   3  19
TORSDOF 4
ENDMDL
