MODEL 1
REMARK VINA RESULT:      -7.3      0.000      0.000
REMARK  Name = 
REMARK  15 active torsions:
REMARK  status: ('A' for Active; 'I' for Inactive)
REMARK    1  A    between atoms: C_1  and  O_2
REMARK    2  A    between atoms: O_2  and  C_3
REMARK    3  A    between atoms: C_3  and  C_5
REMARK    4  A    between atoms: C_7  and  O_8
REMARK    5  A    between atoms: O_8  and  C_9
REMARK    6  A    between atoms: C_9  and  C_10
REMARK    7  A    between atoms: C_11  and  C_12
REMARK    8  A    between atoms: C_13  and  C_14
REMARK    9  A    between atoms: C_14  and  O_15
REMARK   10  A    between atoms: O_15  and  C_16
REMARK   11  A    between atoms: C_19  and  O_20
REMARK   12  A    between atoms: C_21  and  C_22
REMARK   13  A    between atoms: C_22  and  O_24
REMARK   14  A    between atoms: O_24  and  C_25
REMARK   15  A    between atoms: C_29  and  O_30
REMARK                            x       y       z     vdW  Elec       q    Type
REMARK                         _______ _______ _______ _____ _____    ______ ____
ROOT
ATOM      1  C   UNL     1       7.298   7.181  17.200  0.00  0.00    +0.000 C 
ATOM      2  C   UNL     1       7.844   8.029  17.854  0.00  0.00    +0.000 C 
ENDROOT
BRANCH   2   3
ATOM      3  C   UNL     1       8.578   9.116  18.657  0.00  0.00    +0.000 C 
ATOM      4  C   UNL     1       9.168   9.955  19.278  0.00  0.00    +0.000 C 
BRANCH   4   5
ATOM      5  C   UNL     1       9.897  10.985  20.036  0.00  0.00    +0.000 C 
BRANCH   5   6
ATOM      6  O   UNL     1      11.037  11.391  19.281  0.00  0.00    +0.000 OA
BRANCH   6   7
ATOM      7  C   UNL     1      10.949  12.549  18.562  0.00  0.00    +0.000 A 
ATOM      8  C   UNL     1      11.541  12.482  17.298  0.00  0.00    +0.000 A 
ATOM      9  C   UNL     1      11.540  13.588  16.448  0.00  0.00    +0.000 A 
ATOM     10  C   UNL     1      10.945  14.780  16.862  0.00  0.00    +0.000 A 
ATOM     11  C   UNL     1      10.335  14.865  18.121  0.00  0.00    +0.000 A 
ATOM     12  C   UNL     1      10.338  13.736  18.969  0.00  0.00    +0.000 A 
BRANCH  10  13
ATOM     13  O   UNL     1      10.999  15.866  16.037  0.00  0.00    +0.000 OA
ATOM     14  H   UNL     1      10.739  16.666  16.521  0.00  0.00    +0.000 HD
ENDBRANCH  10  13
BRANCH  11  15
ATOM     15  C   UNL     1       9.663  16.122  18.555  0.00  0.00    +0.000 C 
ATOM     16  O   UNL     1       9.991  16.812  19.505  0.00  0.00    +0.000 OA
BRANCH  15  17
ATOM     17  O   UNL     1       8.617  16.384  17.723  0.00  0.00    +0.000 OA
ATOM     18  C   UNL     1       7.485  15.540  17.943  0.00  0.00    +0.000 C 
ENDBRANCH  15  17
ENDBRANCH  11  15
ENDBRANCH   6   7
ENDBRANCH   5   6
ENDBRANCH   4   5
ENDBRANCH   2   3
BRANCH   1  19
ATOM     19  C   UNL     1       6.695   6.141  16.354  0.00  0.00    +0.000 C 
BRANCH  19  20
ATOM     20  O   UNL     1       5.319   6.444  16.114  0.00  0.00    +0.000 OA
BRANCH  20  23
ATOM     21  C   UNL     1       3.082   4.582  18.452  0.00  0.00    +0.000 A 
ATOM     22  C   UNL     1       4.064   4.797  17.462  0.00  0.00    +0.000 A 
ATOM     23  C   UNL     1       4.416   6.095  17.083  0.00  0.00    +0.000 A 
ATOM     24  C   UNL     1       3.800   7.177  17.720  0.00  0.00    +0.000 A 
ATOM     25  C   UNL     1       2.832   6.974  18.706  0.00  0.00    +0.000 A 
ATOM     26  C   UNL     1       2.461   5.679  19.061  0.00  0.00    +0.000 A 
BRANCH  21  27
ATOM     27  C   UNL     1       2.704   3.173  18.740  0.00  0.00    +0.000 C 
ATOM     28  O   UNL     1       1.570   2.750  18.571  0.00  0.00    +0.000 OA
BRANCH  27  30
ATOM     29  C   UNL     1       3.876   1.161  18.520  0.00  0.00    +0.000 C 
ATOM     30  O   UNL     1       3.774   2.443  19.137  0.00  0.00    +0.000 OA
ENDBRANCH  27  30
ENDBRANCH  21  27
BRANCH  26  31
ATOM     31  O   UNL     1       1.457   5.504  19.972  0.00  0.00    +0.000 OA
ATOM     32  H   UNL     1       0.651   5.199  19.524  0.00  0.00    +0.000 HD
ENDBRANCH  26  31
ENDBRANCH  20  23
ENDBRANCH  19  20
ENDBRANCH   1  19
TORSDOF 13
ENDMDL
MODEL 2
REMARK VINA RESULT:      -7.2      1.597      2.136
REMARK  Name = 
REMARK  15 active torsions:
REMARK  status: ('A' for Active; 'I' for Inactive)
REMARK    1  A    between atoms: C_1  and  O_2
REMARK    2  A    between atoms: O_2  and  C_3
REMARK    3  A    between atoms: C_3  and  C_5
REMARK    4  A    between atoms: C_7  and  O_8
REMARK    5  A    between atoms: O_8  and  C_9
REMARK    6  A    between atoms: C_9  and  C_10
REMARK    7  A    between atoms: C_11  and  C_12
REMARK    8  A    between atoms: C_13  and  C_14
REMARK    9  A    between atoms: C_14  and  O_15
REMARK   10  A    between atoms: O_15  and  C_16
REMARK   11  A    between atoms: C_19  and  O_20
REMARK   12  A    between atoms: C_21  and  C_22
REMARK   13  A    between atoms: C_22  and  O_24
REMARK   14  A    between atoms: O_24  and  C_25
REMARK   15  A    between atoms: C_29  and  O_30
REMARK                            x       y       z     vdW  Elec       q    Type
REMARK                         _______ _______ _______ _____ _____    ______ ____
ROOT
ATOM      1  C   UNL     1       7.917   7.885  17.872  0.00  0.00    +0.000 C 
ATOM      2  C   UNL     1       8.452   8.769  18.485  0.00  0.00    +0.000 C 
ENDROOT
BRANCH   2   3
ATOM      3  C   UNL     1       9.168   9.909  19.230  0.00  0.00    +0.000 C 
ATOM      4  C   UNL     1       9.715  10.793  19.827  0.00  0.00    +0.000 C 
BRANCH   4   5
ATOM      5  C   UNL     1      10.388  11.874  20.565  0.00  0.00    +0.000 C 
BRANCH   5   6
ATOM      6  O   UNL     1      11.412  12.426  19.740  0.00  0.00    +0.000 OA
BRANCH   6   7
ATOM      7  C   UNL     1      11.077  13.450  18.901  0.00  0.00    +0.000 A 
ATOM      8  C   UNL     1      12.086  13.803  18.001  0.00  0.00    +0.000 A 
ATOM      9  C   UNL     1      11.897  14.837  17.084  0.00  0.00    +0.000 A 
ATOM     10  C   UNL     1      10.689  15.533  17.065  0.00  0.00    +0.000 A 
ATOM     11  C   UNL     1       9.659  15.187  17.950  0.00  0.00    +0.000 A 
ATOM     12  C   UNL     1       9.861  14.135  18.868  0.00  0.00    +0.000 A 
BRANCH  10  13
ATOM     13  O   UNL     1      10.542  16.576  16.195  0.00  0.00    +0.000 OA
ATOM     14  H   UNL     1      10.291  17.380  16.677  0.00  0.00    +0.000 HD
ENDBRANCH  10  13
BRANCH  11  15
ATOM     15  C   UNL     1       8.351  15.900  17.909  0.00  0.00    +0.000 C 
ATOM     16  O   UNL     1       7.265  15.383  17.706  0.00  0.00    +0.000 OA
BRANCH  15  17
ATOM     17  O   UNL     1       8.555  17.228  18.132  0.00  0.00    +0.000 OA
ATOM     18  C   UNL     1       8.490  17.593  19.513  0.00  0.00    +0.000 C 
ENDBRANCH  15  17
ENDBRANCH  11  15
ENDBRANCH   6   7
ENDBRANCH   5   6
ENDBRANCH   4   5
ENDBRANCH   2   3
BRANCH   1  19
ATOM     19  C   UNL     1       7.318   6.811  17.067  0.00  0.00    +0.000 C 
BRANCH  19  20
ATOM     20  O   UNL     1       7.189   5.625  17.854  0.00  0.00    +0.000 OA
BRANCH  20  23
ATOM     21  C   UNL     1       4.106   3.712  18.733  0.00  0.00    +0.000 A 
ATOM     22  C   UNL     1       5.330   4.390  18.913  0.00  0.00    +0.000 A 
ATOM     23  C   UNL     1       5.984   4.974  17.826  0.00  0.00    +0.000 A 
ATOM     24  C   UNL     1       5.393   4.900  16.560  0.00  0.00    +0.000 A 
ATOM     25  C   UNL     1       4.178   4.237  16.373  0.00  0.00    +0.000 A 
ATOM     26  C   UNL     1       3.543   3.630  17.454  0.00  0.00    +0.000 A 
BRANCH  21  27
ATOM     27  C   UNL     1       3.515   3.047  19.923  0.00  0.00    +0.000 C 
ATOM     28  O   UNL     1       4.101   2.175  20.548  0.00  0.00    +0.000 OA
BRANCH  27  30
ATOM     29  C   UNL     1       1.496   2.743  21.064  0.00  0.00    +0.000 C 
ATOM     30  O   UNL     1       2.307   3.576  20.239  0.00  0.00    +0.000 OA
ENDBRANCH  27  30
ENDBRANCH  21  27
BRANCH  26  31
ATOM     31  O   UNL     1       2.396   2.920  17.234  0.00  0.00    +0.000 OA
ATOM     32  H   UNL     1       1.930   3.274  16.458  0.00  0.00    +0.000 HD
ENDBRANCH  26  31
ENDBRANCH  20  23
ENDBRANCH  19  20
ENDBRANCH   1  19
TORSDOF 13
ENDMDL
MODEL 3
REMARK VINA RESULT:      -7.1      1.502      2.739
REMARK  Name = 
REMARK  15 active torsions:
REMARK  status: ('A' for Active; 'I' for Inactive)
REMARK    1  A    between atoms: C_1  and  O_2
REMARK    2  A    between atoms: O_2  and  C_3
REMARK    3  A    between atoms: C_3  and  C_5
REMARK    4  A    between atoms: C_7  and  O_8
REMARK    5  A    between atoms: O_8  and  C_9
REMARK    6  A    between atoms: C_9  and  C_10
REMARK    7  A    between atoms: C_11  and  C_12
REMARK    8  A    between atoms: C_13  and  C_14
REMARK    9  A    between atoms: C_14  and  O_15
REMARK   10  A    between atoms: O_15  and  C_16
REMARK   11  A    between atoms: C_19  and  O_20
REMARK   12  A    between atoms: C_21  and  C_22
REMARK   13  A    between atoms: C_22  and  O_24
REMARK   14  A    between atoms: O_24  and  C_25
REMARK   15  A    between atoms: C_29  and  O_30
REMARK                            x       y       z     vdW  Elec       q    Type
REMARK                         _______ _______ _______ _____ _____    ______ ____
ROOT
ATOM      1  C   UNL     1       7.091   6.137  17.287  0.00  0.00    +0.000 C 
ATOM      2  C   UNL     1       7.607   7.168  17.626  0.00  0.00    +0.000 C 
ENDROOT
BRANCH   2   3
ATOM      3  C   UNL     1       8.223   8.511  18.054  0.00  0.00    +0.000 C 
ATOM      4  C   UNL     1       8.692   9.557  18.405  0.00  0.00    +0.000 C 
BRANCH   4   5
ATOM      5  C   UNL     1       9.268  10.839  18.841  0.00  0.00    +0.000 C 
BRANCH   5   6
ATOM      6  O   UNL     1       8.724  11.885  18.038  0.00  0.00    +0.000 OA
BRANCH   6   7
ATOM      7  C   UNL     1       9.524  12.952  17.748  0.00  0.00    +0.000 A 
ATOM      8  C   UNL     1      10.737  12.609  17.144  0.00  0.00    +0.000 A 
ATOM      9  C   UNL     1      11.666  13.589  16.795  0.00  0.00    +0.000 A 
ATOM     10  C   UNL     1      11.386  14.931  17.053  0.00  0.00    +0.000 A 
ATOM     11  C   UNL     1      10.171  15.299  17.646  0.00  0.00    +0.000 A 
ATOM     12  C   UNL     1       9.237  14.297  17.989  0.00  0.00    +0.000 A 
BRANCH  10  13
ATOM     13  O   UNL     1      12.329  15.871  16.751  0.00  0.00    +0.000 OA
ATOM     14  H   UNL     1      11.902  16.677  16.419  0.00  0.00    +0.000 HD
ENDBRANCH  10  13
BRANCH  11  15
ATOM     15  C   UNL     1       9.848  16.733  17.890  0.00  0.00    +0.000 C 
ATOM     16  O   UNL     1      10.660  17.639  17.984  0.00  0.00    +0.000 OA
BRANCH  15  17
ATOM     17  O   UNL     1       8.498  16.880  17.993  0.00  0.00    +0.000 OA
ATOM     18  C   UNL     1       8.088  17.594  19.161  0.00  0.00    +0.000 C 
ENDBRANCH  15  17
ENDBRANCH  11  15
ENDBRANCH   6   7
ENDBRANCH   5   6
ENDBRANCH   4   5
ENDBRANCH   2   3
BRANCH   1  19
ATOM     19  C   UNL     1       6.396   4.917  16.851  0.00  0.00    +0.000 C 
BRANCH  19  20
ATOM     20  O   UNL     1       5.066   5.236  16.435  0.00  0.00    +0.000 OA
BRANCH  20  23
ATOM     21  C   UNL     1       2.530   6.350  18.938  0.00  0.00    +0.000 A 
ATOM     22  C   UNL     1       3.491   6.440  17.909  0.00  0.00    +0.000 A 
ATOM     23  C   UNL     1       4.096   5.289  17.401  0.00  0.00    +0.000 A 
ATOM     24  C   UNL     1       3.715   4.043  17.910  0.00  0.00    +0.000 A 
ATOM     25  C   UNL     1       2.760   3.942  18.924  0.00  0.00    +0.000 A 
ATOM     26  C   UNL     1       2.179   5.095  19.449  0.00  0.00    +0.000 A 
BRANCH  21  27
ATOM     27  C   UNL     1       1.993   7.626  19.481  0.00  0.00    +0.000 C 
ATOM     28  O   UNL     1       1.923   8.647  18.812  0.00  0.00    +0.000 OA
BRANCH  27  30
ATOM     29  C   UNL     1       1.296   8.702  21.437  0.00  0.00    +0.000 C 
ATOM     30  O   UNL     1       1.549   7.477  20.753  0.00  0.00    +0.000 OA
ENDBRANCH  27  30
ENDBRANCH  21  27
BRANCH  26  31
ATOM     31  O   UNL     1       1.305   4.979  20.493  0.00  0.00    +0.000 OA
ATOM     32  H   UNL     1       1.377   4.096  20.890  0.00  0.00    +0.000 HD
ENDBRANCH  26  31
ENDBRANCH  20  23
ENDBRANCH  19  20
ENDBRANCH   1  19
TORSDOF 13
ENDMDL
MODEL 4
REMARK VINA RESULT:      -7.0      1.413      2.112
REMARK  Name = 
REMARK  15 active torsions:
REMARK  status: ('A' for Active; 'I' for Inactive)
REMARK    1  A    between atoms: C_1  and  O_2
REMARK    2  A    between atoms: O_2  and  C_3
REMARK    3  A    between atoms: C_3  and  C_5
REMARK    4  A    between atoms: C_7  and  O_8
REMARK    5  A    between atoms: O_8  and  C_9
REMARK    6  A    between atoms: C_9  and  C_10
REMARK    7  A    between atoms: C_11  and  C_12
REMARK    8  A    between atoms: C_13  and  C_14
REMARK    9  A    between atoms: C_14  and  O_15
REMARK   10  A    between atoms: O_15  and  C_16
REMARK   11  A    between atoms: C_19  and  O_20
REMARK   12  A    between atoms: C_21  and  C_22
REMARK   13  A    between atoms: C_22  and  O_24
REMARK   14  A    between atoms: O_24  and  C_25
REMARK   15  A    between atoms: C_29  and  O_30
REMARK                            x       y       z     vdW  Elec       q    Type
REMARK                         _______ _______ _______ _____ _____    ______ ____
ROOT
ATOM      1  C   UNL     1       6.961   7.720  17.378  0.00  0.00    +0.000 C 
ATOM      2  C   UNL     1       7.696   8.550  17.842  0.00  0.00    +0.000 C 
ENDROOT
BRANCH   2   3
ATOM      3  C   UNL     1       8.673   9.597  18.405  0.00  0.00    +0.000 C 
ATOM      4  C   UNL     1       9.450  10.403  18.834  0.00  0.00    +0.000 C 
BRANCH   4   5
ATOM      5  C   UNL     1      10.407  11.393  19.355  0.00  0.00    +0.000 C 
BRANCH   5   6
ATOM      6  O   UNL     1       9.684  12.537  19.806  0.00  0.00    +0.000 OA
BRANCH   6   7
ATOM      7  C   UNL     1       9.764  13.679  19.061  0.00  0.00    +0.000 A 
ATOM      8  C   UNL     1      10.812  13.686  18.137  0.00  0.00    +0.000 A 
ATOM      9  C   UNL     1      11.029  14.786  17.308  0.00  0.00    +0.000 A 
ATOM     10  C   UNL     1      10.193  15.899  17.402  0.00  0.00    +0.000 A 
ATOM     11  C   UNL     1       9.128  15.908  18.312  0.00  0.00    +0.000 A 
ATOM     12  C   UNL     1       8.916  14.785  19.141  0.00  0.00    +0.000 A 
BRANCH  10  13
ATOM     13  O   UNL     1      10.452  16.987  16.618  0.00  0.00    +0.000 OA
ATOM     14  H   UNL     1      10.942  16.717  15.825  0.00  0.00    +0.000 HD
ENDBRANCH  10  13
BRANCH  11  15
ATOM     15  C   UNL     1       8.207  17.077  18.391  0.00  0.00    +0.000 C 
ATOM     16  O   UNL     1       8.544  18.249  18.407  0.00  0.00    +0.000 OA
BRANCH  15  17
ATOM     17  O   UNL     1       6.920  16.634  18.444  0.00  0.00    +0.000 OA
ATOM     18  C   UNL     1       6.114  17.328  19.399  0.00  0.00    +0.000 C 
ENDBRANCH  15  17
ENDBRANCH  11  15
ENDBRANCH   6   7
ENDBRANCH   5   6
ENDBRANCH   4   5
ENDBRANCH   2   3
BRANCH   1  19
ATOM     19  C   UNL     1       6.123   6.676  16.772  0.00  0.00    +0.000 C 
BRANCH  19  20
ATOM     20  O   UNL     1       4.806   6.726  17.322  0.00  0.00    +0.000 OA
BRANCH  20  23
ATOM     21  C   UNL     1       2.657   3.976  18.647  0.00  0.00    +0.000 A 
ATOM     22  C   UNL     1       3.213   5.266  18.521  0.00  0.00    +0.000 A 
ATOM     23  C   UNL     1       4.160   5.536  17.531  0.00  0.00    +0.000 A 
ATOM     24  C   UNL     1       4.528   4.514  16.648  0.00  0.00    +0.000 A 
ATOM     25  C   UNL     1       3.977   3.235  16.760  0.00  0.00    +0.000 A 
ATOM     26  C   UNL     1       3.055   2.961  17.768  0.00  0.00    +0.000 A 
BRANCH  21  27
ATOM     27  C   UNL     1       1.718   3.747  19.777  0.00  0.00    +0.000 C 
ATOM     28  O   UNL     1       0.824   4.532  20.057  0.00  0.00    +0.000 OA
BRANCH  27  30
ATOM     29  C   UNL     1       2.393   2.661  21.735  0.00  0.00    +0.000 C 
ATOM     30  O   UNL     1       1.951   2.558  20.384  0.00  0.00    +0.000 OA
ENDBRANCH  27  30
ENDBRANCH  21  27
BRANCH  26  31
ATOM     31  O   UNL     1       2.587   1.685  17.908  0.00  0.00    +0.000 OA
ATOM     32  H   UNL     1       2.948   1.120  17.205  0.00  0.00    +0.000 HD
ENDBRANCH  26  31
ENDBRANCH  20  23
ENDBRANCH  19  20
ENDBRANCH   1  19
TORSDOF 13
ENDMDL
MODEL 5
REMARK VINA RESULT:      -7.0      2.703      3.691
REMARK  Name = 
REMARK  15 active torsions:
REMARK  status: ('A' for Active; 'I' for Inactive)
REMARK    1  A    between atoms: C_1  and  O_2
REMARK    2  A    between atoms: O_2  and  C_3
REMARK    3  A    between atoms: C_3  and  C_5
REMARK    4  A    between atoms: C_7  and  O_8
REMARK    5  A    between atoms: O_8  and  C_9
REMARK    6  A    between atoms: C_9  and  C_10
REMARK    7  A    between atoms: C_11  and  C_12
REMARK    8  A    between atoms: C_13  and  C_14
REMARK    9  A    between atoms: C_14  and  O_15
REMARK   10  A    between atoms: O_15  and  C_16
REMARK   11  A    between atoms: C_19  and  O_20
REMARK   12  A    between atoms: C_21  and  C_22
REMARK   13  A    between atoms: C_22  and  O_24
REMARK   14  A    between atoms: O_24  and  C_25
REMARK   15  A    between atoms: C_29  and  O_30
REMARK                            x       y       z     vdW  Elec       q    Type
REMARK                         _______ _______ _______ _____ _____    ______ ____
ROOT
ATOM      1  C   UNL     1       6.894   5.917  16.859  0.00  0.00    +0.000 C 
ATOM      2  C   UNL     1       7.403   6.936  17.241  0.00  0.00    +0.000 C 
ENDROOT
BRANCH   2   3
ATOM      3  C   UNL     1       8.010   8.254  17.751  0.00  0.00    +0.000 C 
ATOM      4  C   UNL     1       8.469   9.292  18.139  0.00  0.00    +0.000 C 
BRANCH   4   5
ATOM      5  C   UNL     1       9.026  10.568  18.617  0.00  0.00    +0.000 C 
BRANCH   5   6
ATOM      6  O   UNL     1       9.389  10.426  19.989  0.00  0.00    +0.000 OA
BRANCH   6   7
ATOM      7  C   UNL     1       9.373  11.543  20.775  0.00  0.00    +0.000 A 
ATOM      8  C   UNL     1      10.057  12.633  20.231  0.00  0.00    +0.000 A 
ATOM      9  C   UNL     1      10.137  13.844  20.918  0.00  0.00    +0.000 A 
ATOM     10  C   UNL     1       9.530  13.972  22.168  0.00  0.00    +0.000 A 
ATOM     11  C   UNL     1       8.828  12.895  22.726  0.00  0.00    +0.000 A 
ATOM     12  C   UNL     1       8.750  11.677  22.017  0.00  0.00    +0.000 A 
BRANCH  10  13
ATOM     13  O   UNL     1       9.662  15.148  22.848  0.00  0.00    +0.000 OA
ATOM     14  H   UNL     1       8.830  15.370  23.295  0.00  0.00    +0.000 HD
ENDBRANCH  10  13
BRANCH  11  15
ATOM     15  C   UNL     1       8.145  13.036  24.043  0.00  0.00    +0.000 C 
ATOM     16  O   UNL     1       8.391  12.386  25.046  0.00  0.00    +0.000 OA
BRANCH  15  17
ATOM     17  O   UNL     1       7.194  14.007  23.956  0.00  0.00    +0.000 OA
ATOM     18  C   UNL     1       5.859  13.516  24.094  0.00  0.00    +0.000 C 
ENDBRANCH  15  17
ENDBRANCH  11  15
ENDBRANCH   6   7
ENDBRANCH   5   6
ENDBRANCH   4   5
ENDBRANCH   2   3
BRANCH   1  19
ATOM     19  C   UNL     1       6.202   4.699  16.414  0.00  0.00    +0.000 C 
BRANCH  19  20
ATOM     20  O   UNL     1       4.798   4.945  16.314  0.00  0.00    +0.000 OA
BRANCH  20  23
ATOM     21  C   UNL     1       2.981   4.351  19.521  0.00  0.00    +0.000 A 
ATOM     22  C   UNL     1       3.748   4.068  18.371  0.00  0.00    +0.000 A 
ATOM     23  C   UNL     1       4.094   5.086  17.481  0.00  0.00    +0.000 A 
ATOM     24  C   UNL     1       3.693   6.397  17.761  0.00  0.00    +0.000 A 
ATOM     25  C   UNL     1       2.940   6.689  18.901  0.00  0.00    +0.000 A 
ATOM     26  C   UNL     1       2.570   5.666  19.771  0.00  0.00    +0.000 A 
BRANCH  21  27
ATOM     27  C   UNL     1       2.583   3.201  20.374  0.00  0.00    +0.000 C 
ATOM     28  O   UNL     1       3.392   2.553  21.022  0.00  0.00    +0.000 OA
BRANCH  27  30
ATOM     29  C   UNL     1       0.707   2.507  19.162  0.00  0.00    +0.000 C 
ATOM     30  O   UNL     1       1.239   3.027  20.379  0.00  0.00    +0.000 OA
ENDBRANCH  27  30
ENDBRANCH  21  27
BRANCH  26  31
ATOM     31  O   UNL     1       1.768   5.962  20.838  0.00  0.00    +0.000 OA
ATOM     32  H   UNL     1       1.452   6.878  20.771  0.00  0.00    +0.000 HD
ENDBRANCH  26  31
ENDBRANCH  20  23
ENDBRANCH  19  20
ENDBRANCH   1  19
TORSDOF 13
ENDMDL
MODEL 6
REMARK VINA RESULT:      -7.0      1.208     11.854
REMARK  Name = 
REMARK  15 active torsions:
REMARK  status: ('A' for Active; 'I' for Inactive)
REMARK    1  A    between atoms: C_1  and  O_2
REMARK    2  A    between atoms: O_2  and  C_3
REMARK    3  A    between atoms: C_3  and  C_5
REMARK    4  A    between atoms: C_7  and  O_8
REMARK    5  A    between atoms: O_8  and  C_9
REMARK    6  A    between atoms: C_9  and  C_10
REMARK    7  A    between atoms: C_11  and  C_12
REMARK    8  A    between atoms: C_13  and  C_14
REMARK    9  A    between atoms: C_14  and  O_15
REMARK   10  A    between atoms: O_15  and  C_16
REMARK   11  A    between atoms: C_19  and  O_20
REMARK   12  A    between atoms: C_21  and  C_22
REMARK   13  A    between atoms: C_22  and  O_24
REMARK   14  A    between atoms: O_24  and  C_25
REMARK   15  A    between atoms: C_29  and  O_30
REMARK                            x       y       z     vdW  Elec       q    Type
REMARK                         _______ _______ _______ _____ _____    ______ ____
ROOT
ATOM      1  C   UNL     1       9.070   9.977  18.866  0.00  0.00    +0.000 C 
ATOM      2  C   UNL     1       8.514   9.020  18.398  0.00  0.00    +0.000 C 
ENDROOT
BRANCH   2   3
ATOM      3  C   UNL     1       7.770   7.826  17.775  0.00  0.00    +0.000 C 
ATOM      4  C   UNL     1       7.184   6.891  17.308  0.00  0.00    +0.000 C 
BRANCH   4   5
ATOM      5  C   UNL     1       6.458   5.744  16.737  0.00  0.00    +0.000 C 
BRANCH   5   6
ATOM      6  O   UNL     1       5.107   6.130  16.492  0.00  0.00    +0.000 OA
BRANCH   6   7
ATOM      7  C   UNL     1       4.232   6.100  17.541  0.00  0.00    +0.000 A 
ATOM      8  C   UNL     1       3.591   7.318  17.784  0.00  0.00    +0.000 A 
ATOM      9  C   UNL     1       2.674   7.448  18.827  0.00  0.00    +0.000 A 
ATOM     10  C   UNL     1       2.394   6.352  19.643  0.00  0.00    +0.000 A 
ATOM     11  C   UNL     1       3.016   5.119  19.409  0.00  0.00    +0.000 A 
ATOM     12  C   UNL     1       3.937   4.999  18.347  0.00  0.00    +0.000 A 
BRANCH  10  13
ATOM     13  O   UNL     1       1.532   6.513  20.691  0.00  0.00    +0.000 OA
ATOM     14  H   UNL     1       1.760   5.900  21.407  0.00  0.00    +0.000 HD
ENDBRANCH  10  13
BRANCH  11  15
ATOM     15  C   UNL     1       2.692   3.934  20.253  0.00  0.00    +0.000 C 
ATOM     16  O   UNL     1       2.369   3.964  21.428  0.00  0.00    +0.000 OA
BRANCH  15  17
ATOM     17  O   UNL     1       2.816   2.802  19.505  0.00  0.00    +0.000 OA
ATOM     18  C   UNL     1       1.615   2.030  19.432  0.00  0.00    +0.000 C 
ENDBRANCH  15  17
ENDBRANCH  11  15
ENDBRANCH   6   7
ENDBRANCH   5   6
ENDBRANCH   4   5
ENDBRANCH   2   3
BRANCH   1  19
ATOM     19  C   UNL     1       9.691  11.192  19.412  0.00  0.00    +0.000 C 
BRANCH  19  20
ATOM     20  O   UNL     1       9.034  12.350  18.893  0.00  0.00    +0.000 OA
BRANCH  20  23
ATOM     21  C   UNL     1      10.573  15.670  18.154  0.00  0.00    +0.000 A 
ATOM     22  C   UNL     1       9.718  14.720  18.751  0.00  0.00    +0.000 A 
ATOM     23  C   UNL     1       9.821  13.367  18.421  0.00  0.00    +0.000 A 
ATOM     24  C   UNL     1      10.804  12.965  17.511  0.00  0.00    +0.000 A 
ATOM     25  C   UNL     1      11.660  13.897  16.920  0.00  0.00    +0.000 A 
ATOM     26  C   UNL     1      11.535  15.250  17.229  0.00  0.00    +0.000 A 
BRANCH  21  27
ATOM     27  C   UNL     1      10.346  17.099  18.495  0.00  0.00    +0.000 C 
ATOM     28  O   UNL     1      11.218  17.948  18.385  0.00  0.00    +0.000 OA
BRANCH  27  30
ATOM     29  C   UNL     1       8.909  18.274  19.918  0.00  0.00    +0.000 C 
ATOM     30  O   UNL     1       9.062  17.323  18.867  0.00  0.00    +0.000 OA
ENDBRANCH  27  30
ENDBRANCH  21  27
BRANCH  26  31
ATOM     31  O   UNL     1      12.331  16.152  16.581  0.00  0.00    +0.000 OA
ATOM     32  H   UNL     1      12.954  15.688  15.998  0.00  0.00    +0.000 HD
ENDBRANCH  26  31
ENDBRANCH  20  23
ENDBRANCH  19  20
ENDBRANCH   1  19
TORSDOF 13
ENDMDL
MODEL 7
REMARK VINA RESULT:      -7.0      1.598      2.387
REMARK  Name = 
REMARK  15 active torsions:
REMARK  status: ('A' for Active; 'I' for Inactive)
REMARK    1  A    between atoms: C_1  and  O_2
REMARK    2  A    between atoms: O_2  and  C_3
REMARK    3  A    between atoms: C_3  and  C_5
REMARK    4  A    between atoms: C_7  and  O_8
REMARK    5  A    between atoms: O_8  and  C_9
REMARK    6  A    between atoms: C_9  and  C_10
REMARK    7  A    between atoms: C_11  and  C_12
REMARK    8  A    between atoms: C_13  and  C_14
REMARK    9  A    between atoms: C_14  and  O_15
REMARK   10  A    between atoms: O_15  and  C_16
REMARK   11  A    between atoms: C_19  and  O_20
REMARK   12  A    between atoms: C_21  and  C_22
REMARK   13  A    between atoms: C_22  and  O_24
REMARK   14  A    between atoms: O_24  and  C_25
REMARK   15  A    between atoms: C_29  and  O_30
REMARK                            x       y       z     vdW  Elec       q    Type
REMARK                         _______ _______ _______ _____ _____    ______ ____
ROOT
ATOM      1  C   UNL     1       7.380   7.155  17.392  0.00  0.00    +0.000 C 
ATOM      2  C   UNL     1       7.889   8.182  17.754  0.00  0.00    +0.000 C 
ENDROOT
BRANCH   2   3
ATOM      3  C   UNL     1       8.525   9.518  18.174  0.00  0.00    +0.000 C 
ATOM      4  C   UNL     1       9.015  10.555  18.521  0.00  0.00    +0.000 C 
BRANCH   4   5
ATOM      5  C   UNL     1       9.621  11.826  18.952  0.00  0.00    +0.000 C 
BRANCH   5   6
ATOM      6  O   UNL     1       9.666  12.715  17.837  0.00  0.00    +0.000 OA
BRANCH   6   7
ATOM      7  C   UNL     1       9.081  13.942  17.972  0.00  0.00    +0.000 A 
ATOM      8  C   UNL     1       9.971  15.014  17.860  0.00  0.00    +0.000 A 
ATOM      9  C   UNL     1       9.526  16.330  17.984  0.00  0.00    +0.000 A 
ATOM     10  C   UNL     1       8.177  16.584  18.227  0.00  0.00    +0.000 A 
ATOM     11  C   UNL     1       7.265  15.525  18.330  0.00  0.00    +0.000 A 
ATOM     12  C   UNL     1       7.728  14.198  18.197  0.00  0.00    +0.000 A 
BRANCH  10  13
ATOM     13  O   UNL     1       7.769  17.876  18.395  0.00  0.00    +0.000 OA
ATOM     14  H   UNL     1       7.609  18.056  19.336  0.00  0.00    +0.000 HD
ENDBRANCH  10  13
BRANCH  11  15
ATOM     15  C   UNL     1       5.815  15.791  18.551  0.00  0.00    +0.000 C 
ATOM     16  O   UNL     1       5.352  16.654  19.277  0.00  0.00    +0.000 OA
BRANCH  15  17
ATOM     17  O   UNL     1       5.079  14.913  17.813  0.00  0.00    +0.000 OA
ATOM     18  C   UNL     1       3.790  15.412  17.448  0.00  0.00    +0.000 C 
ENDBRANCH  15  17
ENDBRANCH  11  15
ENDBRANCH   6   7
ENDBRANCH   5   6
ENDBRANCH   4   5
ENDBRANCH   2   3
BRANCH   1  19
ATOM     19  C   UNL     1       6.746   5.932  16.878  0.00  0.00    +0.000 C 
BRANCH  19  20
ATOM     20  O   UNL     1       5.359   6.169  16.632  0.00  0.00    +0.000 OA
BRANCH  20  23
ATOM     21  C   UNL     1       3.355   4.515  19.312  0.00  0.00    +0.000 A 
ATOM     22  C   UNL     1       4.335   4.673  18.311  0.00  0.00    +0.000 A 
ATOM     23  C   UNL     1       4.479   5.892  17.644  0.00  0.00    +0.000 A 
ATOM     24  C   UNL     1       3.654   6.962  18.005  0.00  0.00    +0.000 A 
ATOM     25  C   UNL     1       2.685   6.819  19.000  0.00  0.00    +0.000 A 
ATOM     26  C   UNL     1       2.524   5.592  19.642  0.00  0.00    +0.000 A 
BRANCH  21  27
ATOM     27  C   UNL     1       3.209   3.165  19.916  0.00  0.00    +0.000 C 
ATOM     28  O   UNL     1       2.939   2.998  21.096  0.00  0.00    +0.000 OA
BRANCH  27  30
ATOM     29  C   UNL     1       2.223   2.023  18.129  0.00  0.00    +0.000 C 
ATOM     30  O   UNL     1       3.350   2.188  18.987  0.00  0.00    +0.000 OA
ENDBRANCH  27  30
ENDBRANCH  21  27
BRANCH  26  31
ATOM     31  O   UNL     1       1.518   5.452  20.558  0.00  0.00    +0.000 OA
ATOM     32  H   UNL     1       0.767   4.985  20.157  0.00  0.00    +0.000 HD
ENDBRANCH  26  31
ENDBRANCH  20  23
ENDBRANCH  19  20
ENDBRANCH   1  19
TORSDOF 13
ENDMDL
MODEL 8
REMARK VINA RESULT:      -7.0      7.022     11.437
REMARK  Name = 
REMARK  15 active torsions:
REMARK  status: ('A' for Active; 'I' for Inactive)
REMARK    1  A    between atoms: C_1  and  O_2
REMARK    2  A    between atoms: O_2  and  C_3
REMARK    3  A    between atoms: C_3  and  C_5
REMARK    4  A    between atoms: C_7  and  O_8
REMARK    5  A    between atoms: O_8  and  C_9
REMARK    6  A    between atoms: C_9  and  C_10
REMARK    7  A    between atoms: C_11  and  C_12
REMARK    8  A    between atoms: C_13  and  C_14
REMARK    9  A    between atoms: C_14  and  O_15
REMARK   10  A    between atoms: O_15  and  C_16
REMARK   11  A    between atoms: C_19  and  O_20
REMARK   12  A    between atoms: C_21  and  C_22
REMARK   13  A    between atoms: C_22  and  O_24
REMARK   14  A    between atoms: O_24  and  C_25
REMARK   15  A    between atoms: C_29  and  O_30
REMARK                            x       y       z     vdW  Elec       q    Type
REMARK                         _______ _______ _______ _____ _____    ______ ____
ROOT
ATOM      1  C   UNL     1      -2.936  10.529  16.952  0.00  0.00    +0.000 C 
ATOM      2  C   UNL     1      -1.832  10.241  17.329  0.00  0.00    +0.000 C 
ENDROOT
BRANCH   2   3
ATOM      3  C   UNL     1      -0.414   9.840  17.772  0.00  0.00    +0.000 C 
ATOM      4  C   UNL     1       0.683   9.514  18.129  0.00  0.00    +0.000 C 
BRANCH   4   5
ATOM      5  C   UNL     1       2.028   9.108  18.569  0.00  0.00    +0.000 C 
BRANCH   5   6
ATOM      6  O   UNL     1       2.603   8.268  17.570  0.00  0.00    +0.000 OA
BRANCH   6   7
ATOM      7  C   UNL     1       3.191   7.103  17.974  0.00  0.00    +0.000 A 
ATOM      8  C   UNL     1       2.495   6.434  18.985  0.00  0.00    +0.000 A 
ATOM      9  C   UNL     1       2.974   5.233  19.509  0.00  0.00    +0.000 A 
ATOM     10  C   UNL     1       4.164   4.691  19.024  0.00  0.00    +0.000 A 
ATOM     11  C   UNL     1       4.870   5.339  18.002  0.00  0.00    +0.000 A 
ATOM     12  C   UNL     1       4.372   6.550  17.476  0.00  0.00    +0.000 A 
BRANCH  10  13
ATOM     13  O   UNL     1       4.643   3.542  19.585  0.00  0.00    +0.000 OA
ATOM     14  H   UNL     1       3.911   3.020  19.950  0.00  0.00    +0.000 HD
ENDBRANCH  10  13
BRANCH  11  15
ATOM     15  C   UNL     1       6.122   4.747  17.451  0.00  0.00    +0.000 C 
ATOM     16  O   UNL     1       6.336   4.500  16.276  0.00  0.00    +0.000 OA
BRANCH  15  17
ATOM     17  O   UNL     1       6.998   4.519  18.469  0.00  0.00    +0.000 OA
ATOM     18  C   UNL     1       7.764   5.670  18.833  0.00  0.00    +0.000 C 
ENDBRANCH  15  17
ENDBRANCH  11  15
ENDBRANCH   6   7
ENDBRANCH   5   6
ENDBRANCH   4   5
ENDBRANCH   2   3
BRANCH   1  19
ATOM     19  C   UNL     1      -4.280  10.825  16.437  0.00  0.00    +0.000 C 
BRANCH  19  20
ATOM     20  O   UNL     1      -4.769  12.037  17.015  0.00  0.00    +0.000 OA
BRANCH  20  23
ATOM     21  C   UNL     1      -5.605  12.425  20.633  0.00  0.00    +0.000 A 
ATOM     22  C   UNL     1      -4.937  12.631  19.407  0.00  0.00    +0.000 A 
ATOM     23  C   UNL     1      -5.348  11.959  18.254  0.00  0.00    +0.000 A 
ATOM     24  C   UNL     1      -6.450  11.100  18.327  0.00  0.00    +0.000 A 
ATOM     25  C   UNL     1      -7.122  10.895  19.534  0.00  0.00    +0.000 A 
ATOM     26  C   UNL     1      -6.691  11.543  20.689  0.00  0.00    +0.000 A 
BRANCH  21  27
ATOM     27  C   UNL     1      -5.056  13.112  21.831  0.00  0.00    +0.000 C 
ATOM     28  O   UNL     1      -4.994  14.329  21.920  0.00  0.00    +0.000 OA
BRANCH  27  30
ATOM     29  C   UNL     1      -3.460  12.500  23.428  0.00  0.00    +0.000 C 
ATOM     30  O   UNL     1      -4.709  12.226  22.797  0.00  0.00    +0.000 OA
ENDBRANCH  27  30
ENDBRANCH  21  27
BRANCH  26  31
ATOM     31  O   UNL     1      -7.315  11.268  21.874  0.00  0.00    +0.000 OA
ATOM     32  H   UNL     1      -6.676  10.902  22.508  0.00  0.00    +0.000 HD
ENDBRANCH  26  31
ENDBRANCH  20  23
ENDBRANCH  19  20
ENDBRANCH   1  19
TORSDOF 13
ENDMDL
MODEL 9
REMARK VINA RESULT:      -7.0      7.046     11.763
REMARK  Name = 
REMARK  15 active torsions:
REMARK  status: ('A' for Active; 'I' for Inactive)
REMARK    1  A    between atoms: C_1  and  O_2
REMARK    2  A    between atoms: O_2  and  C_3
REMARK    3  A    between atoms: C_3  and  C_5
REMARK    4  A    between atoms: C_7  and  O_8
REMARK    5  A    between atoms: O_8  and  C_9
REMARK    6  A    between atoms: C_9  and  C_10
REMARK    7  A    between atoms: C_11  and  C_12
REMARK    8  A    between atoms: C_13  and  C_14
REMARK    9  A    between atoms: C_14  and  O_15
REMARK   10  A    between atoms: O_15  and  C_16
REMARK   11  A    between atoms: C_19  and  O_20
REMARK   12  A    between atoms: C_21  and  C_22
REMARK   13  A    between atoms: C_22  and  O_24
REMARK   14  A    between atoms: O_24  and  C_25
REMARK   15  A    between atoms: C_29  and  O_30
REMARK                            x       y       z     vdW  Elec       q    Type
REMARK                         _______ _______ _______ _____ _____    ______ ____
ROOT
ATOM      1  C   UNL     1       0.840   9.319  18.256  0.00  0.00    +0.000 C 
ATOM      2  C   UNL     1      -0.211   9.813  17.947  0.00  0.00    +0.000 C 
ENDROOT
BRANCH   2   3
ATOM      3  C   UNL     1      -1.565  10.407  17.522  0.00  0.00    +0.000 C 
ATOM      4  C   UNL     1      -2.610  10.886  17.184  0.00  0.00    +0.000 C 
BRANCH   4   5
ATOM      5  C   UNL     1      -3.892  11.476  16.764  0.00  0.00    +0.000 C 
BRANCH   5   6
ATOM      6  O   UNL     1      -4.956  10.725  17.345  0.00  0.00    +0.000 OA
BRANCH   6   7
ATOM      7  C   UNL     1      -5.476  11.162  18.530  0.00  0.00    +0.000 A 
ATOM      8  C   UNL     1      -6.793  10.755  18.761  0.00  0.00    +0.000 A 
ATOM      9  C   UNL     1      -7.464  11.128  19.925  0.00  0.00    +0.000 A 
ATOM     10  C   UNL     1      -6.817  11.922  20.873  0.00  0.00    +0.000 A 
ATOM     11  C   UNL     1      -5.493  12.331  20.668  0.00  0.00    +0.000 A 
ATOM     12  C   UNL     1      -4.823  11.941  19.488  0.00  0.00    +0.000 A 
BRANCH  10  13
ATOM     13  O   UNL     1      -7.508  12.320  21.982  0.00  0.00    +0.000 OA
ATOM     14  H   UNL     1      -8.009  13.129  21.790  0.00  0.00    +0.000 HD
ENDBRANCH  10  13
BRANCH  11  15
ATOM     15  C   UNL     1      -4.783  13.146  21.694  0.00  0.00    +0.000 C 
ATOM     16  O   UNL     1      -4.331  14.266  21.524  0.00  0.00    +0.000 OA
BRANCH  15  17
ATOM     17  O   UNL     1      -4.712  12.443  22.858  0.00  0.00    +0.000 OA
ATOM     18  C   UNL     1      -4.339  13.239  23.985  0.00  0.00    +0.000 C 
ENDBRANCH  15  17
ENDBRANCH  11  15
ENDBRANCH   6   7
ENDBRANCH   5   6
ENDBRANCH   4   5
ENDBRANCH   2   3
BRANCH   1  19
ATOM     19  C   UNL     1       2.115   8.661  18.576  0.00  0.00    +0.000 C 
BRANCH  19  20
ATOM     20  O   UNL     1       2.348   7.581  17.669  0.00  0.00    +0.000 OA
BRANCH  20  23
ATOM     21  C   UNL     1       5.724   5.988  17.592  0.00  0.00    +0.000 A 
ATOM     22  C   UNL     1       4.695   6.906  17.293  0.00  0.00    +0.000 A 
ATOM     23  C   UNL     1       3.441   6.788  17.897  0.00  0.00    +0.000 A 
ATOM     24  C   UNL     1       3.230   5.762  18.825  0.00  0.00    +0.000 A 
ATOM     25  C   UNL     1       4.244   4.853  19.133  0.00  0.00    +0.000 A 
ATOM     26  C   UNL     1       5.485   4.955  18.506  0.00  0.00    +0.000 A 
BRANCH  21  27
ATOM     27  C   UNL     1       7.001   6.131  16.847  0.00  0.00    +0.000 C 
ATOM     28  O   UNL     1       7.594   7.197  16.757  0.00  0.00    +0.000 OA
BRANCH  27  30
ATOM     29  C   UNL     1       6.948   4.635  15.050  0.00  0.00    +0.000 C 
ATOM     30  O   UNL     1       7.427   4.941  16.357  0.00  0.00    +0.000 OA
ENDBRANCH  27  30
ENDBRANCH  21  27
BRANCH  26  31
ATOM     31  O   UNL     1       6.437   4.009  18.765  0.00  0.00    +0.000 OA
ATOM     32  H   UNL     1       6.365   3.282  18.126  0.00  0.00    +0.000 HD
ENDBRANCH  26  31
ENDBRANCH  20  23
ENDBRANCH  19  20
ENDBRANCH   1  19
TORSDOF 13
ENDMDL
