MODEL 1
REMARK VINA RESULT:      -8.1      0.000      0.000
REMARK  Name = 
REMARK  3 active torsions:
REMARK  status: ('A' for Active; 'I' for Inactive)
REMARK    1  A    between atoms: C_2  and  C_3
REMARK    2  A    between atoms: C_2  and  C_15
REMARK    3  A    between atoms: C_4  and  C_5
REMARK                            x       y       z     vdW  Elec       q    Type
REMARK                         _______ _______ _______ _____ _____    ______ ____
ROOT
ATOM      1  C   UNL     1       3.629   5.658  17.964  0.00  0.00    +0.000 C 
ATOM      2  C   UNL     1       4.919   5.301  17.872  0.00  0.00    +0.000 C 
ENDROOT
BRANCH   2   3
ATOM      3  C   UNL     1       5.586   5.085  16.604  0.00  0.00    +0.000 C 
ATOM      4  C   UNL     1       4.972   4.513  15.558  0.00  0.00    +0.000 C 
ATOM      5  C   UNL     1       5.749   4.326  14.338  0.00  0.00    +0.000 A 
ATOM      6  C   UNL     1       5.261   3.546  13.285  0.00  0.00    +0.000 A 
ATOM      7  C   UNL     1       6.006   3.405  12.112  0.00  0.00    +0.000 A 
ATOM      8  C   UNL     1       7.232   4.057  11.980  0.00  0.00    +0.000 A 
ATOM      9  C   UNL     1       7.719   4.843  13.024  0.00  0.00    +0.000 A 
ATOM     10  C   UNL     1       6.988   4.961  14.205  0.00  0.00    +0.000 A 
ATOM     11  O   UNL     1       7.522   5.755  15.185  0.00  0.00    +0.000 OA
ATOM     12  C   UNL     1       7.034   5.508  16.515  0.00  0.00    +0.000 C 
ENDBRANCH   2   3
BRANCH   1  14
ATOM     13  O   UNL     1       3.137   5.140  20.232  0.00  0.00    +0.000 OA
ATOM     14  C   UNL     1       3.019   5.920  19.295  0.00  0.00    +0.000 C 
BRANCH  14  15
ATOM     15  C   UNL     1       2.290   7.202  19.468  0.00  0.00    +0.000 A 
ATOM     16  C   UNL     1       1.677   7.462  20.702  0.00  0.00    +0.000 A 
ATOM     17  C   UNL     1       0.965   8.648  20.894  0.00  0.00    +0.000 A 
ATOM     18  C   UNL     1       0.859   9.560  19.850  0.00  0.00    +0.000 A 
ATOM     19  F   UNL     1       0.166  10.692  20.031  0.00  0.00    +0.000 F 
ATOM     20  C   UNL     1       1.452   9.312  18.617  0.00  0.00    +0.000 A 
ATOM     21  C   UNL     1       2.171   8.130  18.422  0.00  0.00    +0.000 A 
ENDBRANCH  14  15
ENDBRANCH   1  14
TORSDOF 3
ENDMDL
MODEL 2
REMARK VINA RESULT:      -8.1      2.601      3.429
REMARK  Name = 
REMARK  3 active torsions:
REMARK  status: ('A' for Active; 'I' for Inactive)
REMARK    1  A    between atoms: C_2  and  C_3
REMARK    2  A    between atoms: C_2  and  C_15
REMARK    3  A    between atoms: C_4  and  C_5
REMARK                            x       y       z     vdW  Elec       q    Type
REMARK                         _______ _______ _______ _____ _____    ______ ____
ROOT
ATOM      1  C   UNL     1       3.346   5.977  17.607  0.00  0.00    +0.000 C 
ATOM      2  C   UNL     1       4.555   5.396  17.631  0.00  0.00    +0.000 C 
ENDROOT
BRANCH   2   3
ATOM      3  C   UNL     1       5.333   5.153  16.433  0.00  0.00    +0.000 C 
ATOM      4  C   UNL     1       4.817   4.553  15.350  0.00  0.00    +0.000 C 
ATOM      5  C   UNL     1       5.701   4.341  14.210  0.00  0.00    +0.000 A 
ATOM      6  C   UNL     1       5.312   3.533  13.136  0.00  0.00    +0.000 A 
ATOM      7  C   UNL     1       6.160   3.369  12.039  0.00  0.00    +0.000 A 
ATOM      8  C   UNL     1       7.390   4.025  12.001  0.00  0.00    +0.000 A 
ATOM      9  C   UNL     1       7.779   4.839  13.065  0.00  0.00    +0.000 A 
ATOM     10  C   UNL     1       6.945   4.981  14.173  0.00  0.00    +0.000 A 
ATOM     11  O   UNL     1       7.386   5.801  15.176  0.00  0.00    +0.000 OA
ATOM     12  C   UNL     1       6.782   5.583  16.463  0.00  0.00    +0.000 C 
ENDBRANCH   2   3
BRANCH   1  14
ATOM     13  O   UNL     1       2.310   7.382  19.223  0.00  0.00    +0.000 OA
ATOM     14  C   UNL     1       2.622   6.249  18.878  0.00  0.00    +0.000 C 
BRANCH  14  15
ATOM     15  C   UNL     1       2.241   5.077  19.707  0.00  0.00    +0.000 A 
ATOM     16  C   UNL     1       1.378   4.119  19.155  0.00  0.00    +0.000 A 
ATOM     17  C   UNL     1       0.981   3.016  19.912  0.00  0.00    +0.000 A 
ATOM     18  C   UNL     1       1.437   2.881  21.219  0.00  0.00    +0.000 A 
ATOM     19  F   UNL     1       1.046   1.828  21.950  0.00  0.00    +0.000 F 
ATOM     20  C   UNL     1       2.285   3.828  21.785  0.00  0.00    +0.000 A 
ATOM     21  C   UNL     1       2.690   4.931  21.029  0.00  0.00    +0.000 A 
ENDBRANCH  14  15
ENDBRANCH   1  14
TORSDOF 3
ENDMDL
MODEL 3
REMARK VINA RESULT:      -8.0      2.601      3.333
REMARK  Name = 
REMARK  3 active torsions:
REMARK  status: ('A' for Active; 'I' for Inactive)
REMARK    1  A    between atoms: C_2  and  C_3
REMARK    2  A    between atoms: C_2  and  C_15
REMARK    3  A    between atoms: C_4  and  C_5
REMARK                            x       y       z     vdW  Elec       q    Type
REMARK                         _______ _______ _______ _____ _____    ______ ____
ROOT
ATOM      1  C   UNL     1       3.419   6.197  17.792  0.00  0.00    +0.000 C 
ATOM      2  C   UNL     1       4.410   5.296  17.737  0.00  0.00    +0.000 C 
ENDROOT
BRANCH   2   3
ATOM      3  C   UNL     1       5.225   5.094  16.557  0.00  0.00    +0.000 C 
ATOM      4  C   UNL     1       4.745   4.521  15.443  0.00  0.00    +0.000 C 
ATOM      5  C   UNL     1       5.662   4.349  14.322  0.00  0.00    +0.000 A 
ATOM      6  C   UNL     1       5.311   3.569  13.216  0.00  0.00    +0.000 A 
ATOM      7  C   UNL     1       6.191   3.443  12.139  0.00  0.00    +0.000 A 
ATOM      8  C   UNL     1       7.416   4.110  12.155  0.00  0.00    +0.000 A 
ATOM      9  C   UNL     1       7.767   4.897  13.252  0.00  0.00    +0.000 A 
ATOM     10  C   UNL     1       6.901   5.000  14.339  0.00  0.00    +0.000 A 
ATOM     11  O   UNL     1       7.306   5.794  15.378  0.00  0.00    +0.000 OA
ATOM     12  C   UNL     1       6.668   5.535  16.640  0.00  0.00    +0.000 C 
ENDBRANCH   2   3
BRANCH   1  14
ATOM     13  O   UNL     1       2.364   7.507  19.474  0.00  0.00    +0.000 OA
ATOM     14  C   UNL     1       2.656   6.395  19.054  0.00  0.00    +0.000 C 
BRANCH  14  15
ATOM     15  C   UNL     1       2.210   5.176  19.776  0.00  0.00    +0.000 A 
ATOM     16  C   UNL     1       2.676   4.962  21.081  0.00  0.00    +0.000 A 
ATOM     17  C   UNL     1       2.295   3.817  21.782  0.00  0.00    +0.000 A 
ATOM     18  C   UNL     1       1.461   2.886  21.173  0.00  0.00    +0.000 A 
ATOM     19  F   UNL     1       1.105   1.781  21.841  0.00  0.00    +0.000 F 
ATOM     20  C   UNL     1       0.999   3.078  19.875  0.00  0.00    +0.000 A 
ATOM     21  C   UNL     1       1.372   4.226  19.171  0.00  0.00    +0.000 A 
ENDBRANCH  14  15
ENDBRANCH   1  14
TORSDOF 3
ENDMDL
MODEL 4
REMARK VINA RESULT:      -8.0      0.335      1.103
REMARK  Name = 
REMARK  3 active torsions:
REMARK  status: ('A' for Active; 'I' for Inactive)
REMARK    1  A    between atoms: C_2  and  C_3
REMARK    2  A    between atoms: C_2  and  C_15
REMARK    3  A    between atoms: C_4  and  C_5
REMARK                            x       y       z     vdW  Elec       q    Type
REMARK                         _______ _______ _______ _____ _____    ______ ____
ROOT
ATOM      1  C   UNL     1       3.641   5.341  18.033  0.00  0.00    +0.000 C 
ATOM      2  C   UNL     1       4.939   5.573  17.786  0.00  0.00    +0.000 C 
ENDROOT
BRANCH   2   3
ATOM      3  C   UNL     1       5.574   5.229  16.531  0.00  0.00    +0.000 C 
ATOM      4  C   UNL     1       4.893   4.706  15.501  0.00  0.00    +0.000 C 
ATOM      5  C   UNL     1       5.640   4.379  14.292  0.00  0.00    +0.000 A 
ATOM      6  C   UNL     1       5.057   3.633  13.263  0.00  0.00    +0.000 A 
ATOM      7  C   UNL     1       5.780   3.357  12.100  0.00  0.00    +0.000 A 
ATOM      8  C   UNL     1       7.079   3.841  11.953  0.00  0.00    +0.000 A 
ATOM      9  C   UNL     1       7.663   4.593  12.972  0.00  0.00    +0.000 A 
ATOM     10  C   UNL     1       6.952   4.844  14.145  0.00  0.00    +0.000 A 
ATOM     11  O   UNL     1       7.582   5.596  15.100  0.00  0.00    +0.000 OA
ATOM     12  C   UNL     1       7.065   5.460  16.435  0.00  0.00    +0.000 C 
ENDBRANCH   2   3
BRANCH   1  14
ATOM     13  O   UNL     1       3.140   5.103  20.345  0.00  0.00    +0.000 OA
ATOM     14  C   UNL     1       3.036   5.769  19.323  0.00  0.00    +0.000 C 
BRANCH  14  15
ATOM     15  C   UNL     1       2.333   7.077  19.342  0.00  0.00    +0.000 A 
ATOM     16  C   UNL     1       2.309   7.842  18.168  0.00  0.00    +0.000 A 
ATOM     17  C   UNL     1       1.675   9.086  18.155  0.00  0.00    +0.000 A 
ATOM     18  C   UNL     1       1.080   9.563  19.318  0.00  0.00    +0.000 A 
ATOM     19  F   UNL     1       0.483  10.762  19.309  0.00  0.00    +0.000 F 
ATOM     20  C   UNL     1       1.104   8.822  20.494  0.00  0.00    +0.000 A 
ATOM     21  C   UNL     1       1.732   7.573  20.510  0.00  0.00    +0.000 A 
ENDBRANCH  14  15
ENDBRANCH   1  14
TORSDOF 3
ENDMDL
MODEL 5
REMARK VINA RESULT:      -7.8      5.869      7.932
REMARK  Name = 
REMARK  3 active torsions:
REMARK  status: ('A' for Active; 'I' for Inactive)
REMARK    1  A    between atoms: C_2  and  C_3
REMARK    2  A    between atoms: C_2  and  C_15
REMARK    3  A    between atoms: C_4  and  C_5
REMARK                            x       y       z     vdW  Elec       q    Type
REMARK                         _______ _______ _______ _____ _____    ______ ____
ROOT
ATOM      1  C   UNL     1       7.981   7.850  18.018  0.00  0.00    +0.000 C 
ATOM      2  C   UNL     1       7.951   9.131  17.622  0.00  0.00    +0.000 C 
ENDROOT
BRANCH   2   3
ATOM      3  C   UNL     1       8.684  10.180  18.301  0.00  0.00    +0.000 C 
ATOM      4  C   UNL     1       8.869  11.393  17.759  0.00  0.00    +0.000 C 
ATOM      5  C   UNL     1       9.641  12.365  18.524  0.00  0.00    +0.000 A 
ATOM      6  C   UNL     1      10.067  13.565  17.946  0.00  0.00    +0.000 A 
ATOM      7  C   UNL     1      10.778  14.496  18.705  0.00  0.00    +0.000 A 
ATOM      8  C   UNL     1      11.050  14.241  20.049  0.00  0.00    +0.000 A 
ATOM      9  C   UNL     1      10.621  13.050  20.633  0.00  0.00    +0.000 A 
ATOM     10  C   UNL     1       9.935  12.108  19.868  0.00  0.00    +0.000 A 
ATOM     11  O   UNL     1       9.536  10.965  20.508  0.00  0.00    +0.000 OA
ATOM     12  C   UNL     1       9.266   9.840  19.654  0.00  0.00    +0.000 C 
ENDBRANCH   2   3
BRANCH   1  14
ATOM     13  O   UNL     1       7.695   6.338  16.205  0.00  0.00    +0.000 OA
ATOM     14  C   UNL     1       7.251   6.811  17.243  0.00  0.00    +0.000 C 
BRANCH  14  15
ATOM     15  C   UNL     1       5.965   6.322  17.805  0.00  0.00    +0.000 A 
ATOM     16  C   UNL     1       4.769   6.836  17.286  0.00  0.00    +0.000 A 
ATOM     17  C   UNL     1       3.543   6.415  17.804  0.00  0.00    +0.000 A 
ATOM     18  C   UNL     1       3.519   5.494  18.845  0.00  0.00    +0.000 A 
ATOM     19  F   UNL     1       2.343   5.100  19.351  0.00  0.00    +0.000 F 
ATOM     20  C   UNL     1       4.697   4.982  19.379  0.00  0.00    +0.000 A 
ATOM     21  C   UNL     1       5.927   5.396  18.859  0.00  0.00    +0.000 A 
ENDBRANCH  14  15
ENDBRANCH   1  14
TORSDOF 3
ENDMDL
MODEL 6
REMARK VINA RESULT:      -7.7      5.747      7.726
REMARK  Name = 
REMARK  3 active torsions:
REMARK  status: ('A' for Active; 'I' for Inactive)
REMARK    1  A    between atoms: C_2  and  C_3
REMARK    2  A    between atoms: C_2  and  C_15
REMARK    3  A    between atoms: C_4  and  C_5
REMARK                            x       y       z     vdW  Elec       q    Type
REMARK                         _______ _______ _______ _____ _____    ______ ____
ROOT
ATOM      1  C   UNL     1       7.939   7.697  18.022  0.00  0.00    +0.000 C 
ATOM      2  C   UNL     1       7.888   8.989  17.665  0.00  0.00    +0.000 C 
ENDROOT
BRANCH   2   3
ATOM      3  C   UNL     1       8.686  10.014  18.306  0.00  0.00    +0.000 C 
ATOM      4  C   UNL     1       9.052  11.140  17.675  0.00  0.00    +0.000 C 
ATOM      5  C   UNL     1       9.874  12.092  18.412  0.00  0.00    +0.000 A 
ATOM      6  C   UNL     1      10.478  13.175  17.766  0.00  0.00    +0.000 A 
ATOM      7  C   UNL     1      11.236  14.093  18.496  0.00  0.00    +0.000 A 
ATOM      8  C   UNL     1      11.377  13.944  19.875  0.00  0.00    +0.000 A 
ATOM      9  C   UNL     1      10.769  12.871  20.526  0.00  0.00    +0.000 A 
ATOM     10  C   UNL     1      10.036  11.938  19.794  0.00  0.00    +0.000 A 
ATOM     11  O   UNL     1       9.460  10.915  20.498  0.00  0.00    +0.000 OA
ATOM     12  C   UNL     1       9.124   9.747  19.729  0.00  0.00    +0.000 C 
ENDBRANCH   2   3
BRANCH   1  14
ATOM     13  O   UNL     1       7.555   6.121  16.284  0.00  0.00    +0.000 OA
ATOM     14  C   UNL     1       7.135   6.685  17.286  0.00  0.00    +0.000 C 
BRANCH  14  15
ATOM     15  C   UNL     1       5.802   6.340  17.843  0.00  0.00    +0.000 A 
ATOM     16  C   UNL     1       5.736   5.423  18.901  0.00  0.00    +0.000 A 
ATOM     17  C   UNL     1       4.499   5.059  19.436  0.00  0.00    +0.000 A 
ATOM     18  C   UNL     1       3.335   5.602  18.903  0.00  0.00    +0.000 A 
ATOM     19  F   UNL     1       2.147   5.243  19.407  0.00  0.00    +0.000 F 
ATOM     20  C   UNL     1       3.383   6.505  17.846  0.00  0.00    +0.000 A 
ATOM     21  C   UNL     1       4.619   6.878  17.311  0.00  0.00    +0.000 A 
ENDBRANCH  14  15
ENDBRANCH   1  14
TORSDOF 3
ENDMDL
MODEL 7
REMARK VINA RESULT:      -7.7      2.915      4.561
REMARK  Name = 
REMARK  3 active torsions:
REMARK  status: ('A' for Active; 'I' for Inactive)
REMARK    1  A    between atoms: C_2  and  C_3
REMARK    2  A    between atoms: C_2  and  C_15
REMARK    3  A    between atoms: C_4  and  C_5
REMARK                            x       y       z     vdW  Elec       q    Type
REMARK                         _______ _______ _______ _____ _____    ______ ____
ROOT
ATOM      1  C   UNL     1       1.358   9.053  18.085  0.00  0.00    +0.000 C 
ATOM      2  C   UNL     1       2.072   8.161  18.787  0.00  0.00    +0.000 C 
ENDROOT
BRANCH   2   3
ATOM      3  C   UNL     1       2.817   7.086  18.164  0.00  0.00    +0.000 C 
ATOM      4  C   UNL     1       3.856   7.311  17.347  0.00  0.00    +0.000 C 
ATOM      5  C   UNL     1       4.518   6.152  16.760  0.00  0.00    +0.000 A 
ATOM      6  C   UNL     1       5.457   6.300  15.734  0.00  0.00    +0.000 A 
ATOM      7  C   UNL     1       6.103   5.180  15.207  0.00  0.00    +0.000 A 
ATOM      8  C   UNL     1       5.827   3.911  15.715  0.00  0.00    +0.000 A 
ATOM      9  C   UNL     1       4.898   3.758  16.743  0.00  0.00    +0.000 A 
ATOM     10  C   UNL     1       4.232   4.873  17.250  0.00  0.00    +0.000 A 
ATOM     11  O   UNL     1       3.340   4.651  18.264  0.00  0.00    +0.000 OA
ATOM     12  C   UNL     1       2.350   5.677  18.453  0.00  0.00    +0.000 C 
ENDBRANCH   2   3
BRANCH   1  14
ATOM     13  O   UNL     1       1.214  10.853  19.632  0.00  0.00    +0.000 OA
ATOM     14  C   UNL     1       0.661  10.168  18.781  0.00  0.00    +0.000 C 
BRANCH  14  15
ATOM     15  C   UNL     1      -0.736  10.460  18.368  0.00  0.00    +0.000 A 
ATOM     16  C   UNL     1      -1.454  11.433  19.077  0.00  0.00    +0.000 A 
ATOM     17  C   UNL     1      -2.776  11.719  18.731  0.00  0.00    +0.000 A 
ATOM     18  C   UNL     1      -3.376  11.023  17.687  0.00  0.00    +0.000 A 
ATOM     19  F   UNL     1      -4.649  11.288  17.363  0.00  0.00    +0.000 F 
ATOM     20  C   UNL     1      -2.681  10.047  16.981  0.00  0.00    +0.000 A 
ATOM     21  C   UNL     1      -1.356   9.762  17.320  0.00  0.00    +0.000 A 
ENDBRANCH  14  15
ENDBRANCH   1  14
TORSDOF 3
ENDMDL
MODEL 8
REMARK VINA RESULT:      -7.7      4.041      8.431
REMARK  Name = 
REMARK  3 active torsions:
REMARK  status: ('A' for Active; 'I' for Inactive)
REMARK    1  A    between atoms: C_2  and  C_3
REMARK    2  A    between atoms: C_2  and  C_15
REMARK    3  A    between atoms: C_4  and  C_5
REMARK                            x       y       z     vdW  Elec       q    Type
REMARK                         _______ _______ _______ _____ _____    ______ ____
ROOT
ATOM      1  C   UNL     1       5.588   4.994  15.076  0.00  0.00    +0.000 C 
ATOM      2  C   UNL     1       5.799   4.482  16.298  0.00  0.00    +0.000 C 
ENDROOT
BRANCH   2   3
ATOM      3  C   UNL     1       4.798   4.512  17.346  0.00  0.00    +0.000 C 
ATOM      4  C   UNL     1       3.797   3.621  17.408  0.00  0.00    +0.000 C 
ATOM      5  C   UNL     1       2.835   3.761  18.495  0.00  0.00    +0.000 A 
ATOM      6  C   UNL     1       1.649   3.021  18.508  0.00  0.00    +0.000 A 
ATOM      7  C   UNL     1       0.755   3.146  19.574  0.00  0.00    +0.000 A 
ATOM      8  C   UNL     1       1.053   3.996  20.639  0.00  0.00    +0.000 A 
ATOM      9  C   UNL     1       2.239   4.730  20.636  0.00  0.00    +0.000 A 
ATOM     10  C   UNL     1       3.117   4.627  19.558  0.00  0.00    +0.000 A 
ATOM     11  O   UNL     1       4.265   5.369  19.625  0.00  0.00    +0.000 OA
ATOM     12  C   UNL     1       4.912   5.622  18.365  0.00  0.00    +0.000 C 
ENDBRANCH   2   3
BRANCH   1  14
ATOM     13  O   UNL     1       7.634   5.592  14.021  0.00  0.00    +0.000 OA
ATOM     14  C   UNL     1       6.637   4.880  14.027  0.00  0.00    +0.000 C 
BRANCH  14  15
ATOM     15  C   UNL     1       6.457   3.825  12.998  0.00  0.00    +0.000 A 
ATOM     16  C   UNL     1       7.592   3.338  12.333  0.00  0.00    +0.000 A 
ATOM     17  C   UNL     1       7.458   2.362  11.344  0.00  0.00    +0.000 A 
ATOM     18  C   UNL     1       6.193   1.886  11.017  0.00  0.00    +0.000 A 
ATOM     19  F   UNL     1       6.064   0.958  10.059  0.00  0.00    +0.000 F 
ATOM     20  C   UNL     1       5.057   2.367  11.659  0.00  0.00    +0.000 A 
ATOM     21  C   UNL     1       5.186   3.340  12.654  0.00  0.00    +0.000 A 
ENDBRANCH  14  15
ENDBRANCH   1  14
TORSDOF 3
ENDMDL
MODEL 9
REMARK VINA RESULT:      -7.7      3.097      8.141
REMARK  Name = 
REMARK  3 active torsions:
REMARK  status: ('A' for Active; 'I' for Inactive)
REMARK    1  A    between atoms: C_2  and  C_3
REMARK    2  A    between atoms: C_2  and  C_15
REMARK    3  A    between atoms: C_4  and  C_5
REMARK                            x       y       z     vdW  Elec       q    Type
REMARK                         _______ _______ _______ _____ _____    ______ ____
ROOT
ATOM      1  C   UNL     1       3.658   5.453  19.437  0.00  0.00    +0.000 C 
ATOM      2  C   UNL     1       3.123   6.331  18.575  0.00  0.00    +0.000 C 
ENDROOT
BRANCH   2   3
ATOM      3  C   UNL     1       2.326   7.463  19.000  0.00  0.00    +0.000 C 
ATOM      4  C   UNL     1       1.887   7.601  20.260  0.00  0.00    +0.000 C 
ATOM      5  C   UNL     1       1.074   8.771  20.569  0.00  0.00    +0.000 A 
ATOM      6  C   UNL     1       0.398   8.877  21.789  0.00  0.00    +0.000 A 
ATOM      7  C   UNL     1      -0.350  10.020  22.078  0.00  0.00    +0.000 A 
ATOM      8  C   UNL     1      -0.410  11.068  21.160  0.00  0.00    +0.000 A 
ATOM      9  C   UNL     1       0.270  10.971  19.946  0.00  0.00    +0.000 A 
ATOM     10  C   UNL     1       0.993   9.818  19.645  0.00  0.00    +0.000 A 
ATOM     11  O   UNL     1       1.642   9.794  18.440  0.00  0.00    +0.000 OA
ATOM     12  C   UNL     1       1.976   8.487  17.943  0.00  0.00    +0.000 C 
ENDBRANCH   2   3
BRANCH   1  14
ATOM     13  O   UNL     1       4.557   3.252  19.493  0.00  0.00    +0.000 OA
ATOM     14  C   UNL     1       4.514   4.343  18.939  0.00  0.00    +0.000 C 
BRANCH  14  15
ATOM     15  C   UNL     1       5.291   4.589  17.697  0.00  0.00    +0.000 A 
ATOM     16  C   UNL     1       4.901   3.931  16.522  0.00  0.00    +0.000 A 
ATOM     17  C   UNL     1       5.620   4.121  15.341  0.00  0.00    +0.000 A 
ATOM     18  C   UNL     1       6.732   4.957  15.343  0.00  0.00    +0.000 A 
ATOM     19  F   UNL     1       7.430   5.130  14.213  0.00  0.00    +0.000 F 
ATOM     20  C   UNL     1       7.139   5.608  16.503  0.00  0.00    +0.000 A 
ATOM     21  C   UNL     1       6.418   5.426  17.686  0.00  0.00    +0.000 A 
ENDBRANCH  14  15
ENDBRANCH   1  14
TORSDOF 3
ENDMDL
