MODEL 1
REMARK VINA RESULT:      -7.6      0.000      0.000
REMARK  Name = 
REMARK  11 active torsions:
REMARK  status: ('A' for Active; 'I' for Inactive)
REMARK    1  A    between atoms: C_1  and  O_2
REMARK    2  A    between atoms: O_2  and  C_3
REMARK    3  A    between atoms: C_5  and  N_6
REMARK    4  A    between atoms: N_6  and  C_7
REMARK    5  A    between atoms: C_7  and  C_8
REMARK    6  A    between atoms: C_7  and  C_9
REMARK    7  A    between atoms: C_9  and  C_10
REMARK    8  A    between atoms: C_10  and  C_11
REMARK    9  A    between atoms: C_11  and  N_12
REMARK   10  A    between atoms: N_15  and  C_16
REMARK   11  A    between atoms: C_19  and  C_20
REMARK                            x       y       z     vdW  Elec       q    Type
REMARK                         _______ _______ _______ _____ _____    ______ ____
ROOT
ATOM      1  C   UNL     1       2.169   1.966  20.309  0.00  0.00    +0.000 C 
ENDROOT
BRANCH   1   2
ATOM      2  C   UNL     1       1.550   2.441  18.984  0.00  0.00    +0.000 C 
BRANCH   2   3
ATOM      3  C   UNL     1       2.531   2.404  17.801  0.00  0.00    +0.000 C 
ATOM      4  C   UNL     1       3.672   1.423  18.049  0.00  0.00    +0.000 C 
BRANCH   3   5
ATOM      5  N   UNL     1       3.035   3.749  17.559  0.00  0.00    +0.000 N 
ATOM      6  H   UNL     1       2.758   4.492  18.204  0.00  0.00    +0.000 HD
BRANCH   5   9
ATOM      7  C   UNL     1       5.437   4.299  14.769  0.00  0.00    +0.000 A 
ATOM      8  C   UNL     1       4.298   3.924  15.474  0.00  0.00    +0.000 A 
ATOM      9  C   UNL     1       4.214   4.064  16.868  0.00  0.00    +0.000 A 
ATOM     10  C   UNL     1       5.298   4.638  17.577  0.00  0.00    +0.000 A 
ATOM     11  N   UNL     1       5.223   4.840  18.915  0.00  0.00    +0.000 NA
ATOM     12  C   UNL     1       6.275   5.411  19.544  0.00  0.00    +0.000 A 
ATOM     13  C   UNL     1       7.440   5.792  18.909  0.00  0.00    +0.000 A 
ATOM     14  C   UNL     1       7.534   5.574  17.543  0.00  0.00    +0.000 A 
ATOM     15  C   UNL     1       6.457   5.001  16.851  0.00  0.00    +0.000 A 
ATOM     16  C   UNL     1       6.526   4.807  15.464  0.00  0.00    +0.000 A 
BRANCH   7  18
ATOM     17  C   UNL     1       6.914   3.883  12.971  0.00  0.00    +0.000 C 
ATOM     18  O   UNL     1       5.592   4.178  13.416  0.00  0.00    +0.000 OA
ENDBRANCH   7  18
ENDBRANCH   5   9
ENDBRANCH   3   5
ENDBRANCH   2   3
ENDBRANCH   1   2
BRANCH   1  19
ATOM     19  C   UNL     1       2.165   3.048  21.391  0.00  0.00    +0.000 C 
BRANCH  19  20
ATOM     20  N   UNL     1       2.727   4.302  20.931  0.00  0.00    +0.000 N 
ATOM     21  C   UNL     1       1.890   5.350  20.634  0.00  0.00    +0.000 C 
ATOM     22  O   UNL     1       0.670   5.245  20.733  0.00  0.00    +0.000 OA
ATOM     23  N   UNL     1       2.576   6.458  20.189  0.00  0.00    +0.000 N 
ATOM     24  H   UNL     1       3.675   4.515  21.205  0.00  0.00    +0.000 HD
ATOM     25  H   UNL     1       3.518   6.289  19.863  0.00  0.00    +0.000 HD
BRANCH  23  26
ATOM     26  C   UNL     1       1.994   7.705  19.872  0.00  0.00    +0.000 A 
ATOM     27  C   UNL     1       1.298   8.463  20.816  0.00  0.00    +0.000 A 
ATOM     28  C   UNL     1       0.712   9.682  20.470  0.00  0.00    +0.000 A 
ATOM     29  C   UNL     1       0.821  10.179  19.169  0.00  0.00    +0.000 A 
ATOM     30  C   UNL     1       1.535   9.427  18.221  0.00  0.00    +0.000 A 
ATOM     31  C   UNL     1       2.125   8.203  18.573  0.00  0.00    +0.000 A 
BRANCH  29  32
ATOM     32  C   UNL     1       0.196  11.501  18.800  0.00  0.00    +0.000 C 
ATOM     33  F   UNL     1      -0.789  11.396  17.863  0.00  0.00    +0.000 F 
ATOM     34  F   UNL     1      -0.376  12.122  19.870  0.00  0.00    +0.000 F 
ATOM     35  F   UNL     1       1.098  12.386  18.293  0.00  0.00    +0.000 F 
ENDBRANCH  29  32
ENDBRANCH  23  26
ENDBRANCH  19  20
ENDBRANCH   1  19
TORSDOF 9
ENDMDL
MODEL 2
REMARK VINA RESULT:      -7.4      0.363      1.150
REMARK  Name = 
REMARK  11 active torsions:
REMARK  status: ('A' for Active; 'I' for Inactive)
REMARK    1  A    between atoms: C_1  and  O_2
REMARK    2  A    between atoms: O_2  and  C_3
REMARK    3  A    between atoms: C_5  and  N_6
REMARK    4  A    between atoms: N_6  and  C_7
REMARK    5  A    between atoms: C_7  and  C_8
REMARK    6  A    between atoms: C_7  and  C_9
REMARK    7  A    between atoms: C_9  and  C_10
REMARK    8  A    between atoms: C_10  and  C_11
REMARK    9  A    between atoms: C_11  and  N_12
REMARK   10  A    between atoms: N_15  and  C_16
REMARK   11  A    between atoms: C_19  and  C_20
REMARK                            x       y       z     vdW  Elec       q    Type
REMARK                         _______ _______ _______ _____ _____    ______ ____
ROOT
ATOM      1  C   UNL     1       1.974   1.948  20.198  0.00  0.00    +0.000 C 
ENDROOT
BRANCH   1   2
ATOM      2  C   UNL     1       1.551   2.471  18.814  0.00  0.00    +0.000 C 
BRANCH   2   3
ATOM      3  C   UNL     1       2.664   2.377  17.758  0.00  0.00    +0.000 C 
ATOM      4  C   UNL     1       3.739   1.374  18.163  0.00  0.00    +0.000 C 
BRANCH   3   5
ATOM      5  N   UNL     1       3.231   3.701  17.546  0.00  0.00    +0.000 N 
ATOM      6  H   UNL     1       2.963   4.450  18.188  0.00  0.00    +0.000 HD
BRANCH   5   9
ATOM      7  C   UNL     1       5.774   4.082  14.854  0.00  0.00    +0.000 A 
ATOM      8  C   UNL     1       4.598   3.752  15.521  0.00  0.00    +0.000 A 
ATOM      9  C   UNL     1       4.445   3.971  16.898  0.00  0.00    +0.000 A 
ATOM     10  C   UNL     1       5.496   4.582  17.627  0.00  0.00    +0.000 A 
ATOM     11  N   UNL     1       5.354   4.860  18.946  0.00  0.00    +0.000 NA
ATOM     12  C   UNL     1       6.378   5.464  19.594  0.00  0.00    +0.000 A 
ATOM     13  C   UNL     1       7.576   5.803  18.998  0.00  0.00    +0.000 A 
ATOM     14  C   UNL     1       7.737   5.507  17.653  0.00  0.00    +0.000 A 
ATOM     15  C   UNL     1       6.692   4.898  16.941  0.00  0.00    +0.000 A 
ATOM     16  C   UNL     1       6.829   4.625  15.573  0.00  0.00    +0.000 A 
BRANCH   7  18
ATOM     17  C   UNL     1       7.117   4.572  12.972  0.00  0.00    +0.000 C 
ATOM     18  O   UNL     1       5.995   3.882  13.519  0.00  0.00    +0.000 OA
ENDBRANCH   7  18
ENDBRANCH   5   9
ENDBRANCH   3   5
ENDBRANCH   2   3
ENDBRANCH   1   2
BRANCH   1  19
ATOM     19  C   UNL     1       1.651   2.927  21.329  0.00  0.00    +0.000 C 
BRANCH  19  20
ATOM     20  N   UNL     1       2.304   4.210  21.162  0.00  0.00    +0.000 N 
ATOM     21  C   UNL     1       1.580   5.284  20.705  0.00  0.00    +0.000 C 
ATOM     22  O   UNL     1       0.391   5.179  20.415  0.00  0.00    +0.000 OA
ATOM     23  N   UNL     1       2.350   6.419  20.579  0.00  0.00    +0.000 N 
ATOM     24  H   UNL     1       3.118   4.395  21.730  0.00  0.00    +0.000 HD
ATOM     25  H   UNL     1       3.348   6.271  20.546  0.00  0.00    +0.000 HD
BRANCH  23  26
ATOM     26  C   UNL     1       1.870   7.691  20.195  0.00  0.00    +0.000 A 
ATOM     27  C   UNL     1       1.931   8.143  18.876  0.00  0.00    +0.000 A 
ATOM     28  C   UNL     1       1.472   9.414  18.527  0.00  0.00    +0.000 A 
ATOM     29  C   UNL     1       0.923  10.260  19.494  0.00  0.00    +0.000 A 
ATOM     30  C   UNL     1       0.843   9.803  20.820  0.00  0.00    +0.000 A 
ATOM     31  C   UNL     1       1.305   8.523  21.166  0.00  0.00    +0.000 A 
BRANCH  29  32
ATOM     32  C   UNL     1       0.416  11.629  19.113  0.00  0.00    +0.000 C 
ATOM     33  F   UNL     1       1.406  12.498  18.759  0.00  0.00    +0.000 F 
ATOM     34  F   UNL     1      -0.439  11.590  18.054  0.00  0.00    +0.000 F 
ATOM     35  F   UNL     1      -0.266  12.236  20.123  0.00  0.00    +0.000 F 
ENDBRANCH  29  32
ENDBRANCH  23  26
ENDBRANCH  19  20
ENDBRANCH   1  19
TORSDOF 9
ENDMDL
MODEL 3
REMARK VINA RESULT:      -7.4      4.834      9.440
REMARK  Name = 
REMARK  11 active torsions:
REMARK  status: ('A' for Active; 'I' for Inactive)
REMARK    1  A    between atoms: C_1  and  O_2
REMARK    2  A    between atoms: O_2  and  C_3
REMARK    3  A    between atoms: C_5  and  N_6
REMARK    4  A    between atoms: N_6  and  C_7
REMARK    5  A    between atoms: C_7  and  C_8
REMARK    6  A    between atoms: C_7  and  C_9
REMARK    7  A    between atoms: C_9  and  C_10
REMARK    8  A    between atoms: C_10  and  C_11
REMARK    9  A    between atoms: C_11  and  N_12
REMARK   10  A    between atoms: N_15  and  C_16
REMARK   11  A    between atoms: C_19  and  C_20
REMARK                            x       y       z     vdW  Elec       q    Type
REMARK                         _______ _______ _______ _____ _____    ______ ____
ROOT
ATOM      1  C   UNL     1      -1.210  11.388  22.415  0.00  0.00    +0.000 C 
ENDROOT
BRANCH   1   2
ATOM      2  C   UNL     1      -0.134  11.988  21.495  0.00  0.00    +0.000 C 
BRANCH   2   3
ATOM      3  C   UNL     1      -0.245  11.522  20.034  0.00  0.00    +0.000 C 
ATOM      4  C   UNL     1       1.107  11.553  19.331  0.00  0.00    +0.000 C 
BRANCH   3   5
ATOM      5  N   UNL     1      -1.219  12.354  19.343  0.00  0.00    +0.000 N 
ATOM      6  H   UNL     1      -0.978  13.330  19.159  0.00  0.00    +0.000 HD
BRANCH   5   9
ATOM      7  C   UNL     1      -2.879  10.707  16.446  0.00  0.00    +0.000 A 
ATOM      8  C   UNL     1      -1.898  11.236  17.278  0.00  0.00    +0.000 A 
ATOM      9  C   UNL     1      -2.220  11.886  18.478  0.00  0.00    +0.000 A 
ATOM     10  C   UNL     1      -3.577  11.973  18.880  0.00  0.00    +0.000 A 
ATOM     11  N   UNL     1      -3.914  12.543  20.063  0.00  0.00    +0.000 NA
ATOM     12  C   UNL     1      -5.220  12.583  20.413  0.00  0.00    +0.000 A 
ATOM     13  C   UNL     1      -6.245  12.092  19.630  0.00  0.00    +0.000 A 
ATOM     14  C   UNL     1      -5.911  11.523  18.410  0.00  0.00    +0.000 A 
ATOM     15  C   UNL     1      -4.566  11.445  18.019  0.00  0.00    +0.000 A 
ATOM     16  C   UNL     1      -4.213  10.841  16.804  0.00  0.00    +0.000 A 
BRANCH   7  18
ATOM     17  C   UNL     1      -3.656  10.208  14.270  0.00  0.00    +0.000 C 
ATOM     18  O   UNL     1      -2.636  10.074  15.258  0.00  0.00    +0.000 OA
ENDBRANCH   7  18
ENDBRANCH   5   9
ENDBRANCH   3   5
ENDBRANCH   2   3
ENDBRANCH   1   2
BRANCH   1  19
ATOM     19  C   UNL     1      -0.702  10.194  23.227  0.00  0.00    +0.000 C 
BRANCH  19  20
ATOM     20  N   UNL     1       0.514   9.623  22.681  0.00  0.00    +0.000 N 
ATOM     21  C   UNL     1       0.435   8.538  21.843  0.00  0.00    +0.000 C 
ATOM     22  O   UNL     1      -0.645   8.026  21.557  0.00  0.00    +0.000 OA
ATOM     23  N   UNL     1       1.675   8.103  21.432  0.00  0.00    +0.000 N 
ATOM     24  H   UNL     1       1.315  10.231  22.596  0.00  0.00    +0.000 HD
ATOM     25  H   UNL     1       2.457   8.412  21.993  0.00  0.00    +0.000 HD
BRANCH  23  26
ATOM     26  C   UNL     1       1.908   7.051  20.518  0.00  0.00    +0.000 A 
ATOM     27  C   UNL     1       2.333   7.284  19.208  0.00  0.00    +0.000 A 
ATOM     28  C   UNL     1       2.533   6.228  18.318  0.00  0.00    +0.000 A 
ATOM     29  C   UNL     1       2.328   4.908  18.724  0.00  0.00    +0.000 A 
ATOM     30  C   UNL     1       1.918   4.668  20.046  0.00  0.00    +0.000 A 
ATOM     31  C   UNL     1       1.718   5.732  20.939  0.00  0.00    +0.000 A 
BRANCH  29  32
ATOM     32  C   UNL     1       2.556   3.767  17.764  0.00  0.00    +0.000 C 
ATOM     33  F   UNL     1       3.783   3.794  17.169  0.00  0.00    +0.000 F 
ATOM     34  F   UNL     1       2.465   2.551  18.370  0.00  0.00    +0.000 F 
ATOM     35  F   UNL     1       1.651   3.747  16.746  0.00  0.00    +0.000 F 
ENDBRANCH  29  32
ENDBRANCH  23  26
ENDBRANCH  19  20
ENDBRANCH   1  19
TORSDOF 9
ENDMDL
MODEL 4
REMARK VINA RESULT:      -7.4      5.103      7.695
REMARK  Name = 
REMARK  11 active torsions:
REMARK  status: ('A' for Active; 'I' for Inactive)
REMARK    1  A    between atoms: C_1  and  O_2
REMARK    2  A    between atoms: O_2  and  C_3
REMARK    3  A    between atoms: C_5  and  N_6
REMARK    4  A    between atoms: N_6  and  C_7
REMARK    5  A    between atoms: C_7  and  C_8
REMARK    6  A    between atoms: C_7  and  C_9
REMARK    7  A    between atoms: C_9  and  C_10
REMARK    8  A    between atoms: C_10  and  C_11
REMARK    9  A    between atoms: C_11  and  N_12
REMARK   10  A    between atoms: N_15  and  C_16
REMARK   11  A    between atoms: C_19  and  C_20
REMARK                            x       y       z     vdW  Elec       q    Type
REMARK                         _______ _______ _______ _____ _____    ______ ____
ROOT
ATOM      1  C   UNL     1       7.393   6.625  16.874  0.00  0.00    +0.000 C 
ENDROOT
BRANCH   1   2
ATOM      2  C   UNL     1       5.984   6.310  16.344  0.00  0.00    +0.000 C 
BRANCH   2   3
ATOM      3  C   UNL     1       5.336   5.088  17.015  0.00  0.00    +0.000 C 
ATOM      4  C   UNL     1       5.665   3.799  16.269  0.00  0.00    +0.000 C 
BRANCH   3   5
ATOM      5  N   UNL     1       3.898   5.298  17.096  0.00  0.00    +0.000 N 
ATOM      6  H   UNL     1       3.306   4.877  16.377  0.00  0.00    +0.000 HD
BRANCH   5   9
ATOM      7  C   UNL     1       2.120   7.187  19.767  0.00  0.00    +0.000 A 
ATOM      8  C   UNL     1       2.888   6.899  18.643  0.00  0.00    +0.000 A 
ATOM      9  C   UNL     1       3.182   5.579  18.270  0.00  0.00    +0.000 A 
ATOM     10  C   UNL     1       2.653   4.506  19.029  0.00  0.00    +0.000 A 
ATOM     11  N   UNL     1       2.871   3.220  18.659  0.00  0.00    +0.000 NA
ATOM     12  C   UNL     1       2.326   2.230  19.403  0.00  0.00    +0.000 A 
ATOM     13  C   UNL     1       1.568   2.445  20.537  0.00  0.00    +0.000 A 
ATOM     14  C   UNL     1       1.354   3.756  20.934  0.00  0.00    +0.000 A 
ATOM     15  C   UNL     1       1.886   4.811  20.178  0.00  0.00    +0.000 A 
ATOM     16  C   UNL     1       1.648   6.142  20.549  0.00  0.00    +0.000 A 
BRANCH   7  18
ATOM     17  C   UNL     1       1.198   8.527  21.482  0.00  0.00    +0.000 C 
ATOM     18  O   UNL     1       1.807   8.447  20.196  0.00  0.00    +0.000 OA
ENDBRANCH   7  18
ENDBRANCH   5   9
ENDBRANCH   3   5
ENDBRANCH   2   3
ENDBRANCH   1   2
BRANCH   1  19
ATOM     19  C   UNL     1       7.498   6.508  18.396  0.00  0.00    +0.000 C 
BRANCH  19  20
ATOM     20  N   UNL     1       8.461   7.431  18.963  0.00  0.00    +0.000 N 
ATOM     21  C   UNL     1       8.434   8.752  18.587  0.00  0.00    +0.000 C 
ATOM     22  O   UNL     1       7.622   9.168  17.764  0.00  0.00    +0.000 OA
ATOM     23  N   UNL     1       9.425   9.490  19.195  0.00  0.00    +0.000 N 
ATOM     24  H   UNL     1       8.846   7.204  19.868  0.00  0.00    +0.000 HD
ATOM     25  H   UNL     1      10.192   8.959  19.582  0.00  0.00    +0.000 HD
BRANCH  23  26
ATOM     26  C   UNL     1       9.606  10.883  19.055  0.00  0.00    +0.000 A 
ATOM     27  C   UNL     1       9.337  11.777  20.094  0.00  0.00    +0.000 A 
ATOM     28  C   UNL     1       9.502  13.152  19.922  0.00  0.00    +0.000 A 
ATOM     29  C   UNL     1       9.956  13.666  18.705  0.00  0.00    +0.000 A 
ATOM     30  C   UNL     1      10.244  12.770  17.663  0.00  0.00    +0.000 A 
ATOM     31  C   UNL     1      10.079  11.387  17.840  0.00  0.00    +0.000 A 
BRANCH  29  32
ATOM     32  C   UNL     1      10.144  15.152  18.525  0.00  0.00    +0.000 C 
ATOM     33  F   UNL     1       9.770  15.885  19.613  0.00  0.00    +0.000 F 
ATOM     34  F   UNL     1      11.443  15.486  18.284  0.00  0.00    +0.000 F 
ATOM     35  F   UNL     1       9.429  15.650  17.479  0.00  0.00    +0.000 F 
ENDBRANCH  29  32
ENDBRANCH  23  26
ENDBRANCH  19  20
ENDBRANCH   1  19
TORSDOF 9
ENDMDL
MODEL 5
REMARK VINA RESULT:      -7.4      7.180      9.803
REMARK  Name = 
REMARK  11 active torsions:
REMARK  status: ('A' for Active; 'I' for Inactive)
REMARK    1  A    between atoms: C_1  and  O_2
REMARK    2  A    between atoms: O_2  and  C_3
REMARK    3  A    between atoms: C_5  and  N_6
REMARK    4  A    between atoms: N_6  and  C_7
REMARK    5  A    between atoms: C_7  and  C_8
REMARK    6  A    between atoms: C_7  and  C_9
REMARK    7  A    between atoms: C_9  and  C_10
REMARK    8  A    between atoms: C_10  and  C_11
REMARK    9  A    between atoms: C_11  and  N_12
REMARK   10  A    between atoms: N_15  and  C_16
REMARK   11  A    between atoms: C_19  and  C_20
REMARK                            x       y       z     vdW  Elec       q    Type
REMARK                         _______ _______ _______ _____ _____    ______ ____
ROOT
ATOM      1  C   UNL     1       8.258   9.602  17.989  0.00  0.00    +0.000 C 
ENDROOT
BRANCH   1   2
ATOM      2  C   UNL     1       9.016   9.748  19.320  0.00  0.00    +0.000 C 
BRANCH   2   3
ATOM      3  C   UNL     1       9.565  11.164  19.560  0.00  0.00    +0.000 C 
ATOM      4  C   UNL     1      10.833  11.419  18.753  0.00  0.00    +0.000 C 
BRANCH   3   5
ATOM      5  N   UNL     1       9.801  11.345  20.985  0.00  0.00    +0.000 N 
ATOM      6  H   UNL     1      10.466  10.722  21.449  0.00  0.00    +0.000 HD
BRANCH   5   9
ATOM      7  C   UNL     1       9.967  14.950  21.903  0.00  0.00    +0.000 A 
ATOM      8  C   UNL     1      10.195  13.743  21.249  0.00  0.00    +0.000 A 
ATOM      9  C   UNL     1       9.621  12.543  21.693  0.00  0.00    +0.000 A 
ATOM     10  C   UNL     1       8.751  12.559  22.813  0.00  0.00    +0.000 A 
ATOM     11  N   UNL     1       8.136  11.426  23.228  0.00  0.00    +0.000 NA
ATOM     12  C   UNL     1       7.297  11.496  24.289  0.00  0.00    +0.000 A 
ATOM     13  C   UNL     1       7.038  12.655  24.992  0.00  0.00    +0.000 A 
ATOM     14  C   UNL     1       7.677  13.816  24.585  0.00  0.00    +0.000 A 
ATOM     15  C   UNL     1       8.539  13.789  23.479  0.00  0.00    +0.000 A 
ATOM     16  C   UNL     1       9.164  14.963  23.036  0.00  0.00    +0.000 A 
BRANCH   7  18
ATOM     17  C   UNL     1      11.303  16.799  22.522  0.00  0.00    +0.000 C 
ATOM     18  O   UNL     1      10.504  16.152  21.534  0.00  0.00    +0.000 OA
ENDBRANCH   7  18
ENDBRANCH   5   9
ENDBRANCH   3   5
ENDBRANCH   2   3
ENDBRANCH   1   2
BRANCH   1  19
ATOM     19  C   UNL     1       8.121   8.147  17.537  0.00  0.00    +0.000 C 
BRANCH  19  20
ATOM     20  N   UNL     1       6.764   7.802  17.164  0.00  0.00    +0.000 N 
ATOM     21  C   UNL     1       6.148   6.731  17.767  0.00  0.00    +0.000 C 
ATOM     22  O   UNL     1       6.729   6.045  18.604  0.00  0.00    +0.000 OA
ATOM     23  N   UNL     1       4.875   6.522  17.286  0.00  0.00    +0.000 N 
ATOM     24  H   UNL     1       6.181   8.540  16.798  0.00  0.00    +0.000 HD
ATOM     25  H   UNL     1       4.664   6.954  16.397  0.00  0.00    +0.000 HD
BRANCH  23  26
ATOM     26  C   UNL     1       3.976   5.541  17.759  0.00  0.00    +0.000 A 
ATOM     27  C   UNL     1       3.912   4.261  17.203  0.00  0.00    +0.000 A 
ATOM     28  C   UNL     1       2.998   3.317  17.674  0.00  0.00    +0.000 A 
ATOM     29  C   UNL     1       2.133   3.628  18.726  0.00  0.00    +0.000 A 
ATOM     30  C   UNL     1       2.207   4.908  19.300  0.00  0.00    +0.000 A 
ATOM     31  C   UNL     1       3.128   5.855  18.825  0.00  0.00    +0.000 A 
BRANCH  29  32
ATOM     32  C   UNL     1       1.154   2.602  19.241  0.00  0.00    +0.000 C 
ATOM     33  F   UNL     1       0.136   2.338  18.373  0.00  0.00    +0.000 F 
ATOM     34  F   UNL     1       1.745   1.401  19.495  0.00  0.00    +0.000 F 
ATOM     35  F   UNL     1       0.560   2.981  20.406  0.00  0.00    +0.000 F 
ENDBRANCH  29  32
ENDBRANCH  23  26
ENDBRANCH  19  20
ENDBRANCH   1  19
TORSDOF 9
ENDMDL
MODEL 6
REMARK VINA RESULT:      -7.4      1.929      2.547
REMARK  Name = 
REMARK  11 active torsions:
REMARK  status: ('A' for Active; 'I' for Inactive)
REMARK    1  A    between atoms: C_1  and  O_2
REMARK    2  A    between atoms: O_2  and  C_3
REMARK    3  A    between atoms: C_5  and  N_6
REMARK    4  A    between atoms: N_6  and  C_7
REMARK    5  A    between atoms: C_7  and  C_8
REMARK    6  A    between atoms: C_7  and  C_9
REMARK    7  A    between atoms: C_9  and  C_10
REMARK    8  A    between atoms: C_10  and  C_11
REMARK    9  A    between atoms: C_11  and  N_12
REMARK   10  A    between atoms: N_15  and  C_16
REMARK   11  A    between atoms: C_19  and  C_20
REMARK                            x       y       z     vdW  Elec       q    Type
REMARK                         _______ _______ _______ _____ _____    ______ ____
ROOT
ATOM      1  C   UNL     1       1.883   4.374  18.946  0.00  0.00    +0.000 C 
ENDROOT
BRANCH   1   2
ATOM      2  C   UNL     1       2.517   4.251  17.550  0.00  0.00    +0.000 C 
BRANCH   2   3
ATOM      3  C   UNL     1       2.999   2.829  17.219  0.00  0.00    +0.000 C 
ATOM      4  C   UNL     1       2.300   1.785  18.083  0.00  0.00    +0.000 C 
BRANCH   3   5
ATOM      5  N   UNL     1       4.444   2.768  17.383  0.00  0.00    +0.000 N 
ATOM      6  H   UNL     1       4.857   1.894  17.715  0.00  0.00    +0.000 HD
BRANCH   5   9
ATOM      7  C   UNL     1       6.350   4.345  14.600  0.00  0.00    +0.000 A 
ATOM      8  C   UNL     1       5.481   3.512  15.298  0.00  0.00    +0.000 A 
ATOM      9  C   UNL     1       5.374   3.562  16.696  0.00  0.00    +0.000 A 
ATOM     10  C   UNL     1       6.139   4.512  17.419  0.00  0.00    +0.000 A 
ATOM     11  N   UNL     1       6.013   4.623  18.764  0.00  0.00    +0.000 NA
ATOM     12  C   UNL     1       6.749   5.560  19.408  0.00  0.00    +0.000 A 
ATOM     13  C   UNL     1       7.640   6.406  18.780  0.00  0.00    +0.000 A 
ATOM     14  C   UNL     1       7.789   6.288  17.406  0.00  0.00    +0.000 A 
ATOM     15  C   UNL     1       7.031   5.342  16.700  0.00  0.00    +0.000 A 
ATOM     16  C   UNL     1       7.146   5.235  15.307  0.00  0.00    +0.000 A 
BRANCH   7  18
ATOM     17  C   UNL     1       5.722   3.391  12.531  0.00  0.00    +0.000 C 
ATOM     18  O   UNL     1       6.514   4.339  13.243  0.00  0.00    +0.000 OA
ENDBRANCH   7  18
ENDBRANCH   5   9
ENDBRANCH   3   5
ENDBRANCH   2   3
ENDBRANCH   1   2
BRANCH   1  19
ATOM     19  C   UNL     1       2.857   4.909  19.998  0.00  0.00    +0.000 C 
BRANCH  19  20
ATOM     20  N   UNL     1       2.844   6.355  20.088  0.00  0.00    +0.000 N 
ATOM     21  C   UNL     1       1.766   6.988  20.658  0.00  0.00    +0.000 C 
ATOM     22  O   UNL     1       0.800   6.356  21.079  0.00  0.00    +0.000 OA
ATOM     23  N   UNL     1       1.898   8.359  20.646  0.00  0.00    +0.000 N 
ATOM     24  H   UNL     1       3.736   6.828  20.107  0.00  0.00    +0.000 HD
ATOM     25  H   UNL     1       2.576   8.729  19.994  0.00  0.00    +0.000 HD
BRANCH  23  26
ATOM     26  C   UNL     1       0.984   9.271  21.218  0.00  0.00    +0.000 A 
ATOM     27  C   UNL     1       0.431   9.075  22.485  0.00  0.00    +0.000 A 
ATOM     28  C   UNL     1      -0.489   9.980  23.018  0.00  0.00    +0.000 A 
ATOM     29  C   UNL     1      -0.867  11.115  22.297  0.00  0.00    +0.000 A 
ATOM     30  C   UNL     1      -0.300  11.325  21.029  0.00  0.00    +0.000 A 
ATOM     31  C   UNL     1       0.626  10.414  20.497  0.00  0.00    +0.000 A 
BRANCH  29  32
ATOM     32  C   UNL     1      -1.852  12.098  22.879  0.00  0.00    +0.000 C 
ATOM     33  F   UNL     1      -2.782  11.519  23.693  0.00  0.00    +0.000 F 
ATOM     34  F   UNL     1      -1.246  13.057  23.633  0.00  0.00    +0.000 F 
ATOM     35  F   UNL     1      -2.558  12.763  21.924  0.00  0.00    +0.000 F 
ENDBRANCH  29  32
ENDBRANCH  23  26
ENDBRANCH  19  20
ENDBRANCH   1  19
TORSDOF 9
ENDMDL
MODEL 7
REMARK VINA RESULT:      -7.3      5.791      7.906
REMARK  Name = 
REMARK  11 active torsions:
REMARK  status: ('A' for Active; 'I' for Inactive)
REMARK    1  A    between atoms: C_1  and  O_2
REMARK    2  A    between atoms: O_2  and  C_3
REMARK    3  A    between atoms: C_5  and  N_6
REMARK    4  A    between atoms: N_6  and  C_7
REMARK    5  A    between atoms: C_7  and  C_8
REMARK    6  A    between atoms: C_7  and  C_9
REMARK    7  A    between atoms: C_9  and  C_10
REMARK    8  A    between atoms: C_10  and  C_11
REMARK    9  A    between atoms: C_11  and  N_12
REMARK   10  A    between atoms: N_15  and  C_16
REMARK   11  A    between atoms: C_19  and  C_20
REMARK                            x       y       z     vdW  Elec       q    Type
REMARK                         _______ _______ _______ _____ _____    ______ ____
ROOT
ATOM      1  C   UNL     1       7.766   6.355  17.886  0.00  0.00    +0.000 C 
ENDROOT
BRANCH   1   2
ATOM      2  C   UNL     1       7.476   5.627  16.562  0.00  0.00    +0.000 C 
BRANCH   2   3
ATOM      3  C   UNL     1       6.737   4.292  16.746  0.00  0.00    +0.000 C 
ATOM      4  C   UNL     1       5.846   3.975  15.550  0.00  0.00    +0.000 C 
BRANCH   3   5
ATOM      5  N   UNL     1       5.965   4.343  17.979  0.00  0.00    +0.000 N 
ATOM      6  H   UNL     1       6.471   4.321  18.868  0.00  0.00    +0.000 HD
BRANCH   5   9
ATOM      7  C   UNL     1       3.207   6.842  18.081  0.00  0.00    +0.000 A 
ATOM      8  C   UNL     1       4.480   6.284  18.017  0.00  0.00    +0.000 A 
ATOM      9  C   UNL     1       4.685   4.900  18.115  0.00  0.00    +0.000 A 
ATOM     10  C   UNL     1       3.566   4.038  18.242  0.00  0.00    +0.000 A 
ATOM     11  N   UNL     1       3.729   2.693  18.280  0.00  0.00    +0.000 NA
ATOM     12  C   UNL     1       2.629   1.911  18.380  0.00  0.00    +0.000 A 
ATOM     13  C   UNL     1       1.340   2.398  18.463  0.00  0.00    +0.000 A 
ATOM     14  C   UNL     1       1.165   3.774  18.442  0.00  0.00    +0.000 A 
ATOM     15  C   UNL     1       2.279   4.618  18.321  0.00  0.00    +0.000 A 
ATOM     16  C   UNL     1       2.113   6.009  18.264  0.00  0.00    +0.000 A 
BRANCH   7  18
ATOM     17  C   UNL     1       1.560   8.526  17.884  0.00  0.00    +0.000 C 
ATOM     18  O   UNL     1       2.938   8.181  18.006  0.00  0.00    +0.000 OA
ENDBRANCH   7  18
ENDBRANCH   5   9
ENDBRANCH   3   5
ENDBRANCH   2   3
ENDBRANCH   1   2
BRANCH   1  19
ATOM     19  C   UNL     1       8.002   7.856  17.702  0.00  0.00    +0.000 C 
BRANCH  19  20
ATOM     20  N   UNL     1       8.699   8.454  18.824  0.00  0.00    +0.000 N 
ATOM     21  C   UNL     1       8.876   9.816  18.861  0.00  0.00    +0.000 C 
ATOM     22  O   UNL     1       8.474  10.540  17.954  0.00  0.00    +0.000 OA
ATOM     23  N   UNL     1       9.575  10.222  19.976  0.00  0.00    +0.000 N 
ATOM     24  H   UNL     1       8.685   7.953  19.700  0.00  0.00    +0.000 HD
ATOM     25  H   UNL     1      10.105   9.502  20.449  0.00  0.00    +0.000 HD
BRANCH  23  26
ATOM     26  C   UNL     1       9.853  11.563  20.320  0.00  0.00    +0.000 A 
ATOM     27  C   UNL     1      10.719  12.360  19.569  0.00  0.00    +0.000 A 
ATOM     28  C   UNL     1      10.995  13.676  19.945  0.00  0.00    +0.000 A 
ATOM     29  C   UNL     1      10.396  14.231  21.078  0.00  0.00    +0.000 A 
ATOM     30  C   UNL     1       9.511  13.439  21.827  0.00  0.00    +0.000 A 
ATOM     31  C   UNL     1       9.235  12.116  21.445  0.00  0.00    +0.000 A 
BRANCH  29  32
ATOM     32  C   UNL     1      10.687  15.657  21.476  0.00  0.00    +0.000 C 
ATOM     33  F   UNL     1       9.859  16.567  20.886  0.00  0.00    +0.000 F 
ATOM     34  F   UNL     1      10.562  15.859  22.817  0.00  0.00    +0.000 F 
ATOM     35  F   UNL     1      11.952  16.045  21.155  0.00  0.00    +0.000 F 
ENDBRANCH  29  32
ENDBRANCH  23  26
ENDBRANCH  19  20
ENDBRANCH   1  19
TORSDOF 9
ENDMDL
MODEL 8
REMARK VINA RESULT:      -7.2      5.079      9.632
REMARK  Name = 
REMARK  11 active torsions:
REMARK  status: ('A' for Active; 'I' for Inactive)
REMARK    1  A    between atoms: C_1  and  O_2
REMARK    2  A    between atoms: O_2  and  C_3
REMARK    3  A    between atoms: C_5  and  N_6
REMARK    4  A    between atoms: N_6  and  C_7
REMARK    5  A    between atoms: C_7  and  C_8
REMARK    6  A    between atoms: C_7  and  C_9
REMARK    7  A    between atoms: C_9  and  C_10
REMARK    8  A    between atoms: C_10  and  C_11
REMARK    9  A    between atoms: C_11  and  N_12
REMARK   10  A    between atoms: N_15  and  C_16
REMARK   11  A    between atoms: C_19  and  C_20
REMARK                            x       y       z     vdW  Elec       q    Type
REMARK                         _______ _______ _______ _____ _____    ______ ____
ROOT
ATOM      1  C   UNL     1       0.110  11.578  21.248  0.00  0.00    +0.000 C 
ENDROOT
BRANCH   1   2
ATOM      2  C   UNL     1       0.710  11.334  19.853  0.00  0.00    +0.000 C 
BRANCH   2   3
ATOM      3  C   UNL     1      -0.186  11.827  18.706  0.00  0.00    +0.000 C 
ATOM      4  C   UNL     1      -0.479  13.318  18.824  0.00  0.00    +0.000 C 
BRANCH   3   5
ATOM      5  N   UNL     1      -1.415  11.047  18.695  0.00  0.00    +0.000 N 
ATOM      6  H   UNL     1      -1.779  10.706  19.588  0.00  0.00    +0.000 HD
BRANCH   5   9
ATOM      7  C   UNL     1      -3.213  10.569  15.470  0.00  0.00    +0.000 A 
ATOM      8  C   UNL     1      -2.208  10.571  16.432  0.00  0.00    +0.000 A 
ATOM      9  C   UNL     1      -2.412  11.113  17.710  0.00  0.00    +0.000 A 
ATOM     10  C   UNL     1      -3.685  11.636  18.050  0.00  0.00    +0.000 A 
ATOM     11  N   UNL     1      -3.929  12.112  19.295  0.00  0.00    +0.000 NA
ATOM     12  C   UNL     1      -5.167  12.580  19.578  0.00  0.00    +0.000 A 
ATOM     13  C   UNL     1      -6.203  12.621  18.667  0.00  0.00    +0.000 A 
ATOM     14  C   UNL     1      -5.958  12.153  17.386  0.00  0.00    +0.000 A 
ATOM     15  C   UNL     1      -4.694  11.641  17.058  0.00  0.00    +0.000 A 
ATOM     16  C   UNL     1      -4.443  11.133  15.776  0.00  0.00    +0.000 A 
BRANCH   7  18
ATOM     17  C   UNL     1      -4.291   9.683  13.562  0.00  0.00    +0.000 C 
ATOM     18  O   UNL     1      -3.077  10.071  14.203  0.00  0.00    +0.000 OA
ENDBRANCH   7  18
ENDBRANCH   5   9
ENDBRANCH   3   5
ENDBRANCH   2   3
ENDBRANCH   1   2
BRANCH   1  19
ATOM     19  C   UNL     1       0.356  10.416  22.214  0.00  0.00    +0.000 C 
BRANCH  19  20
ATOM     20  N   UNL     1       1.380   9.505  21.744  0.00  0.00    +0.000 N 
ATOM     21  C   UNL     1       1.016   8.280  21.240  0.00  0.00    +0.000 C 
ATOM     22  O   UNL     1      -0.161   7.929  21.195  0.00  0.00    +0.000 OA
ATOM     23  N   UNL     1       2.104   7.526  20.860  0.00  0.00    +0.000 N 
ATOM     24  H   UNL     1       2.252   9.906  21.431  0.00  0.00    +0.000 HD
ATOM     25  H   UNL     1       2.992   7.810  21.249  0.00  0.00    +0.000 HD
BRANCH  23  26
ATOM     26  C   UNL     1       2.040   6.254  20.249  0.00  0.00    +0.000 A 
ATOM     27  C   UNL     1       2.245   6.076  18.879  0.00  0.00    +0.000 A 
ATOM     28  C   UNL     1       2.154   4.812  18.295  0.00  0.00    +0.000 A 
ATOM     29  C   UNL     1       1.869   3.688  19.075  0.00  0.00    +0.000 A 
ATOM     30  C   UNL     1       1.680   3.860  20.457  0.00  0.00    +0.000 A 
ATOM     31  C   UNL     1       1.774   5.134  21.040  0.00  0.00    +0.000 A 
BRANCH  29  32
ATOM     32  C   UNL     1       1.782   2.321  18.444  0.00  0.00    +0.000 C 
ATOM     33  F   UNL     1       2.556   1.385  19.065  0.00  0.00    +0.000 F 
ATOM     34  F   UNL     1       0.515   1.822  18.459  0.00  0.00    +0.000 F 
ATOM     35  F   UNL     1       2.171   2.318  17.140  0.00  0.00    +0.000 F 
ENDBRANCH  29  32
ENDBRANCH  23  26
ENDBRANCH  19  20
ENDBRANCH   1  19
TORSDOF 9
ENDMDL
MODEL 9
REMARK VINA RESULT:      -7.2      2.300      3.080
REMARK  Name = 
REMARK  11 active torsions:
REMARK  status: ('A' for Active; 'I' for Inactive)
REMARK    1  A    between atoms: C_1  and  O_2
REMARK    2  A    between atoms: O_2  and  C_3
REMARK    3  A    between atoms: C_5  and  N_6
REMARK    4  A    between atoms: N_6  and  C_7
REMARK    5  A    between atoms: C_7  and  C_8
REMARK    6  A    between atoms: C_7  and  C_9
REMARK    7  A    between atoms: C_9  and  C_10
REMARK    8  A    between atoms: C_10  and  C_11
REMARK    9  A    between atoms: C_11  and  N_12
REMARK   10  A    between atoms: N_15  and  C_16
REMARK   11  A    between atoms: C_19  and  C_20
REMARK                            x       y       z     vdW  Elec       q    Type
REMARK                         _______ _______ _______ _____ _____    ______ ____
ROOT
ATOM      1  C   UNL     1       2.170   5.230  18.890  0.00  0.00    +0.000 C 
ENDROOT
BRANCH   1   2
ATOM      2  C   UNL     1       2.857   3.944  19.381  0.00  0.00    +0.000 C 
BRANCH   2   3
ATOM      3  C   UNL     1       3.064   2.898  18.273  0.00  0.00    +0.000 C 
ATOM      4  C   UNL     1       2.483   1.544  18.664  0.00  0.00    +0.000 C 
BRANCH   3   5
ATOM      5  N   UNL     1       4.485   2.797  17.976  0.00  0.00    +0.000 N 
ATOM      6  H   UNL     1       4.943   1.892  18.106  0.00  0.00    +0.000 HD
BRANCH   5   9
ATOM      7  C   UNL     1       5.604   4.431  14.824  0.00  0.00    +0.000 A 
ATOM      8  C   UNL     1       4.960   3.570  15.707  0.00  0.00    +0.000 A 
ATOM      9  C   UNL     1       5.192   3.622  17.089  0.00  0.00    +0.000 A 
ATOM     10  C   UNL     1       6.072   4.604  17.611  0.00  0.00    +0.000 A 
ATOM     11  N   UNL     1       6.269   4.717  18.947  0.00  0.00    +0.000 NA
ATOM     12  C   UNL     1       7.102   5.684  19.399  0.00  0.00    +0.000 A 
ATOM     13  C   UNL     1       7.783   6.561  18.579  0.00  0.00    +0.000 A 
ATOM     14  C   UNL     1       7.600   6.442  17.209  0.00  0.00    +0.000 A 
ATOM     15  C   UNL     1       6.731   5.464  16.702  0.00  0.00    +0.000 A 
ATOM     16  C   UNL     1       6.511   5.355  15.322  0.00  0.00    +0.000 A 
BRANCH   7  18
ATOM     17  C   UNL     1       6.209   3.462  12.755  0.00  0.00    +0.000 C 
ATOM     18  O   UNL     1       5.436   4.425  13.467  0.00  0.00    +0.000 OA
ENDBRANCH   7  18
ENDBRANCH   5   9
ENDBRANCH   3   5
ENDBRANCH   2   3
ENDBRANCH   1   2
BRANCH   1  19
ATOM     19  C   UNL     1       2.866   6.501  19.381  0.00  0.00    +0.000 C 
BRANCH  19  20
ATOM     20  N   UNL     1       2.245   7.056  20.568  0.00  0.00    +0.000 N 
ATOM     21  C   UNL     1       1.553   8.240  20.478  0.00  0.00    +0.000 C 
ATOM     22  O   UNL     1       1.461   8.851  19.416  0.00  0.00    +0.000 OA
ATOM     23  N   UNL     1       1.046   8.642  21.694  0.00  0.00    +0.000 N 
ATOM     24  H   UNL     1       1.994   6.414  21.304  0.00  0.00    +0.000 HD
ATOM     25  H   UNL     1       1.468   8.217  22.508  0.00  0.00    +0.000 HD
BRANCH  23  26
ATOM     26  C   UNL     1       0.237   9.781  21.903  0.00  0.00    +0.000 A 
ATOM     27  C   UNL     1       0.220  10.856  21.012  0.00  0.00    +0.000 A 
ATOM     28  C   UNL     1      -0.571  11.980  21.255  0.00  0.00    +0.000 A 
ATOM     29  C   UNL     1      -1.379  12.048  22.392  0.00  0.00    +0.000 A 
ATOM     30  C   UNL     1      -1.379  10.961  23.282  0.00  0.00    +0.000 A 
ATOM     31  C   UNL     1      -0.583   9.831  23.034  0.00  0.00    +0.000 A 
BRANCH  29  32
ATOM     32  C   UNL     1      -2.242  13.259  22.646  0.00  0.00    +0.000 C 
ATOM     33  F   UNL     1      -3.545  12.953  22.910  0.00  0.00    +0.000 F 
ATOM     34  F   UNL     1      -1.810  13.990  23.711  0.00  0.00    +0.000 F 
ATOM     35  F   UNL     1      -2.269  14.116  21.589  0.00  0.00    +0.000 F 
ENDBRANCH  29  32
ENDBRANCH  23  26
ENDBRANCH  19  20
ENDBRANCH   1  19
TORSDOF 9
ENDMDL
