MODEL 1
REMARK VINA RESULT:      -8.8      0.000      0.000
REMARK  Name = 
REMARK  10 active torsions:
REMARK  status: ('A' for Active; 'I' for Inactive)
REMARK    1  A    between atoms: C_1  and  C_2
REMARK    2  A    between atoms: C_5  and  C_6
REMARK    3  A    between atoms: C_6  and  C_7
REMARK    4  A    between atoms: C_6  and  C_8
REMARK    5  A    between atoms: C_9  and  O_10
REMARK    6  A    between atoms: O_10  and  C_11
REMARK    7  A    between atoms: C_11  and  C_12
REMARK    8  A    between atoms: N_14  and  C_15
REMARK    9  A    between atoms: C_18  and  C_19
REMARK   10  A    between atoms: C_29  and  C_30
REMARK                            x       y       z     vdW  Elec       q    Type
REMARK                         _______ _______ _______ _____ _____    ______ ____
ROOT
ATOM      1  C   UNL     1       2.636   4.402  17.605  0.00  0.00    +0.000 C 
ATOM      2  O   UNL     1       1.419   4.442  17.442  0.00  0.00    +0.000 OA
ATOM      3  N   UNL     1       3.362   5.309  18.378  0.00  0.00    +0.000 N 
ATOM      4  H   UNL     1       4.260   5.534  17.964  0.00  0.00    +0.000 HD
ENDROOT
BRANCH   3   5
ATOM      5  C   UNL     1       2.699   6.404  18.978  0.00  0.00    +0.000 A 
ATOM      6  C   UNL     1       2.611   7.605  18.263  0.00  0.00    +0.000 A 
ATOM      7  C   UNL     1       1.873   8.678  18.772  0.00  0.00    +0.000 A 
ATOM      8  C   UNL     1       1.218   8.580  20.010  0.00  0.00    +0.000 A 
ATOM      9  C   UNL     1       1.337   7.379  20.727  0.00  0.00    +0.000 A 
ATOM     10  C   UNL     1       2.070   6.285  20.224  0.00  0.00    +0.000 A 
ATOM     11  C   UNL     1       2.202   5.044  21.064  0.00  0.00    +0.000 C 
BRANCH   8  12
ATOM     12  C   UNL     1       0.432   9.704  20.517  0.00  0.00    +0.000 A 
ATOM     13  N   UNL     1       0.028  10.791  19.878  0.00  0.00    +0.000 NA
ATOM     14  C   UNL     1      -0.696  11.470  20.816  0.00  0.00    +0.000 A 
ATOM     15  N   UNL     1      -1.333  12.647  20.650  0.00  0.00    +0.000 NA
ATOM     16  C   UNL     1      -1.979  13.080  21.757  0.00  0.00    +0.000 A 
ATOM     17  C   UNL     1      -2.019  12.422  22.989  0.00  0.00    +0.000 A 
ATOM     18  C   UNL     1      -1.356  11.204  23.149  0.00  0.00    +0.000 A 
ATOM     19  C   UNL     1      -0.700  10.765  22.014  0.00  0.00    +0.000 A 
ATOM     20  O   UNL     1       0.023   9.627  21.830  0.00  0.00    +0.000 OA
ENDBRANCH   8  12
ENDBRANCH   3   5
BRANCH   1  21
ATOM     21  C   UNL     1       3.505   3.321  16.944  0.00  0.00    +0.000 C 
BRANCH  21  22
ATOM     22  O   UNL     1       4.893   3.585  17.089  0.00  0.00    +0.000 OA
BRANCH  22  28
ATOM     23  C   UNL     1       5.902   3.306  12.232  0.00  0.00    +0.000 C 
ATOM     24  C   UNL     1       6.153   3.879  13.597  0.00  0.00    +0.000 A 
ATOM     25  C   UNL     1       7.136   4.848  13.791  0.00  0.00    +0.000 A 
ATOM     26  C   UNL     1       7.348   5.387  15.059  0.00  0.00    +0.000 A 
ATOM     27  C   UNL     1       6.594   4.965  16.172  0.00  0.00    +0.000 A 
ATOM     28  C   UNL     1       5.620   3.960  15.989  0.00  0.00    +0.000 A 
ATOM     29  C   UNL     1       5.395   3.448  14.699  0.00  0.00    +0.000 A 
BRANCH  27  30
ATOM     30  C   UNL     1       6.877   5.646  17.507  0.00  0.00    +0.000 C 
ATOM     31  C   UNL     1       7.849   4.854  18.386  0.00  0.00    +0.000 C 
ATOM     32  C   UNL     1       7.328   7.102  17.360  0.00  0.00    +0.000 C 
ENDBRANCH  27  30
ENDBRANCH  22  28
ENDBRANCH  21  22
ENDBRANCH   1  21
TORSDOF 6
ENDMDL
MODEL 2
REMARK VINA RESULT:      -8.7      0.920      1.097
REMARK  Name = 
REMARK  10 active torsions:
REMARK  status: ('A' for Active; 'I' for Inactive)
REMARK    1  A    between atoms: C_1  and  C_2
REMARK    2  A    between atoms: C_5  and  C_6
REMARK    3  A    between atoms: C_6  and  C_7
REMARK    4  A    between atoms: C_6  and  C_8
REMARK    5  A    between atoms: C_9  and  O_10
REMARK    6  A    between atoms: O_10  and  C_11
REMARK    7  A    between atoms: C_11  and  C_12
REMARK    8  A    between atoms: N_14  and  C_15
REMARK    9  A    between atoms: C_18  and  C_19
REMARK   10  A    between atoms: C_29  and  C_30
REMARK                            x       y       z     vdW  Elec       q    Type
REMARK                         _______ _______ _______ _____ _____    ______ ____
ROOT
ATOM      1  C   UNL     1       2.491   4.385  17.619  0.00  0.00    +0.000 C 
ATOM      2  O   UNL     1       1.271   4.475  17.505  0.00  0.00    +0.000 OA
ATOM      3  N   UNL     1       3.271   5.197  18.443  0.00  0.00    +0.000 N 
ATOM      4  H   UNL     1       4.161   5.433  18.018  0.00  0.00    +0.000 HD
ENDROOT
BRANCH   3   5
ATOM      5  C   UNL     1       2.665   6.253  19.162  0.00  0.00    +0.000 A 
ATOM      6  C   UNL     1       2.601   7.518  18.565  0.00  0.00    +0.000 A 
ATOM      7  C   UNL     1       1.916   8.563  19.193  0.00  0.00    +0.000 A 
ATOM      8  C   UNL     1       1.291   8.370  20.436  0.00  0.00    +0.000 A 
ATOM      9  C   UNL     1       1.385   7.104  21.034  0.00  0.00    +0.000 A 
ATOM     10  C   UNL     1       2.064   6.038  20.410  0.00  0.00    +0.000 A 
ATOM     11  C   UNL     1       2.174   4.720  21.126  0.00  0.00    +0.000 C 
BRANCH   8  12
ATOM     12  C   UNL     1       0.559   9.467  21.068  0.00  0.00    +0.000 A 
ATOM     13  N   UNL     1      -0.374   9.411  22.007  0.00  0.00    +0.000 NA
ATOM     14  C   UNL     1      -0.674  10.723  22.245  0.00  0.00    +0.000 A 
ATOM     15  N   UNL     1      -1.568  11.198  23.136  0.00  0.00    +0.000 NA
ATOM     16  C   UNL     1      -1.650  12.549  23.160  0.00  0.00    +0.000 A 
ATOM     17  C   UNL     1      -0.911  13.426  22.361  0.00  0.00    +0.000 A 
ATOM     18  C   UNL     1       0.012  12.922  21.443  0.00  0.00    +0.000 A 
ATOM     19  C   UNL     1       0.093  11.541  21.425  0.00  0.00    +0.000 A 
ATOM     20  O   UNL     1       0.890  10.741  20.665  0.00  0.00    +0.000 OA
ENDBRANCH   8  12
ENDBRANCH   3   5
BRANCH   1  21
ATOM     21  C   UNL     1       3.303   3.343  16.833  0.00  0.00    +0.000 C 
BRANCH  21  22
ATOM     22  O   UNL     1       4.702   3.500  17.020  0.00  0.00    +0.000 OA
BRANCH  22  28
ATOM     23  C   UNL     1       5.964   3.301  12.219  0.00  0.00    +0.000 C 
ATOM     24  C   UNL     1       6.132   3.863  13.601  0.00  0.00    +0.000 A 
ATOM     25  C   UNL     1       7.081   4.851  13.855  0.00  0.00    +0.000 A 
ATOM     26  C   UNL     1       7.215   5.380  15.139  0.00  0.00    +0.000 A 
ATOM     27  C   UNL     1       6.416   4.929  16.207  0.00  0.00    +0.000 A 
ATOM     28  C   UNL     1       5.475   3.904  15.963  0.00  0.00    +0.000 A 
ATOM     29  C   UNL     1       5.328   3.403  14.658  0.00  0.00    +0.000 A 
BRANCH  27  30
ATOM     30  C   UNL     1       6.614   5.600  17.562  0.00  0.00    +0.000 C 
ATOM     31  C   UNL     1       7.792   5.018  18.349  0.00  0.00    +0.000 C 
ATOM     32  C   UNL     1       6.711   7.126  17.473  0.00  0.00    +0.000 C 
ENDBRANCH  27  30
ENDBRANCH  22  28
ENDBRANCH  21  22
ENDBRANCH   1  21
TORSDOF 6
ENDMDL
MODEL 3
REMARK VINA RESULT:      -8.7      0.948      1.670
REMARK  Name = 
REMARK  10 active torsions:
REMARK  status: ('A' for Active; 'I' for Inactive)
REMARK    1  A    between atoms: C_1  and  C_2
REMARK    2  A    between atoms: C_5  and  C_6
REMARK    3  A    between atoms: C_6  and  C_7
REMARK    4  A    between atoms: C_6  and  C_8
REMARK    5  A    between atoms: C_9  and  O_10
REMARK    6  A    between atoms: O_10  and  C_11
REMARK    7  A    between atoms: C_11  and  C_12
REMARK    8  A    between atoms: N_14  and  C_15
REMARK    9  A    between atoms: C_18  and  C_19
REMARK   10  A    between atoms: C_29  and  C_30
REMARK                            x       y       z     vdW  Elec       q    Type
REMARK                         _______ _______ _______ _____ _____    ______ ____
ROOT
ATOM      1  C   UNL     1       2.842   4.359  18.043  0.00  0.00    +0.000 C 
ATOM      2  O   UNL     1       1.678   4.336  17.650  0.00  0.00    +0.000 OA
ATOM      3  N   UNL     1       3.361   5.309  18.924  0.00  0.00    +0.000 N 
ATOM      4  H   UNL     1       4.309   5.577  18.685  0.00  0.00    +0.000 HD
ENDROOT
BRANCH   3   5
ATOM      5  C   UNL     1       2.542   6.373  19.367  0.00  0.00    +0.000 A 
ATOM      6  C   UNL     1       1.836   6.219  20.566  0.00  0.00    +0.000 A 
ATOM      7  C   UNL     1       1.101   7.284  21.096  0.00  0.00    +0.000 A 
ATOM      8  C   UNL     1       1.045   8.522  20.434  0.00  0.00    +0.000 A 
ATOM      9  C   UNL     1       1.738   8.653  19.220  0.00  0.00    +0.000 A 
ATOM     10  C   UNL     1       2.490   7.592  18.677  0.00  0.00    +0.000 A 
ATOM     11  C   UNL     1       3.167   7.780  17.347  0.00  0.00    +0.000 C 
BRANCH   8  12
ATOM     12  C   UNL     1       0.291   9.632  21.013  0.00  0.00    +0.000 A 
ATOM     13  N   UNL     1       0.070   9.911  22.289  0.00  0.00    +0.000 NA
ATOM     14  C   UNL     1      -0.651  11.071  22.248  0.00  0.00    +0.000 A 
ATOM     15  N   UNL     1      -1.114  11.772  23.303  0.00  0.00    +0.000 NA
ATOM     16  C   UNL     1      -1.792  12.891  22.960  0.00  0.00    +0.000 A 
ATOM     17  C   UNL     1      -2.032  13.334  21.655  0.00  0.00    +0.000 A 
ATOM     18  C   UNL     1      -1.548  12.599  20.572  0.00  0.00    +0.000 A 
ATOM     19  C   UNL     1      -0.853  11.458  20.929  0.00  0.00    +0.000 A 
ATOM     20  O   UNL     1      -0.249  10.538  20.127  0.00  0.00    +0.000 OA
ENDBRANCH   8  12
ENDBRANCH   3   5
BRANCH   1  21
ATOM     21  C   UNL     1       3.875   3.320  17.579  0.00  0.00    +0.000 C 
BRANCH  21  22
ATOM     22  O   UNL     1       5.203   3.817  17.644  0.00  0.00    +0.000 OA
BRANCH  22  28
ATOM     23  C   UNL     1       6.003   3.324  12.765  0.00  0.00    +0.000 C 
ATOM     24  C   UNL     1       6.257   4.008  14.077  0.00  0.00    +0.000 A 
ATOM     25  C   UNL     1       7.140   5.083  14.158  0.00  0.00    +0.000 A 
ATOM     26  C   UNL     1       7.354   5.724  15.378  0.00  0.00    +0.000 A 
ATOM     27  C   UNL     1       6.703   5.301  16.554  0.00  0.00    +0.000 A 
ATOM     28  C   UNL     1       5.833   4.191  16.485  0.00  0.00    +0.000 A 
ATOM     29  C   UNL     1       5.601   3.575  15.243  0.00  0.00    +0.000 A 
BRANCH  27  30
ATOM     30  C   UNL     1       6.976   6.093  17.828  0.00  0.00    +0.000 C 
ATOM     31  C   UNL     1       7.874   5.343  18.816  0.00  0.00    +0.000 C 
ATOM     32  C   UNL     1       7.509   7.504  17.561  0.00  0.00    +0.000 C 
ENDBRANCH  27  30
ENDBRANCH  22  28
ENDBRANCH  21  22
ENDBRANCH   1  21
TORSDOF 6
ENDMDL
MODEL 4
REMARK VINA RESULT:      -8.3      1.020      1.600
REMARK  Name = 
REMARK  10 active torsions:
REMARK  status: ('A' for Active; 'I' for Inactive)
REMARK    1  A    between atoms: C_1  and  C_2
REMARK    2  A    between atoms: C_5  and  C_6
REMARK    3  A    between atoms: C_6  and  C_7
REMARK    4  A    between atoms: C_6  and  C_8
REMARK    5  A    between atoms: C_9  and  O_10
REMARK    6  A    between atoms: O_10  and  C_11
REMARK    7  A    between atoms: C_11  and  C_12
REMARK    8  A    between atoms: N_14  and  C_15
REMARK    9  A    between atoms: C_18  and  C_19
REMARK   10  A    between atoms: C_29  and  C_30
REMARK                            x       y       z     vdW  Elec       q    Type
REMARK                         _______ _______ _______ _____ _____    ______ ____
ROOT
ATOM      1  C   UNL     1       2.555   4.894  18.358  0.00  0.00    +0.000 C 
ATOM      2  O   UNL     1       1.337   4.736  18.342  0.00  0.00    +0.000 OA
ATOM      3  N   UNL     1       3.203   6.004  18.904  0.00  0.00    +0.000 N 
ATOM      4  H   UNL     1       4.007   6.287  18.355  0.00  0.00    +0.000 HD
ENDROOT
BRANCH   3   5
ATOM      5  C   UNL     1       2.439   7.074  19.424  0.00  0.00    +0.000 A 
ATOM      6  C   UNL     1       1.933   6.963  20.725  0.00  0.00    +0.000 A 
ATOM      7  C   UNL     1       1.265   8.039  21.318  0.00  0.00    +0.000 A 
ATOM      8  C   UNL     1       1.077   9.243  20.621  0.00  0.00    +0.000 A 
ATOM      9  C   UNL     1       1.567   9.330  19.308  0.00  0.00    +0.000 A 
ATOM     10  C   UNL     1       2.251   8.258  18.699  0.00  0.00    +0.000 A 
ATOM     11  C   UNL     1       2.706   8.396  17.273  0.00  0.00    +0.000 C 
BRANCH   8  12
ATOM     12  C   UNL     1       0.396  10.367  21.264  0.00  0.00    +0.000 A 
ATOM     13  N   UNL     1       0.686  11.657  21.205  0.00  0.00    +0.000 NA
ATOM     14  C   UNL     1      -0.293  12.245  21.955  0.00  0.00    +0.000 A 
ATOM     15  N   UNL     1      -0.446  13.563  22.195  0.00  0.00    +0.000 NA
ATOM     16  C   UNL     1      -1.517  13.857  22.969  0.00  0.00    +0.000 A 
ATOM     17  C   UNL     1      -2.415  12.931  23.506  0.00  0.00    +0.000 A 
ATOM     18  C   UNL     1      -2.246  11.569  23.251  0.00  0.00    +0.000 A 
ATOM     19  C   UNL     1      -1.153  11.275  22.456  0.00  0.00    +0.000 A 
ATOM     20  O   UNL     1      -0.716  10.063  22.016  0.00  0.00    +0.000 OA
ENDBRANCH   8  12
ENDBRANCH   3   5
BRANCH   1  21
ATOM     21  C   UNL     1       3.514   3.859  17.750  0.00  0.00    +0.000 C 
BRANCH  21  22
ATOM     22  O   UNL     1       4.872   4.264  17.844  0.00  0.00    +0.000 OA
BRANCH  22  28
ATOM     23  C   UNL     1       5.727   3.415  13.024  0.00  0.00    +0.000 C 
ATOM     24  C   UNL     1       6.046   4.115  14.313  0.00  0.00    +0.000 A 
ATOM     25  C   UNL     1       7.082   5.045  14.378  0.00  0.00    +0.000 A 
ATOM     26  C   UNL     1       7.357   5.704  15.576  0.00  0.00    +0.000 A 
ATOM     27  C   UNL     1       6.615   5.444  16.745  0.00  0.00    +0.000 A 
ATOM     28  C   UNL     1       5.586   4.479  16.693  0.00  0.00    +0.000 A 
ATOM     29  C   UNL     1       5.297   3.846  15.472  0.00  0.00    +0.000 A 
BRANCH  27  30
ATOM     30  C   UNL     1       6.970   6.247  17.992  0.00  0.00    +0.000 C 
ATOM     31  C   UNL     1       7.852   5.468  18.972  0.00  0.00    +0.000 C 
ATOM     32  C   UNL     1       7.575   7.619  17.677  0.00  0.00    +0.000 C 
ENDBRANCH  27  30
ENDBRANCH  22  28
ENDBRANCH  21  22
ENDBRANCH   1  21
TORSDOF 6
ENDMDL
MODEL 5
REMARK VINA RESULT:      -8.2      3.698      9.818
REMARK  Name = 
REMARK  10 active torsions:
REMARK  status: ('A' for Active; 'I' for Inactive)
REMARK    1  A    between atoms: C_1  and  C_2
REMARK    2  A    between atoms: C_5  and  C_6
REMARK    3  A    between atoms: C_6  and  C_7
REMARK    4  A    between atoms: C_6  and  C_8
REMARK    5  A    between atoms: C_9  and  O_10
REMARK    6  A    between atoms: O_10  and  C_11
REMARK    7  A    between atoms: C_11  and  C_12
REMARK    8  A    between atoms: N_14  and  C_15
REMARK    9  A    between atoms: C_18  and  C_19
REMARK   10  A    between atoms: C_29  and  C_30
REMARK                            x       y       z     vdW  Elec       q    Type
REMARK                         _______ _______ _______ _____ _____    ______ ____
ROOT
ATOM      1  C   UNL     1      -0.462  11.598  18.729  0.00  0.00    +0.000 C 
ATOM      2  O   UNL     1      -1.343  10.788  18.450  0.00  0.00    +0.000 OA
ATOM      3  N   UNL     1       0.865  11.263  19.000  0.00  0.00    +0.000 N 
ATOM      4  H   UNL     1       1.261  11.832  19.740  0.00  0.00    +0.000 HD
ENDROOT
BRANCH   3   5
ATOM      5  C   UNL     1       1.251   9.903  19.032  0.00  0.00    +0.000 A 
ATOM      6  C   UNL     1       1.754   9.323  17.861  0.00  0.00    +0.000 A 
ATOM      7  C   UNL     1       2.246   8.015  17.875  0.00  0.00    +0.000 A 
ATOM      8  C   UNL     1       2.237   7.253  19.056  0.00  0.00    +0.000 A 
ATOM      9  C   UNL     1       1.706   7.840  20.216  0.00  0.00    +0.000 A 
ATOM     10  C   UNL     1       1.213   9.161  20.220  0.00  0.00    +0.000 A 
ATOM     11  C   UNL     1       0.611   9.713  21.482  0.00  0.00    +0.000 C 
BRANCH   8  12
ATOM     12  C   UNL     1       2.777   5.895  19.059  0.00  0.00    +0.000 A 
ATOM     13  N   UNL     1       3.842   5.426  19.690  0.00  0.00    +0.000 NA
ATOM     14  C   UNL     1       3.850   4.097  19.372  0.00  0.00    +0.000 A 
ATOM     15  N   UNL     1       4.741   3.172  19.784  0.00  0.00    +0.000 NA
ATOM     16  C   UNL     1       4.495   1.928  19.313  0.00  0.00    +0.000 A 
ATOM     17  C   UNL     1       3.438   1.567  18.472  0.00  0.00    +0.000 A 
ATOM     18  C   UNL     1       2.523   2.534  18.052  0.00  0.00    +0.000 A 
ATOM     19  C   UNL     1       2.778   3.803  18.538  0.00  0.00    +0.000 A 
ATOM     20  O   UNL     1       2.082   4.954  18.332  0.00  0.00    +0.000 OA
ENDBRANCH   8  12
ENDBRANCH   3   5
BRANCH   1  21
ATOM     21  C   UNL     1      -0.748  13.105  18.820  0.00  0.00    +0.000 C 
BRANCH  21  22
ATOM     22  O   UNL     1       0.344  13.827  19.372  0.00  0.00    +0.000 OA
BRANCH  22  28
ATOM     23  C   UNL     1      -0.996  18.365  17.855  0.00  0.00    +0.000 C 
ATOM     24  C   UNL     1       0.052  17.323  18.124  0.00  0.00    +0.000 A 
ATOM     25  C   UNL     1       1.399  17.594  17.889  0.00  0.00    +0.000 A 
ATOM     26  C   UNL     1       2.365  16.626  18.161  0.00  0.00    +0.000 A 
ATOM     27  C   UNL     1       2.014  15.357  18.661  0.00  0.00    +0.000 A 
ATOM     28  C   UNL     1       0.649  15.065  18.869  0.00  0.00    +0.000 A 
ATOM     29  C   UNL     1      -0.313  16.060  18.622  0.00  0.00    +0.000 A 
BRANCH  27  30
ATOM     30  C   UNL     1       3.150  14.385  18.961  0.00  0.00    +0.000 C 
ATOM     31  C   UNL     1       4.358  14.576  18.041  0.00  0.00    +0.000 C 
ATOM     32  C   UNL     1       3.574  14.386  20.433  0.00  0.00    +0.000 C 
ENDBRANCH  27  30
ENDBRANCH  22  28
ENDBRANCH  21  22
ENDBRANCH   1  21
TORSDOF 6
ENDMDL
MODEL 6
REMARK VINA RESULT:      -8.2      1.923     10.678
REMARK  Name = 
REMARK  10 active torsions:
REMARK  status: ('A' for Active; 'I' for Inactive)
REMARK    1  A    between atoms: C_1  and  C_2
REMARK    2  A    between atoms: C_5  and  C_6
REMARK    3  A    between atoms: C_6  and  C_7
REMARK    4  A    between atoms: C_6  and  C_8
REMARK    5  A    between atoms: C_9  and  O_10
REMARK    6  A    between atoms: O_10  and  C_11
REMARK    7  A    between atoms: C_11  and  C_12
REMARK    8  A    between atoms: N_14  and  C_15
REMARK    9  A    between atoms: C_18  and  C_19
REMARK   10  A    between atoms: C_29  and  C_30
REMARK                            x       y       z     vdW  Elec       q    Type
REMARK                         _______ _______ _______ _____ _____    ______ ____
ROOT
ATOM      1  C   UNL     1       0.508   9.624  22.385  0.00  0.00    +0.000 C 
ATOM      2  O   UNL     1       1.658   9.610  22.817  0.00  0.00    +0.000 OA
ATOM      3  N   UNL     1       0.098   9.003  21.204  0.00  0.00    +0.000 N 
ATOM      4  H   UNL     1      -0.589   9.552  20.700  0.00  0.00    +0.000 HD
ENDROOT
BRANCH   3   5
ATOM      5  C   UNL     1       1.054   8.359  20.384  0.00  0.00    +0.000 A 
ATOM      6  C   UNL     1       1.484   7.075  20.741  0.00  0.00    +0.000 A 
ATOM      7  C   UNL     1       2.345   6.359  19.903  0.00  0.00    +0.000 A 
ATOM      8  C   UNL     1       2.804   6.915  18.698  0.00  0.00    +0.000 A 
ATOM      9  C   UNL     1       2.385   8.213  18.366  0.00  0.00    +0.000 A 
ATOM     10  C   UNL     1       1.510   8.944  19.195  0.00  0.00    +0.000 A 
ATOM     11  C   UNL     1       1.139  10.349  18.809  0.00  0.00    +0.000 C 
BRANCH   8  12
ATOM     12  C   UNL     1       3.686   6.144  17.822  0.00  0.00    +0.000 A 
ATOM     13  N   UNL     1       3.901   4.837  17.801  0.00  0.00    +0.000 NA
ATOM     14  C   UNL     1       4.776   4.669  16.766  0.00  0.00    +0.000 A 
ATOM     15  N   UNL     1       5.296   3.503  16.329  0.00  0.00    +0.000 NA
ATOM     16  C   UNL     1       6.135   3.640  15.275  0.00  0.00    +0.000 A 
ATOM     17  C   UNL     1       6.476   4.845  14.654  0.00  0.00    +0.000 A 
ATOM     18  C   UNL     1       5.932   6.044  15.116  0.00  0.00    +0.000 A 
ATOM     19  C   UNL     1       5.073   5.898  16.190  0.00  0.00    +0.000 A 
ATOM     20  O   UNL     1       4.376   6.853  16.864  0.00  0.00    +0.000 OA
ENDBRANCH   8  12
ENDBRANCH   3   5
BRANCH   1  21
ATOM     21  C   UNL     1      -0.625  10.359  23.119  0.00  0.00    +0.000 C 
BRANCH  21  22
ATOM     22  O   UNL     1      -0.846  11.661  22.598  0.00  0.00    +0.000 OA
BRANCH  22  28
ATOM     23  C   UNL     1      -5.344  12.915  24.296  0.00  0.00    +0.000 C 
ATOM     24  C   UNL     1      -4.365  12.736  23.171  0.00  0.00    +0.000 A 
ATOM     25  C   UNL     1      -4.731  13.028  21.859  0.00  0.00    +0.000 A 
ATOM     26  C   UNL     1      -3.807  12.876  20.824  0.00  0.00    +0.000 A 
ATOM     27  C   UNL     1      -2.498  12.417  21.069  0.00  0.00    +0.000 A 
ATOM     28  C   UNL     1      -2.132  12.088  22.393  0.00  0.00    +0.000 A 
ATOM     29  C   UNL     1      -3.062  12.276  23.430  0.00  0.00    +0.000 A 
BRANCH  27  30
ATOM     30  C   UNL     1      -1.555  12.325  19.875  0.00  0.00    +0.000 C 
ATOM     31  C   UNL     1      -2.241  11.798  18.612  0.00  0.00    +0.000 C 
ATOM     32  C   UNL     1      -0.807  13.631  19.591  0.00  0.00    +0.000 C 
ENDBRANCH  27  30
ENDBRANCH  22  28
ENDBRANCH  21  22
ENDBRANCH   1  21
TORSDOF 6
ENDMDL
MODEL 7
REMARK VINA RESULT:      -8.0      2.981     11.212
REMARK  Name = 
REMARK  10 active torsions:
REMARK  status: ('A' for Active; 'I' for Inactive)
REMARK    1  A    between atoms: C_1  and  C_2
REMARK    2  A    between atoms: C_5  and  C_6
REMARK    3  A    between atoms: C_6  and  C_7
REMARK    4  A    between atoms: C_6  and  C_8
REMARK    5  A    between atoms: C_9  and  O_10
REMARK    6  A    between atoms: O_10  and  C_11
REMARK    7  A    between atoms: C_11  and  C_12
REMARK    8  A    between atoms: N_14  and  C_15
REMARK    9  A    between atoms: C_18  and  C_19
REMARK   10  A    between atoms: C_29  and  C_30
REMARK                            x       y       z     vdW  Elec       q    Type
REMARK                         _______ _______ _______ _____ _____    ______ ____
ROOT
ATOM      1  C   UNL     1      -1.128  11.135  19.661  0.00  0.00    +0.000 C 
ATOM      2  O   UNL     1      -1.713  10.495  18.791  0.00  0.00    +0.000 OA
ATOM      3  N   UNL     1       0.183  10.893  20.076  0.00  0.00    +0.000 N 
ATOM      4  H   UNL     1       0.298  11.015  21.075  0.00  0.00    +0.000 HD
ENDROOT
BRANCH   3   5
ATOM      5  C   UNL     1       0.899   9.803  19.530  0.00  0.00    +0.000 A 
ATOM      6  C   UNL     1       1.367   9.902  18.214  0.00  0.00    +0.000 A 
ATOM      7  C   UNL     1       2.171   8.895  17.670  0.00  0.00    +0.000 A 
ATOM      8  C   UNL     1       2.515   7.762  18.425  0.00  0.00    +0.000 A 
ATOM      9  C   UNL     1       2.018   7.665  19.735  0.00  0.00    +0.000 A 
ATOM     10  C   UNL     1       1.214   8.675  20.300  0.00  0.00    +0.000 A 
ATOM     11  C   UNL     1       0.670   8.487  21.689  0.00  0.00    +0.000 C 
BRANCH   8  12
ATOM     12  C   UNL     1       3.375   6.729  17.850  0.00  0.00    +0.000 A 
ATOM     13  N   UNL     1       3.219   5.414  17.864  0.00  0.00    +0.000 NA
ATOM     14  C   UNL     1       4.288   4.952  17.152  0.00  0.00    +0.000 A 
ATOM     15  N   UNL     1       4.576   3.664  16.870  0.00  0.00    +0.000 NA
ATOM     16  C   UNL     1       5.702   3.504  16.136  0.00  0.00    +0.000 A 
ATOM     17  C   UNL     1       6.535   4.531  15.684  0.00  0.00    +0.000 A 
ATOM     18  C   UNL     1       6.226   5.859  15.982  0.00  0.00    +0.000 A 
ATOM     19  C   UNL     1       5.074   6.017  16.729  0.00  0.00    +0.000 A 
ATOM     20  O   UNL     1       4.493   7.165  17.175  0.00  0.00    +0.000 OA
ENDBRANCH   8  12
ENDBRANCH   3   5
BRANCH   1  21
ATOM     21  C   UNL     1      -1.806  12.293  20.409  0.00  0.00    +0.000 C 
BRANCH  21  22
ATOM     22  O   UNL     1      -2.985  12.738  19.754  0.00  0.00    +0.000 OA
BRANCH  22  28
ATOM     23  C   UNL     1      -5.702  13.093  23.899  0.00  0.00    +0.000 C 
ATOM     24  C   UNL     1      -5.580  12.844  22.424  0.00  0.00    +0.000 A 
ATOM     25  C   UNL     1      -6.706  12.551  21.658  0.00  0.00    +0.000 A 
ATOM     26  C   UNL     1      -6.584  12.340  20.284  0.00  0.00    +0.000 A 
ATOM     27  C   UNL     1      -5.333  12.403  19.639  0.00  0.00    +0.000 A 
ATOM     28  C   UNL     1      -4.184  12.667  20.416  0.00  0.00    +0.000 A 
ATOM     29  C   UNL     1      -4.325  12.909  21.793  0.00  0.00    +0.000 A 
BRANCH  27  30
ATOM     30  C   UNL     1      -5.314  12.197  18.129  0.00  0.00    +0.000 C 
ATOM     31  C   UNL     1      -5.001  10.752  17.728  0.00  0.00    +0.000 C 
ATOM     32  C   UNL     1      -6.583  12.698  17.433  0.00  0.00    +0.000 C 
ENDBRANCH  27  30
ENDBRANCH  22  28
ENDBRANCH  21  22
ENDBRANCH   1  21
TORSDOF 6
ENDMDL
MODEL 8
REMARK VINA RESULT:      -8.0      2.906      5.072
REMARK  Name = 
REMARK  10 active torsions:
REMARK  status: ('A' for Active; 'I' for Inactive)
REMARK    1  A    between atoms: C_1  and  C_2
REMARK    2  A    between atoms: C_5  and  C_6
REMARK    3  A    between atoms: C_6  and  C_7
REMARK    4  A    between atoms: C_6  and  C_8
REMARK    5  A    between atoms: C_9  and  O_10
REMARK    6  A    between atoms: O_10  and  C_11
REMARK    7  A    between atoms: C_11  and  C_12
REMARK    8  A    between atoms: N_14  and  C_15
REMARK    9  A    between atoms: C_18  and  C_19
REMARK   10  A    between atoms: C_29  and  C_30
REMARK                            x       y       z     vdW  Elec       q    Type
REMARK                         _______ _______ _______ _____ _____    ______ ____
ROOT
ATOM      1  C   UNL     1       1.763   8.818  18.461  0.00  0.00    +0.000 C 
ATOM      2  O   UNL     1       1.417   8.561  19.611  0.00  0.00    +0.000 OA
ATOM      3  N   UNL     1       1.197   9.818  17.668  0.00  0.00    +0.000 N 
ATOM      4  H   UNL     1       1.115   9.537  16.697  0.00  0.00    +0.000 HD
ENDROOT
BRANCH   3   5
ATOM      5  C   UNL     1       0.102  10.564  18.160  0.00  0.00    +0.000 A 
ATOM      6  C   UNL     1      -1.192  10.079  17.937  0.00  0.00    +0.000 A 
ATOM      7  C   UNL     1      -2.298  10.727  18.497  0.00  0.00    +0.000 A 
ATOM      8  C   UNL     1      -2.135  11.880  19.282  0.00  0.00    +0.000 A 
ATOM      9  C   UNL     1      -0.834  12.370  19.476  0.00  0.00    +0.000 A 
ATOM     10  C   UNL     1       0.291  11.723  18.925  0.00  0.00    +0.000 A 
ATOM     11  C   UNL     1       1.654  12.327  19.126  0.00  0.00    +0.000 C 
BRANCH   8  12
ATOM     12  C   UNL     1      -3.299  12.532  19.880  0.00  0.00    +0.000 A 
ATOM     13  N   UNL     1      -3.341  13.431  20.852  0.00  0.00    +0.000 NA
ATOM     14  C   UNL     1      -4.671  13.716  20.975  0.00  0.00    +0.000 A 
ATOM     15  N   UNL     1      -5.234  14.592  21.832  0.00  0.00    +0.000 NA
ATOM     16  C   UNL     1      -6.581  14.673  21.724  0.00  0.00    +0.000 A 
ATOM     17  C   UNL     1      -7.374  13.943  20.834  0.00  0.00    +0.000 A 
ATOM     18  C   UNL     1      -6.780  13.040  19.953  0.00  0.00    +0.000 A 
ATOM     19  C   UNL     1      -5.404  12.963  20.065  0.00  0.00    +0.000 A 
ATOM     20  O   UNL     1      -4.529  12.199  19.356  0.00  0.00    +0.000 OA
ENDBRANCH   8  12
ENDBRANCH   3   5
BRANCH   1  21
ATOM     21  C   UNL     1       2.881   8.033  17.757  0.00  0.00    +0.000 C 
BRANCH  21  22
ATOM     22  O   UNL     1       3.413   7.003  18.577  0.00  0.00    +0.000 OA
BRANCH  22  28
ATOM     23  C   UNL     1       0.815   2.775  18.801  0.00  0.00    +0.000 C 
ATOM     24  C   UNL     1       1.964   3.586  18.276  0.00  0.00    +0.000 A 
ATOM     25  C   UNL     1       2.869   3.034  17.372  0.00  0.00    +0.000 A 
ATOM     26  C   UNL     1       3.921   3.804  16.876  0.00  0.00    +0.000 A 
ATOM     27  C   UNL     1       4.108   5.141  17.279  0.00  0.00    +0.000 A 
ATOM     28  C   UNL     1       3.214   5.695  18.220  0.00  0.00    +0.000 A 
ATOM     29  C   UNL     1       2.138   4.919  18.687  0.00  0.00    +0.000 A 
BRANCH  27  30
ATOM     30  C   UNL     1       5.265   5.907  16.647  0.00  0.00    +0.000 C 
ATOM     31  C   UNL     1       6.525   5.909  17.519  0.00  0.00    +0.000 C 
ATOM     32  C   UNL     1       5.584   5.453  15.220  0.00  0.00    +0.000 C 
ENDBRANCH  27  30
ENDBRANCH  22  28
ENDBRANCH  21  22
ENDBRANCH   1  21
TORSDOF 6
ENDMDL
MODEL 9
REMARK VINA RESULT:      -7.9      2.526      4.813
REMARK  Name = 
REMARK  10 active torsions:
REMARK  status: ('A' for Active; 'I' for Inactive)
REMARK    1  A    between atoms: C_1  and  C_2
REMARK    2  A    between atoms: C_5  and  C_6
REMARK    3  A    between atoms: C_6  and  C_7
REMARK    4  A    between atoms: C_6  and  C_8
REMARK    5  A    between atoms: C_9  and  O_10
REMARK    6  A    between atoms: O_10  and  C_11
REMARK    7  A    between atoms: C_11  and  C_12
REMARK    8  A    between atoms: N_14  and  C_15
REMARK    9  A    between atoms: C_18  and  C_19
REMARK   10  A    between atoms: C_29  and  C_30
REMARK                            x       y       z     vdW  Elec       q    Type
REMARK                         _______ _______ _______ _____ _____    ______ ____
ROOT
ATOM      1  C   UNL     1       1.211   9.275  18.461  0.00  0.00    +0.000 C 
ATOM      2  O   UNL     1       0.361   9.967  17.905  0.00  0.00    +0.000 OA
ATOM      3  N   UNL     1       1.490   9.308  19.828  0.00  0.00    +0.000 N 
ATOM      4  H   UNL     1       2.481   9.212  20.020  0.00  0.00    +0.000 HD
ENDROOT
BRANCH   3   5
ATOM      5  C   UNL     1       0.817  10.236  20.656  0.00  0.00    +0.000 A 
ATOM      6  C   UNL     1       1.089  11.599  20.492  0.00  0.00    +0.000 A 
ATOM      7  C   UNL     1       0.370  12.557  21.214  0.00  0.00    +0.000 A 
ATOM      8  C   UNL     1      -0.628  12.172  22.125  0.00  0.00    +0.000 A 
ATOM      9  C   UNL     1      -0.872  10.800  22.297  0.00  0.00    +0.000 A 
ATOM     10  C   UNL     1      -0.162   9.824  21.571  0.00  0.00    +0.000 A 
ATOM     11  C   UNL     1      -0.434   8.370  21.839  0.00  0.00    +0.000 C 
BRANCH   8  12
ATOM     12  C   UNL     1      -1.388  13.186  22.854  0.00  0.00    +0.000 A 
ATOM     13  N   UNL     1      -2.670  13.500  22.749  0.00  0.00    +0.000 NA
ATOM     14  C   UNL     1      -2.843  14.478  23.687  0.00  0.00    +0.000 A 
ATOM     15  N   UNL     1      -3.991  15.123  23.980  0.00  0.00    +0.000 NA
ATOM     16  C   UNL     1      -3.866  16.042  24.965  0.00  0.00    +0.000 A 
ATOM     17  C   UNL     1      -2.687  16.348  25.651  0.00  0.00    +0.000 A 
ATOM     18  C   UNL     1      -1.506  15.674  25.339  0.00  0.00    +0.000 A 
ATOM     19  C   UNL     1      -1.640  14.734  24.334  0.00  0.00    +0.000 A 
ATOM     20  O   UNL     1      -0.698  13.907  23.804  0.00  0.00    +0.000 OA
ENDBRANCH   8  12
ENDBRANCH   3   5
BRANCH   1  21
ATOM     21  C   UNL     1       2.085   8.283  17.678  0.00  0.00    +0.000 C 
BRANCH  21  22
ATOM     22  O   UNL     1       2.723   7.341  18.528  0.00  0.00    +0.000 OA
BRANCH  22  28
ATOM     23  C   UNL     1       6.195   5.324  15.602  0.00  0.00    +0.000 C 
ATOM     24  C   UNL     1       5.044   5.197  16.558  0.00  0.00    +0.000 A 
ATOM     25  C   UNL     1       4.574   3.942  16.940  0.00  0.00    +0.000 A 
ATOM     26  C   UNL     1       3.517   3.835  17.844  0.00  0.00    +0.000 A 
ATOM     27  C   UNL     1       2.892   4.977  18.382  0.00  0.00    +0.000 A 
ATOM     28  C   UNL     1       3.342   6.252  17.973  0.00  0.00    +0.000 A 
ATOM     29  C   UNL     1       4.429   6.345  17.086  0.00  0.00    +0.000 A 
BRANCH  27  30
ATOM     30  C   UNL     1       1.772   4.752  19.392  0.00  0.00    +0.000 C 
ATOM     31  C   UNL     1       1.047   3.418  19.191  0.00  0.00    +0.000 C 
ATOM     32  C   UNL     1       2.225   4.918  20.845  0.00  0.00    +0.000 C 
ENDBRANCH  27  30
ENDBRANCH  22  28
ENDBRANCH  21  22
ENDBRANCH   1  21
TORSDOF 6
ENDMDL
