MODEL 1
REMARK VINA RESULT:      -7.8      0.000      0.000
REMARK  Name = 
REMARK  10 active torsions:
REMARK  status: ('A' for Active; 'I' for Inactive)
REMARK    1  A    between atoms: C_1  and  N_2
REMARK    2  A    between atoms: N_5  and  C_6
REMARK    3  A    between atoms: C_6  and  C_7
REMARK    4  A    between atoms: C_7  and  C_8
REMARK    5  A    between atoms: C_8  and  C_9
REMARK    6  A    between atoms: C_9  and  O_10
REMARK    7  A    between atoms: O_10  and  C_11
REMARK    8  A    between atoms: C_14  and  C_15
REMARK    9  A    between atoms: C_17  and  C_18
REMARK   10  A    between atoms: C_24  and  C_25
REMARK                            x       y       z     vdW  Elec       q    Type
REMARK                         _______ _______ _______ _____ _____    ______ ____
ROOT
ATOM      1  C   UNL     1       0.404  10.561  20.730  0.00  0.00    +0.000 A 
ATOM      2  C   UNL     1       0.857  10.354  19.431  0.00  0.00    +0.000 A 
ATOM      3  C   UNL     1       1.501   9.177  19.092  0.00  0.00    +0.000 A 
ATOM      4  C   UNL     1       1.730   8.176  20.046  0.00  0.00    +0.000 A 
ATOM      5  C   UNL     1       1.278   8.379  21.355  0.00  0.00    +0.000 A 
ATOM      6  C   UNL     1       0.619   9.575  21.695  0.00  0.00    +0.000 A 
ENDROOT
BRANCH   4   7
ATOM      7  C   UNL     1       2.353   6.886  19.574  0.00  0.00    +0.000 C 
ATOM      8  O   UNL     1       1.500   6.305  18.581  0.00  0.00    +0.000 OA
ATOM      9  C   UNL     1       2.379   5.573  17.743  0.00  0.00    +0.000 C 
ATOM     10  C   UNL     1       3.665   6.419  17.756  0.00  0.00    +0.000 C 
ATOM     11  O   UNL     1       3.676   7.041  19.058  0.00  0.00    +0.000 OA
BRANCH   9  12
ATOM     12  C   UNL     1       2.373   4.140  18.255  0.00  0.00    +0.000 A 
ATOM     13  C   UNL     1       1.689   3.850  19.447  0.00  0.00    +0.000 A 
ATOM     14  C   UNL     1       1.599   2.539  19.915  0.00  0.00    +0.000 A 
ATOM     15  C   UNL     1       2.199   1.505  19.208  0.00  0.00    +0.000 A 
ATOM     16  C   UNL     1       2.919   1.776  18.045  0.00  0.00    +0.000 A 
ATOM     17  C   UNL     1       3.023   3.087  17.588  0.00  0.00    +0.000 A 
ENDBRANCH   9  12
BRANCH  10  18
ATOM     18  C   UNL     1       4.947   5.666  17.460  0.00  0.00    +0.000 A 
ATOM     19  C   UNL     1       5.840   5.344  18.498  0.00  0.00    +0.000 A 
ATOM     20  C   UNL     1       7.120   4.871  18.216  0.00  0.00    +0.000 A 
ATOM     21  C   UNL     1       7.502   4.652  16.896  0.00  0.00    +0.000 A 
ATOM     22  C   UNL     1       6.592   4.864  15.864  0.00  0.00    +0.000 A 
ATOM     23  C   UNL     1       5.317   5.358  16.143  0.00  0.00    +0.000 A 
ENDBRANCH  10  18
ENDBRANCH   4   7
BRANCH   1  24
ATOM     24  O   UNL     1      -0.262  11.687  21.135  0.00  0.00    +0.000 OA
BRANCH  24  25
ATOM     25  C   UNL     1      -0.030  12.833  20.307  0.00  0.00    +0.000 C 
BRANCH  25  26
ATOM     26  C   UNL     1      -1.234  13.748  20.327  0.00  0.00    +0.000 C 
BRANCH  26  27
ATOM     27  C   UNL     1      -2.510  12.973  19.998  0.00  0.00    +0.000 C 
BRANCH  27  28
ATOM     28  C   UNL     1      -2.388  12.221  18.673  0.00  0.00    +0.000 C 
BRANCH  28  33
ATOM     29  C   UNL     1      -3.046  10.177  14.375  0.00  0.00    +0.000 C 
ATOM     30  N   UNL     1      -3.369  10.081  15.793  0.00  0.00    +0.000 NA
ATOM     31  C   UNL     1      -4.129  11.260  16.247  0.00  0.00    +0.000 C 
ATOM     32  C   UNL     1      -4.433  11.191  17.759  0.00  0.00    +0.000 C 
ATOM     33  N   UNL     1      -3.236  11.023  18.613  0.00  0.00    +0.000 NA
ATOM     34  C   UNL     1      -2.475   9.858  18.120  0.00  0.00    +0.000 C 
ATOM     35  C   UNL     1      -2.153   9.909  16.609  0.00  0.00    +0.000 C 
ENDBRANCH  28  33
ENDBRANCH  27  28
ENDBRANCH  26  27
ENDBRANCH  25  26
ENDBRANCH  24  25
ENDBRANCH   1  24
TORSDOF 9
ENDMDL
MODEL 2
REMARK VINA RESULT:      -7.7      3.312      9.916
REMARK  Name = 
REMARK  10 active torsions:
REMARK  status: ('A' for Active; 'I' for Inactive)
REMARK    1  A    between atoms: C_1  and  N_2
REMARK    2  A    between atoms: N_5  and  C_6
REMARK    3  A    between atoms: C_6  and  C_7
REMARK    4  A    between atoms: C_7  and  C_8
REMARK    5  A    between atoms: C_8  and  C_9
REMARK    6  A    between atoms: C_9  and  O_10
REMARK    7  A    between atoms: O_10  and  C_11
REMARK    8  A    between atoms: C_14  and  C_15
REMARK    9  A    between atoms: C_17  and  C_18
REMARK   10  A    between atoms: C_24  and  C_25
REMARK                            x       y       z     vdW  Elec       q    Type
REMARK                         _______ _______ _______ _____ _____    ______ ____
ROOT
ATOM      1  C   UNL     1       2.361   6.203  19.398  0.00  0.00    +0.000 A 
ATOM      2  C   UNL     1       2.484   7.147  18.383  0.00  0.00    +0.000 A 
ATOM      3  C   UNL     1       2.015   8.436  18.563  0.00  0.00    +0.000 A 
ATOM      4  C   UNL     1       1.391   8.819  19.759  0.00  0.00    +0.000 A 
ATOM      5  C   UNL     1       1.264   7.874  20.783  0.00  0.00    +0.000 A 
ATOM      6  C   UNL     1       1.746   6.565  20.598  0.00  0.00    +0.000 A 
ENDROOT
BRANCH   4   7
ATOM      7  C   UNL     1       0.994  10.267  19.911  0.00  0.00    +0.000 C 
ATOM      8  O   UNL     1       0.410  10.710  18.680  0.00  0.00    +0.000 OA
ATOM      9  C   UNL     1      -0.504  11.723  19.067  0.00  0.00    +0.000 C 
ATOM     10  C   UNL     1      -1.014  11.235  20.435  0.00  0.00    +0.000 C 
ATOM     11  O   UNL     1       0.098  10.506  20.997  0.00  0.00    +0.000 OA
BRANCH   9  12
ATOM     12  C   UNL     1       0.232  13.047  18.927  0.00  0.00    +0.000 A 
ATOM     13  C   UNL     1      -0.515  14.236  18.866  0.00  0.00    +0.000 A 
ATOM     14  C   UNL     1       0.121  15.475  18.809  0.00  0.00    +0.000 A 
ATOM     15  C   UNL     1       1.508  15.546  18.801  0.00  0.00    +0.000 A 
ATOM     16  C   UNL     1       2.270  14.376  18.819  0.00  0.00    +0.000 A 
ATOM     17  C   UNL     1       1.633  13.139  18.858  0.00  0.00    +0.000 A 
ENDBRANCH   9  12
BRANCH  10  18
ATOM     18  C   UNL     1      -1.531  12.315  21.364  0.00  0.00    +0.000 A 
ATOM     19  C   UNL     1      -0.704  12.842  22.373  0.00  0.00    +0.000 A 
ATOM     20  C   UNL     1      -1.233  13.652  23.376  0.00  0.00    +0.000 A 
ATOM     21  C   UNL     1      -2.580  14.000  23.349  0.00  0.00    +0.000 A 
ATOM     22  C   UNL     1      -3.387  13.574  22.296  0.00  0.00    +0.000 A 
ATOM     23  C   UNL     1      -2.864  12.745  21.303  0.00  0.00    +0.000 A 
ENDBRANCH  10  18
ENDBRANCH   4   7
BRANCH   1  24
ATOM     24  O   UNL     1       2.821   4.916  19.303  0.00  0.00    +0.000 OA
BRANCH  24  25
ATOM     25  C   UNL     1       1.843   3.979  18.840  0.00  0.00    +0.000 C 
BRANCH  25  26
ATOM     26  C   UNL     1       2.449   3.052  17.810  0.00  0.00    +0.000 C 
BRANCH  26  27
ATOM     27  C   UNL     1       3.191   3.845  16.736  0.00  0.00    +0.000 C 
BRANCH  27  28
ATOM     28  C   UNL     1       4.707   3.727  16.893  0.00  0.00    +0.000 C 
BRANCH  28  33
ATOM     29  C   UNL     1       7.787   7.252  17.970  0.00  0.00    +0.000 C 
ATOM     30  N   UNL     1       7.236   6.455  16.883  0.00  0.00    +0.000 NA
ATOM     31  C   UNL     1       5.784   6.670  16.748  0.00  0.00    +0.000 C 
ATOM     32  C   UNL     1       5.181   5.791  15.631  0.00  0.00    +0.000 C 
ATOM     33  N   UNL     1       5.449   4.344  15.784  0.00  0.00    +0.000 NA
ATOM     34  C   UNL     1       6.904   4.156  15.950  0.00  0.00    +0.000 C 
ATOM     35  C   UNL     1       7.527   5.021  17.069  0.00  0.00    +0.000 C 
ENDBRANCH  28  33
ENDBRANCH  27  28
ENDBRANCH  26  27
ENDBRANCH  25  26
ENDBRANCH  24  25
ENDBRANCH   1  24
TORSDOF 9
ENDMDL
MODEL 3
REMARK VINA RESULT:      -7.7      1.999      3.249
REMARK  Name = 
REMARK  10 active torsions:
REMARK  status: ('A' for Active; 'I' for Inactive)
REMARK    1  A    between atoms: C_1  and  N_2
REMARK    2  A    between atoms: N_5  and  C_6
REMARK    3  A    between atoms: C_6  and  C_7
REMARK    4  A    between atoms: C_7  and  C_8
REMARK    5  A    between atoms: C_8  and  C_9
REMARK    6  A    between atoms: C_9  and  O_10
REMARK    7  A    between atoms: O_10  and  C_11
REMARK    8  A    between atoms: C_14  and  C_15
REMARK    9  A    between atoms: C_17  and  C_18
REMARK   10  A    between atoms: C_24  and  C_25
REMARK                            x       y       z     vdW  Elec       q    Type
REMARK                         _______ _______ _______ _____ _____    ______ ____
ROOT
ATOM      1  C   UNL     1      -0.132  10.733  18.939  0.00  0.00    +0.000 A 
ATOM      2  C   UNL     1       0.535  10.281  17.805  0.00  0.00    +0.000 A 
ATOM      3  C   UNL     1       1.378   9.186  17.877  0.00  0.00    +0.000 A 
ATOM      4  C   UNL     1       1.596   8.519  19.090  0.00  0.00    +0.000 A 
ATOM      5  C   UNL     1       0.928   8.969  20.235  0.00  0.00    +0.000 A 
ATOM      6  C   UNL     1       0.068  10.080  20.156  0.00  0.00    +0.000 A 
ENDROOT
BRANCH   4   7
ATOM      7  C   UNL     1       2.455   7.278  19.064  0.00  0.00    +0.000 C 
ATOM      8  O   UNL     1       1.731   6.238  18.398  0.00  0.00    +0.000 OA
ATOM      9  C   UNL     1       2.736   5.423  17.817  0.00  0.00    +0.000 C 
ATOM     10  C   UNL     1       3.838   6.432  17.447  0.00  0.00    +0.000 C 
ATOM     11  O   UNL     1       3.726   7.472  18.442  0.00  0.00    +0.000 OA
BRANCH   9  12
ATOM     12  C   UNL     1       3.000   4.293  18.801  0.00  0.00    +0.000 A 
ATOM     13  C   UNL     1       3.712   3.164  18.361  0.00  0.00    +0.000 A 
ATOM     14  C   UNL     1       4.038   2.138  19.247  0.00  0.00    +0.000 A 
ATOM     15  C   UNL     1       3.649   2.218  20.579  0.00  0.00    +0.000 A 
ATOM     16  C   UNL     1       2.905   3.310  21.027  0.00  0.00    +0.000 A 
ATOM     17  C   UNL     1       2.566   4.325  20.137  0.00  0.00    +0.000 A 
ENDBRANCH   9  12
BRANCH  10  18
ATOM     18  C   UNL     1       5.240   5.865  17.353  0.00  0.00    +0.000 A 
ATOM     19  C   UNL     1       5.656   5.183  16.195  0.00  0.00    +0.000 A 
ATOM     20  C   UNL     1       6.844   4.455  16.185  0.00  0.00    +0.000 A 
ATOM     21  C   UNL     1       7.664   4.452  17.309  0.00  0.00    +0.000 A 
ATOM     22  C   UNL     1       7.319   5.210  18.425  0.00  0.00    +0.000 A 
ATOM     23  C   UNL     1       6.119   5.922  18.445  0.00  0.00    +0.000 A 
ENDBRANCH  10  18
ENDBRANCH   4   7
BRANCH   1  24
ATOM     24  O   UNL     1      -1.000  11.793  18.942  0.00  0.00    +0.000 OA
BRANCH  24  25
ATOM     25  C   UNL     1      -2.377  11.420  19.066  0.00  0.00    +0.000 C 
BRANCH  25  26
ATOM     26  C   UNL     1      -2.779  10.509  17.927  0.00  0.00    +0.000 C 
BRANCH  26  27
ATOM     27  C   UNL     1      -3.895  11.141  17.095  0.00  0.00    +0.000 C 
BRANCH  27  28
ATOM     28  C   UNL     1      -4.893  11.898  17.970  0.00  0.00    +0.000 C 
BRANCH  28  33
ATOM     29  C   UNL     1      -7.916  12.435  21.664  0.00  0.00    +0.000 C 
ATOM     30  N   UNL     1      -7.799  11.965  20.290  0.00  0.00    +0.000 NA
ATOM     31  C   UNL     1      -6.844  10.847  20.189  0.00  0.00    +0.000 C 
ATOM     32  C   UNL     1      -6.675  10.373  18.730  0.00  0.00    +0.000 C 
ATOM     33  N   UNL     1      -6.278  11.443  17.786  0.00  0.00    +0.000 NA
ATOM     34  C   UNL     1      -7.228  12.564  17.928  0.00  0.00    +0.000 C 
ATOM     35  C   UNL     1      -7.407  13.058  19.381  0.00  0.00    +0.000 C 
ENDBRANCH  28  33
ENDBRANCH  27  28
ENDBRANCH  26  27
ENDBRANCH  25  26
ENDBRANCH  24  25
ENDBRANCH   1  24
TORSDOF 9
ENDMDL
MODEL 4
REMARK VINA RESULT:      -7.6      3.274      9.829
REMARK  Name = 
REMARK  10 active torsions:
REMARK  status: ('A' for Active; 'I' for Inactive)
REMARK    1  A    between atoms: C_1  and  N_2
REMARK    2  A    between atoms: N_5  and  C_6
REMARK    3  A    between atoms: C_6  and  C_7
REMARK    4  A    between atoms: C_7  and  C_8
REMARK    5  A    between atoms: C_8  and  C_9
REMARK    6  A    between atoms: C_9  and  O_10
REMARK    7  A    between atoms: O_10  and  C_11
REMARK    8  A    between atoms: C_14  and  C_15
REMARK    9  A    between atoms: C_17  and  C_18
REMARK   10  A    between atoms: C_24  and  C_25
REMARK                            x       y       z     vdW  Elec       q    Type
REMARK                         _______ _______ _______ _____ _____    ______ ____
ROOT
ATOM      1  C   UNL     1       2.207   5.695  19.701  0.00  0.00    +0.000 A 
ATOM      2  C   UNL     1       1.593   6.182  20.850  0.00  0.00    +0.000 A 
ATOM      3  C   UNL     1       1.288   7.527  20.967  0.00  0.00    +0.000 A 
ATOM      4  C   UNL     1       1.606   8.432  19.946  0.00  0.00    +0.000 A 
ATOM      5  C   UNL     1       2.226   7.949  18.787  0.00  0.00    +0.000 A 
ATOM      6  C   UNL     1       2.529   6.580  18.671  0.00  0.00    +0.000 A 
ENDROOT
BRANCH   4   7
ATOM      7  C   UNL     1       1.156   9.863  20.111  0.00  0.00    +0.000 C 
ATOM      8  O   UNL     1       1.082  10.469  18.815  0.00  0.00    +0.000 OA
ATOM      9  C   UNL     1       0.072  11.457  18.943  0.00  0.00    +0.000 C 
ATOM     10  C   UNL     1      -0.916  10.824  19.941  0.00  0.00    +0.000 C 
ATOM     11  O   UNL     1      -0.093   9.998  20.791  0.00  0.00    +0.000 OA
BRANCH   9  12
ATOM     12  C   UNL     1       0.782  12.764  19.261  0.00  0.00    +0.000 A 
ATOM     13  C   UNL     1       1.797  12.765  20.233  0.00  0.00    +0.000 A 
ATOM     14  C   UNL     1       2.522  13.925  20.504  0.00  0.00    +0.000 A 
ATOM     15  C   UNL     1       2.236  15.100  19.820  0.00  0.00    +0.000 A 
ATOM     16  C   UNL     1       1.204  15.132  18.881  0.00  0.00    +0.000 A 
ATOM     17  C   UNL     1       0.471  13.977  18.624  0.00  0.00    +0.000 A 
ENDBRANCH   9  12
BRANCH  10  18
ATOM     18  C   UNL     1      -1.769  11.800  20.725  0.00  0.00    +0.000 A 
ATOM     19  C   UNL     1      -1.617  11.917  22.119  0.00  0.00    +0.000 A 
ATOM     20  C   UNL     1      -2.546  12.624  22.879  0.00  0.00    +0.000 A 
ATOM     21  C   UNL     1      -3.602  13.278  22.252  0.00  0.00    +0.000 A 
ATOM     22  C   UNL     1      -3.704  13.261  20.862  0.00  0.00    +0.000 A 
ATOM     23  C   UNL     1      -2.787  12.535  20.101  0.00  0.00    +0.000 A 
ENDBRANCH  10  18
ENDBRANCH   4   7
BRANCH   1  24
ATOM     24  O   UNL     1       2.517   4.376  19.502  0.00  0.00    +0.000 OA
BRANCH  24  25
ATOM     25  C   UNL     1       1.643   3.702  18.590  0.00  0.00    +0.000 C 
BRANCH  25  26
ATOM     26  C   UNL     1       2.440   2.833  17.643  0.00  0.00    +0.000 C 
BRANCH  26  27
ATOM     27  C   UNL     1       3.169   3.688  16.606  0.00  0.00    +0.000 C 
BRANCH  27  28
ATOM     28  C   UNL     1       4.664   3.788  16.907  0.00  0.00    +0.000 C 
BRANCH  28  33
ATOM     29  C   UNL     1       7.863   7.189  18.034  0.00  0.00    +0.000 C 
ATOM     30  N   UNL     1       7.289   6.423  16.936  0.00  0.00    +0.000 NA
ATOM     31  C   UNL     1       5.845   6.692  16.799  0.00  0.00    +0.000 C 
ATOM     32  C   UNL     1       5.216   5.847  15.669  0.00  0.00    +0.000 C 
ATOM     33  N   UNL     1       5.432   4.390  15.808  0.00  0.00    +0.000 NA
ATOM     34  C   UNL     1       6.879   4.148  15.977  0.00  0.00    +0.000 C 
ATOM     35  C   UNL     1       7.528   4.979  17.108  0.00  0.00    +0.000 C 
ENDBRANCH  28  33
ENDBRANCH  27  28
ENDBRANCH  26  27
ENDBRANCH  25  26
ENDBRANCH  24  25
ENDBRANCH   1  24
TORSDOF 9
ENDMDL
MODEL 5
REMARK VINA RESULT:      -7.6      3.221      9.844
REMARK  Name = 
REMARK  10 active torsions:
REMARK  status: ('A' for Active; 'I' for Inactive)
REMARK    1  A    between atoms: C_1  and  N_2
REMARK    2  A    between atoms: N_5  and  C_6
REMARK    3  A    between atoms: C_6  and  C_7
REMARK    4  A    between atoms: C_7  and  C_8
REMARK    5  A    between atoms: C_8  and  C_9
REMARK    6  A    between atoms: C_9  and  O_10
REMARK    7  A    between atoms: O_10  and  C_11
REMARK    8  A    between atoms: C_14  and  C_15
REMARK    9  A    between atoms: C_17  and  C_18
REMARK   10  A    between atoms: C_24  and  C_25
REMARK                            x       y       z     vdW  Elec       q    Type
REMARK                         _______ _______ _______ _____ _____    ______ ____
ROOT
ATOM      1  C   UNL     1       2.362   7.214  19.495  0.00  0.00    +0.000 A 
ATOM      2  C   UNL     1       2.221   8.151  18.477  0.00  0.00    +0.000 A 
ATOM      3  C   UNL     1       1.457   9.288  18.671  0.00  0.00    +0.000 A 
ATOM      4  C   UNL     1       0.794   9.516  19.884  0.00  0.00    +0.000 A 
ATOM      5  C   UNL     1       0.931   8.577  20.913  0.00  0.00    +0.000 A 
ATOM      6  C   UNL     1       1.713   7.424  20.713  0.00  0.00    +0.000 A 
ENDROOT
BRANCH   4   7
ATOM      7  C   UNL     1       0.060  10.825  20.047  0.00  0.00    +0.000 C 
ATOM      8  O   UNL     1      -0.282  10.985  21.429  0.00  0.00    +0.000 OA
ATOM      9  C   UNL     1      -0.309  12.389  21.627  0.00  0.00    +0.000 C 
ATOM     10  C   UNL     1       0.794  12.899  20.680  0.00  0.00    +0.000 C 
ATOM     11  O   UNL     1       0.796  11.959  19.586  0.00  0.00    +0.000 OA
BRANCH   9  12
ATOM     12  C   UNL     1      -1.756  12.824  21.456  0.00  0.00    +0.000 A 
ATOM     13  C   UNL     1      -2.463  12.394  20.319  0.00  0.00    +0.000 A 
ATOM     14  C   UNL     1      -3.812  12.711  20.158  0.00  0.00    +0.000 A 
ATOM     15  C   UNL     1      -4.469  13.467  21.119  0.00  0.00    +0.000 A 
ATOM     16  C   UNL     1      -3.776  13.939  22.235  0.00  0.00    +0.000 A 
ATOM     17  C   UNL     1      -2.426  13.637  22.385  0.00  0.00    +0.000 A 
ENDBRANCH   9  12
BRANCH  10  18
ATOM     18  C   UNL     1       0.644  14.334  20.214  0.00  0.00    +0.000 A 
ATOM     19  C   UNL     1       0.921  15.399  21.090  0.00  0.00    +0.000 A 
ATOM     20  C   UNL     1       0.562  16.704  20.759  0.00  0.00    +0.000 A 
ATOM     21  C   UNL     1      -0.018  16.972  19.524  0.00  0.00    +0.000 A 
ATOM     22  C   UNL     1      -0.200  15.943  18.603  0.00  0.00    +0.000 A 
ATOM     23  C   UNL     1       0.139  14.632  18.940  0.00  0.00    +0.000 A 
ENDBRANCH  10  18
ENDBRANCH   4   7
BRANCH   1  24
ATOM     24  O   UNL     1       3.120   6.078  19.387  0.00  0.00    +0.000 OA
BRANCH  24  25
ATOM     25  C   UNL     1       2.353   4.874  19.264  0.00  0.00    +0.000 C 
BRANCH  25  26
ATOM     26  C   UNL     1       1.965   4.644  17.820  0.00  0.00    +0.000 C 
BRANCH  26  27
ATOM     27  C   UNL     1       2.880   3.606  17.171  0.00  0.00    +0.000 C 
BRANCH  27  28
ATOM     28  C   UNL     1       4.355   3.910  17.434  0.00  0.00    +0.000 C 
BRANCH  28  33
ATOM     29  C   UNL     1       7.955   6.967  18.312  0.00  0.00    +0.000 C 
ATOM     30  N   UNL     1       7.185   6.318  17.259  0.00  0.00    +0.000 NA
ATOM     31  C   UNL     1       5.764   6.710  17.320  0.00  0.00    +0.000 C 
ATOM     32  C   UNL     1       4.930   5.988  16.239  0.00  0.00    +0.000 C 
ATOM     33  N   UNL     1       5.032   4.512  16.278  0.00  0.00    +0.000 NA
ATOM     34  C   UNL     1       6.462   4.145  16.249  0.00  0.00    +0.000 C 
ATOM     35  C   UNL     1       7.315   4.851  17.328  0.00  0.00    +0.000 C 
ENDBRANCH  28  33
ENDBRANCH  27  28
ENDBRANCH  26  27
ENDBRANCH  25  26
ENDBRANCH  24  25
ENDBRANCH   1  24
TORSDOF 9
ENDMDL
MODEL 6
REMARK VINA RESULT:      -7.6      2.497      3.807
REMARK  Name = 
REMARK  10 active torsions:
REMARK  status: ('A' for Active; 'I' for Inactive)
REMARK    1  A    between atoms: C_1  and  N_2
REMARK    2  A    between atoms: N_5  and  C_6
REMARK    3  A    between atoms: C_6  and  C_7
REMARK    4  A    between atoms: C_7  and  C_8
REMARK    5  A    between atoms: C_8  and  C_9
REMARK    6  A    between atoms: C_9  and  O_10
REMARK    7  A    between atoms: O_10  and  C_11
REMARK    8  A    between atoms: C_14  and  C_15
REMARK    9  A    between atoms: C_17  and  C_18
REMARK   10  A    between atoms: C_24  and  C_25
REMARK                            x       y       z     vdW  Elec       q    Type
REMARK                         _______ _______ _______ _____ _____    ______ ____
ROOT
ATOM      1  C   UNL     1       0.135   9.977  20.668  0.00  0.00    +0.000 A 
ATOM      2  C   UNL     1       0.753   9.940  19.422  0.00  0.00    +0.000 A 
ATOM      3  C   UNL     1       1.575   8.882  19.078  0.00  0.00    +0.000 A 
ATOM      4  C   UNL     1       1.820   7.834  19.976  0.00  0.00    +0.000 A 
ATOM      5  C   UNL     1       1.202   7.866  21.231  0.00  0.00    +0.000 A 
ATOM      6  C   UNL     1       0.364   8.942  21.576  0.00  0.00    +0.000 A 
ENDROOT
BRANCH   4   7
ATOM      7  C   UNL     1       2.651   6.673  19.489  0.00  0.00    +0.000 C 
ATOM      8  O   UNL     1       1.814   5.810  18.710  0.00  0.00    +0.000 OA
ATOM      9  C   UNL     1       2.697   5.206  17.779  0.00  0.00    +0.000 C 
ATOM     10  C   UNL     1       3.728   6.315  17.500  0.00  0.00    +0.000 C 
ATOM     11  O   UNL     1       3.798   7.063  18.732  0.00  0.00    +0.000 OA
BRANCH   9  12
ATOM     12  C   UNL     1       3.118   3.874  18.381  0.00  0.00    +0.000 A 
ATOM     13  C   UNL     1       3.092   2.725  17.572  0.00  0.00    +0.000 A 
ATOM     14  C   UNL     1       3.535   1.498  18.063  0.00  0.00    +0.000 A 
ATOM     15  C   UNL     1       3.999   1.397  19.369  0.00  0.00    +0.000 A 
ATOM     16  C   UNL     1       3.994   2.515  20.203  0.00  0.00    +0.000 A 
ATOM     17  C   UNL     1       3.535   3.736  19.716  0.00  0.00    +0.000 A 
ENDBRANCH   9  12
BRANCH  10  18
ATOM     18  C   UNL     1       5.089   5.841  17.029  0.00  0.00    +0.000 A 
ATOM     19  C   UNL     1       5.278   5.433  15.696  0.00  0.00    +0.000 A 
ATOM     20  C   UNL     1       6.444   4.775  15.311  0.00  0.00    +0.000 A 
ATOM     21  C   UNL     1       7.464   4.574  16.236  0.00  0.00    +0.000 A 
ATOM     22  C   UNL     1       7.335   5.068  17.533  0.00  0.00    +0.000 A 
ATOM     23  C   UNL     1       6.159   5.708  17.925  0.00  0.00    +0.000 A 
ENDBRANCH  10  18
ENDBRANCH   4   7
BRANCH   1  24
ATOM     24  O   UNL     1      -0.710  10.978  21.071  0.00  0.00    +0.000 OA
BRANCH  24  25
ATOM     25  C   UNL     1      -1.367  11.656  19.995  0.00  0.00    +0.000 C 
BRANCH  25  26
ATOM     26  C   UNL     1      -1.289  13.154  20.192  0.00  0.00    +0.000 C 
BRANCH  26  27
ATOM     27  C   UNL     1      -2.627  13.708  20.678  0.00  0.00    +0.000 C 
BRANCH  27  28
ATOM     28  C   UNL     1      -2.939  13.261  22.105  0.00  0.00    +0.000 C 
BRANCH  28  33
ATOM     29  C   UNL     1      -7.394  12.326  23.640  0.00  0.00    +0.000 C 
ATOM     30  N   UNL     1      -6.324  13.315  23.646  0.00  0.00    +0.000 NA
ATOM     31  C   UNL     1      -6.027  13.784  22.280  0.00  0.00    +0.000 C 
ATOM     32  C   UNL     1      -4.861  14.797  22.269  0.00  0.00    +0.000 C 
ATOM     33  N   UNL     1      -3.617  14.298  22.897  0.00  0.00    +0.000 NA
ATOM     34  C   UNL     1      -3.945  13.803  24.249  0.00  0.00    +0.000 C 
ATOM     35  C   UNL     1      -5.106  12.783  24.282  0.00  0.00    +0.000 C 
ENDBRANCH  28  33
ENDBRANCH  27  28
ENDBRANCH  26  27
ENDBRANCH  25  26
ENDBRANCH  24  25
ENDBRANCH   1  24
TORSDOF 9
ENDMDL
MODEL 7
REMARK VINA RESULT:      -7.5      3.427     10.353
REMARK  Name = 
REMARK  10 active torsions:
REMARK  status: ('A' for Active; 'I' for Inactive)
REMARK    1  A    between atoms: C_1  and  N_2
REMARK    2  A    between atoms: N_5  and  C_6
REMARK    3  A    between atoms: C_6  and  C_7
REMARK    4  A    between atoms: C_7  and  C_8
REMARK    5  A    between atoms: C_8  and  C_9
REMARK    6  A    between atoms: C_9  and  O_10
REMARK    7  A    between atoms: O_10  and  C_11
REMARK    8  A    between atoms: C_14  and  C_15
REMARK    9  A    between atoms: C_17  and  C_18
REMARK   10  A    between atoms: C_24  and  C_25
REMARK                            x       y       z     vdW  Elec       q    Type
REMARK                         _______ _______ _______ _____ _____    ______ ____
ROOT
ATOM      1  C   UNL     1       1.584   8.335  19.914  0.00  0.00    +0.000 A 
ATOM      2  C   UNL     1       1.091   8.316  21.214  0.00  0.00    +0.000 A 
ATOM      3  C   UNL     1       0.272   9.335  21.669  0.00  0.00    +0.000 A 
ATOM      4  C   UNL     1      -0.066  10.416  20.843  0.00  0.00    +0.000 A 
ATOM      5  C   UNL     1       0.428  10.441  19.534  0.00  0.00    +0.000 A 
ATOM      6  C   UNL     1       1.257   9.401  19.074  0.00  0.00    +0.000 A 
ENDROOT
BRANCH   4   7
ATOM      7  C   UNL     1      -1.039  11.435  21.383  0.00  0.00    +0.000 C 
ATOM      8  O   UNL     1      -1.484  11.000  22.673  0.00  0.00    +0.000 OA
ATOM      9  C   UNL     1      -1.783  12.200  23.368  0.00  0.00    +0.000 C 
ATOM     10  C   UNL     1      -0.742  13.193  22.819  0.00  0.00    +0.000 C 
ATOM     11  O   UNL     1      -0.501  12.756  21.466  0.00  0.00    +0.000 OA
BRANCH   9  12
ATOM     12  C   UNL     1      -3.274  12.443  23.190  0.00  0.00    +0.000 A 
ATOM     13  C   UNL     1      -4.094  12.487  24.330  0.00  0.00    +0.000 A 
ATOM     14  C   UNL     1      -5.454  12.777  24.219  0.00  0.00    +0.000 A 
ATOM     15  C   UNL     1      -6.014  13.016  22.970  0.00  0.00    +0.000 A 
ATOM     16  C   UNL     1      -5.227  12.936  21.821  0.00  0.00    +0.000 A 
ATOM     17  C   UNL     1      -3.874  12.629  21.933  0.00  0.00    +0.000 A 
ENDBRANCH   9  12
BRANCH  10  18
ATOM     18  C   UNL     1      -1.129  14.656  22.898  0.00  0.00    +0.000 A 
ATOM     19  C   UNL     1      -1.349  15.399  21.724  0.00  0.00    +0.000 A 
ATOM     20  C   UNL     1      -1.468  16.787  21.771  0.00  0.00    +0.000 A 
ATOM     21  C   UNL     1      -1.435  17.445  22.997  0.00  0.00    +0.000 A 
ATOM     22  C   UNL     1      -1.326  16.712  24.177  0.00  0.00    +0.000 A 
ATOM     23  C   UNL     1      -1.185  15.325  24.130  0.00  0.00    +0.000 A 
ENDBRANCH  10  18
ENDBRANCH   4   7
BRANCH   1  24
ATOM     24  O   UNL     1       2.379   7.353  19.385  0.00  0.00    +0.000 OA
BRANCH  24  25
ATOM     25  C   UNL     1       2.524   7.423  17.962  0.00  0.00    +0.000 C 
BRANCH  25  26
ATOM     26  C   UNL     1       3.971   7.218  17.571  0.00  0.00    +0.000 C 
BRANCH  26  27
ATOM     27  C   UNL     1       4.184   5.817  16.997  0.00  0.00    +0.000 C 
BRANCH  27  28
ATOM     28  C   UNL     1       4.096   4.743  18.081  0.00  0.00    +0.000 C 
BRANCH  28  33
ATOM     29  C   UNL     1       1.466   2.680  21.531  0.00  0.00    +0.000 C 
ATOM     30  N   UNL     1       1.791   2.646  20.111  0.00  0.00    +0.000 NA
ATOM     31  C   UNL     1       3.218   2.343  19.899  0.00  0.00    +0.000 C 
ATOM     32  C   UNL     1       3.583   2.353  18.399  0.00  0.00    +0.000 C 
ATOM     33  N   UNL     1       3.241   3.611  17.699  0.00  0.00    +0.000 NA
ATOM     34  C   UNL     1       1.818   3.911  17.952  0.00  0.00    +0.000 C 
ATOM     35  C   UNL     1       1.431   3.913  19.449  0.00  0.00    +0.000 C 
ENDBRANCH  28  33
ENDBRANCH  27  28
ENDBRANCH  26  27
ENDBRANCH  25  26
ENDBRANCH  24  25
ENDBRANCH   1  24
TORSDOF 9
ENDMDL
MODEL 8
REMARK VINA RESULT:      -7.5      2.163      3.774
REMARK  Name = 
REMARK  10 active torsions:
REMARK  status: ('A' for Active; 'I' for Inactive)
REMARK    1  A    between atoms: C_1  and  N_2
REMARK    2  A    between atoms: N_5  and  C_6
REMARK    3  A    between atoms: C_6  and  C_7
REMARK    4  A    between atoms: C_7  and  C_8
REMARK    5  A    between atoms: C_8  and  C_9
REMARK    6  A    between atoms: C_9  and  O_10
REMARK    7  A    between atoms: O_10  and  C_11
REMARK    8  A    between atoms: C_14  and  C_15
REMARK    9  A    between atoms: C_17  and  C_18
REMARK   10  A    between atoms: C_24  and  C_25
REMARK                            x       y       z     vdW  Elec       q    Type
REMARK                         _______ _______ _______ _____ _____    ______ ____
ROOT
ATOM      1  C   UNL     1       0.442  10.029  20.130  0.00  0.00    +0.000 A 
ATOM      2  C   UNL     1       1.066   9.880  18.896  0.00  0.00    +0.000 A 
ATOM      3  C   UNL     1       1.842   8.765  18.633  0.00  0.00    +0.000 A 
ATOM      4  C   UNL     1       2.033   7.770  19.601  0.00  0.00    +0.000 A 
ATOM      5  C   UNL     1       1.408   7.915  20.846  0.00  0.00    +0.000 A 
ATOM      6  C   UNL     1       0.617   9.048  21.108  0.00  0.00    +0.000 A 
ENDROOT
BRANCH   4   7
ATOM      7  C   UNL     1       2.814   6.542  19.202  0.00  0.00    +0.000 C 
ATOM      8  O   UNL     1       1.903   5.585  18.649  0.00  0.00    +0.000 OA
ATOM      9  C   UNL     1       2.686   4.844  17.727  0.00  0.00    +0.000 C 
ATOM     10  C   UNL     1       3.676   5.891  17.183  0.00  0.00    +0.000 C 
ATOM     11  O   UNL     1       3.872   6.808  18.280  0.00  0.00    +0.000 OA
BRANCH   9  12
ATOM     12  C   UNL     1       3.175   3.609  18.468  0.00  0.00    +0.000 A 
ATOM     13  C   UNL     1       3.198   2.377  17.791  0.00  0.00    +0.000 A 
ATOM     14  C   UNL     1       3.704   1.234  18.409  0.00  0.00    +0.000 A 
ATOM     15  C   UNL     1       4.182   1.301  19.711  0.00  0.00    +0.000 A 
ATOM     16  C   UNL     1       4.130   2.504  20.417  0.00  0.00    +0.000 A 
ATOM     17  C   UNL     1       3.609   3.640  19.804  0.00  0.00    +0.000 A 
ENDBRANCH   9  12
BRANCH  10  18
ATOM     18  C   UNL     1       4.981   5.340  16.645  0.00  0.00    +0.000 A 
ATOM     19  C   UNL     1       6.119   5.273  17.469  0.00  0.00    +0.000 A 
ATOM     20  C   UNL     1       7.374   4.998  16.929  0.00  0.00    +0.000 A 
ATOM     21  C   UNL     1       7.499   4.722  15.571  0.00  0.00    +0.000 A 
ATOM     22  C   UNL     1       6.365   4.679  14.762  0.00  0.00    +0.000 A 
ATOM     23  C   UNL     1       5.111   4.975  15.297  0.00  0.00    +0.000 A 
ENDBRANCH  10  18
ENDBRANCH   4   7
BRANCH   1  24
ATOM     24  O   UNL     1      -0.359  11.091  20.457  0.00  0.00    +0.000 OA
BRANCH  24  25
ATOM     25  C   UNL     1      -0.145  12.255  19.649  0.00  0.00    +0.000 C 
BRANCH  25  26
ATOM     26  C   UNL     1      -1.402  12.602  18.884  0.00  0.00    +0.000 C 
BRANCH  26  27
ATOM     27  C   UNL     1      -2.647  12.212  19.680  0.00  0.00    +0.000 C 
BRANCH  27  28
ATOM     28  C   UNL     1      -3.080  13.324  20.634  0.00  0.00    +0.000 C 
BRANCH  28  33
ATOM     29  C   UNL     1      -1.248  15.288  24.617  0.00  0.00    +0.000 C 
ATOM     30  N   UNL     1      -2.191  14.300  24.111  0.00  0.00    +0.000 NA
ATOM     31  C   UNL     1      -1.499  13.249  23.342  0.00  0.00    +0.000 C 
ATOM     32  C   UNL     1      -2.495  12.223  22.761  0.00  0.00    +0.000 C 
ATOM     33  N   UNL     1      -3.563  12.818  21.926  0.00  0.00    +0.000 NA
ATOM     34  C   UNL     1      -4.219  13.888  22.704  0.00  0.00    +0.000 C 
ATOM     35  C   UNL     1      -3.240  14.931  23.290  0.00  0.00    +0.000 C 
ENDBRANCH  28  33
ENDBRANCH  27  28
ENDBRANCH  26  27
ENDBRANCH  25  26
ENDBRANCH  24  25
ENDBRANCH   1  24
TORSDOF 9
ENDMDL
MODEL 9
REMARK VINA RESULT:      -7.5      3.378     10.234
REMARK  Name = 
REMARK  10 active torsions:
REMARK  status: ('A' for Active; 'I' for Inactive)
REMARK    1  A    between atoms: C_1  and  N_2
REMARK    2  A    between atoms: N_5  and  C_6
REMARK    3  A    between atoms: C_6  and  C_7
REMARK    4  A    between atoms: C_7  and  C_8
REMARK    5  A    between atoms: C_8  and  C_9
REMARK    6  A    between atoms: C_9  and  O_10
REMARK    7  A    between atoms: O_10  and  C_11
REMARK    8  A    between atoms: C_14  and  C_15
REMARK    9  A    between atoms: C_17  and  C_18
REMARK   10  A    between atoms: C_24  and  C_25
REMARK                            x       y       z     vdW  Elec       q    Type
REMARK                         _______ _______ _______ _____ _____    ______ ____
ROOT
ATOM      1  C   UNL     1       1.764   8.025  19.887  0.00  0.00    +0.000 A 
ATOM      2  C   UNL     1       1.460   9.069  19.020  0.00  0.00    +0.000 A 
ATOM      3  C   UNL     1       0.628  10.098  19.425  0.00  0.00    +0.000 A 
ATOM      4  C   UNL     1       0.058  10.107  20.705  0.00  0.00    +0.000 A 
ATOM      5  C   UNL     1       0.360   9.059  21.582  0.00  0.00    +0.000 A 
ATOM      6  C   UNL     1       1.209   8.017  21.168  0.00  0.00    +0.000 A 
ENDROOT
BRANCH   4   7
ATOM      7  C   UNL     1      -0.760  11.312  21.101  0.00  0.00    +0.000 C 
ATOM      8  O   UNL     1      -0.968  11.275  22.517  0.00  0.00    +0.000 OA
ATOM      9  C   UNL     1      -1.089  12.637  22.893  0.00  0.00    +0.000 C 
ATOM     10  C   UNL     1      -0.138  13.357  21.920  0.00  0.00    +0.000 C 
ATOM     11  O   UNL     1      -0.172  12.557  20.720  0.00  0.00    +0.000 OA
BRANCH   9  12
ATOM     12  C   UNL     1      -2.578  12.950  22.914  0.00  0.00    +0.000 A 
ATOM     13  C   UNL     1      -3.093  13.721  23.970  0.00  0.00    +0.000 A 
ATOM     14  C   UNL     1      -4.438  14.090  23.992  0.00  0.00    +0.000 A 
ATOM     15  C   UNL     1      -5.287  13.686  22.969  0.00  0.00    +0.000 A 
ATOM     16  C   UNL     1      -4.806  12.885  21.933  0.00  0.00    +0.000 A 
ATOM     17  C   UNL     1      -3.467  12.503  21.923  0.00  0.00    +0.000 A 
ENDBRANCH   9  12
BRANCH  10  18
ATOM     18  C   UNL     1      -0.453  14.816  21.656  0.00  0.00    +0.000 A 
ATOM     19  C   UNL     1      -0.185  15.791  22.634  0.00  0.00    +0.000 A 
ATOM     20  C   UNL     1      -0.683  17.085  22.505  0.00  0.00    +0.000 A 
ATOM     21  C   UNL     1      -1.400  17.442  21.367  0.00  0.00    +0.000 A 
ATOM     22  C   UNL     1      -1.581  16.517  20.341  0.00  0.00    +0.000 A 
ATOM     23  C   UNL     1      -1.101  15.215  20.478  0.00  0.00    +0.000 A 
ENDBRANCH  10  18
ENDBRANCH   4   7
BRANCH   1  24
ATOM     24  O   UNL     1       2.597   6.986  19.568  0.00  0.00    +0.000 OA
BRANCH  24  25
ATOM     25  C   UNL     1       2.594   6.640  18.178  0.00  0.00    +0.000 C 
BRANCH  25  26
ATOM     26  C   UNL     1       3.990   6.746  17.606  0.00  0.00    +0.000 C 
BRANCH  26  27
ATOM     27  C   UNL     1       4.464   5.392  17.079  0.00  0.00    +0.000 C 
BRANCH  27  28
ATOM     28  C   UNL     1       3.387   4.318  17.231  0.00  0.00    +0.000 C 
BRANCH  28  33
ATOM     29  C   UNL     1       1.275   2.819  21.277  0.00  0.00    +0.000 C 
ATOM     30  N   UNL     1       2.313   2.514  20.301  0.00  0.00    +0.000 NA
ATOM     31  C   UNL     1       3.346   3.566  20.276  0.00  0.00    +0.000 C 
ATOM     32  C   UNL     1       4.425   3.277  19.210  0.00  0.00    +0.000 C 
ATOM     33  N   UNL     1       3.892   3.081  17.843  0.00  0.00    +0.000 NA
ATOM     34  C   UNL     1       2.838   2.048  17.899  0.00  0.00    +0.000 C 
ATOM     35  C   UNL     1       1.743   2.322  18.955  0.00  0.00    +0.000 C 
ENDBRANCH  28  33
ENDBRANCH  27  28
ENDBRANCH  26  27
ENDBRANCH  25  26
ENDBRANCH  24  25
ENDBRANCH   1  24
TORSDOF 9
ENDMDL
