MODEL 1
REMARK VINA RESULT:      -8.8      0.000      0.000
REMARK  Name = 
REMARK  13 active torsions:
REMARK  status: ('A' for Active; 'I' for Inactive)
REMARK    1  A    between atoms: C_1  and  C_2
REMARK    2  A    between atoms: C_2  and  O_3
REMARK    3  A    between atoms: O_3  and  C_4
REMARK    4  A    between atoms: C_4  and  C_6
REMARK    5  A    between atoms: C_9  and  S_10
REMARK    6  A    between atoms: S_10  and  N_13
REMARK    7  A    between atoms: N_13  and  C_14
REMARK    8  A    between atoms: C_14  and  C_15
REMARK    9  A    between atoms: C_15  and  C_16
REMARK   10  A    between atoms: C_15  and  C_25
REMARK   11  A    between atoms: C_19  and  N_20
REMARK   12  A    between atoms: N_20  and  C_21
REMARK   13  A    between atoms: N_20  and  C_22
REMARK                            x       y       z     vdW  Elec       q    Type
REMARK                         _______ _______ _______ _____ _____    ______ ____
ROOT
ATOM      1  C   UNL     1       3.324   6.890  18.700  0.00  0.00    +0.000 C 
ENDROOT
BRANCH   1   2
ATOM      2  C   UNL     1       2.591   5.540  18.757  0.00  0.00    +0.000 A 
ATOM      3  C   UNL     1       2.428   4.701  17.662  0.00  0.00    +0.000 A 
ATOM      4  N   UNL     1       1.307   3.968  17.945  0.00  0.00    +0.000 N 
ATOM      5  C   UNL     1       1.476   3.586  19.256  0.00  0.00    +0.000 A 
ATOM      6  C   UNL     1       0.963   2.465  19.912  0.00  0.00    +0.000 A 
ATOM      7  C   UNL     1       1.291   2.313  21.252  0.00  0.00    +0.000 A 
ATOM      8  C   UNL     1       2.033   3.295  21.905  0.00  0.00    +0.000 A 
ATOM      9  C   UNL     1       2.484   4.462  21.233  0.00  0.00    +0.000 A 
ATOM     10  C   UNL     1       2.237   4.612  19.845  0.00  0.00    +0.000 A 
ATOM     11  H   UNL     1       0.389   4.274  17.656  0.00  0.00    +0.000 HD
ENDBRANCH   1   2
BRANCH   1  12
ATOM     12  C   UNL     1       2.247   7.987  18.830  0.00  0.00    +0.000 A 
ATOM     13  C   UNL     1       1.906   8.872  17.793  0.00  0.00    +0.000 A 
ATOM     14  C   UNL     1       1.073  10.006  18.012  0.00  0.00    +0.000 A 
ATOM     15  C   UNL     1       0.540  10.324  19.274  0.00  0.00    +0.000 A 
ATOM     16  C   UNL     1       0.835   9.385  20.281  0.00  0.00    +0.000 A 
ATOM     17  C   UNL     1       1.662   8.255  20.071  0.00  0.00    +0.000 A 
BRANCH  15  18
ATOM     18  N   UNL     1      -0.155  11.496  19.519  0.00  0.00    +0.000 N 
ATOM     19  C   UNL     1      -1.098  12.075  18.564  0.00  0.00    +0.000 C 
ATOM     20  C   UNL     1      -0.234  12.078  20.859  0.00  0.00    +0.000 C 
ENDBRANCH  15  18
ENDBRANCH   1  12
BRANCH   1  21
ATOM     21  C   UNL     1       4.121   7.070  17.369  0.00  0.00    +0.000 C 
BRANCH  21  22
ATOM     22  N   UNL     1       5.596   7.142  17.457  0.00  0.00    +0.000 NA
ATOM     23  H   UNL     1       6.044   7.976  17.076  0.00  0.00    +0.000 HD
BRANCH  22  24
ATOM     24  S   UNL     1       6.612   5.821  17.458  0.00  0.00    +0.000 S 
ATOM     25  O   UNL     1       6.187   4.893  18.482  0.00  0.00    +0.000 OA
ATOM     26  O   UNL     1       7.958   6.348  17.422  0.00  0.00    +0.000 OA
BRANCH  24  30
ATOM     27  C   UNL     1       5.756   3.815  13.443  0.00  0.00    +0.000 A 
ATOM     28  C   UNL     1       6.943   4.566  13.615  0.00  0.00    +0.000 A 
ATOM     29  C   UNL     1       7.205   5.188  14.840  0.00  0.00    +0.000 A 
ATOM     30  C   UNL     1       6.290   5.061  15.888  0.00  0.00    +0.000 A 
ATOM     31  C   UNL     1       5.140   4.279  15.739  0.00  0.00    +0.000 A 
ATOM     32  C   UNL     1       4.867   3.669  14.513  0.00  0.00    +0.000 A 
BRANCH  27  33
ATOM     33  C   UNL     1       5.499   3.204  12.115  0.00  0.00    +0.000 C 
ATOM     34  O   UNL     1       6.164   2.289  11.660  0.00  0.00    +0.000 OA
BRANCH  33  35
ATOM     35  O   UNL     1       4.475   3.841  11.492  0.00  0.00    +0.000 OA
BRANCH  35  37
ATOM     36  C   UNL     1       2.941   3.864   9.625  0.00  0.00    +0.000 C 
ATOM     37  C   UNL     1       3.647   3.017  10.667  0.00  0.00    +0.000 C 
ENDBRANCH  35  37
ENDBRANCH  33  35
ENDBRANCH  27  33
ENDBRANCH  24  30
ENDBRANCH  22  24
ENDBRANCH  21  22
ENDBRANCH   1  21
TORSDOF 10
ENDMDL
MODEL 2
REMARK VINA RESULT:      -8.6      0.868      1.485
REMARK  Name = 
REMARK  13 active torsions:
REMARK  status: ('A' for Active; 'I' for Inactive)
REMARK    1  A    between atoms: C_1  and  C_2
REMARK    2  A    between atoms: C_2  and  O_3
REMARK    3  A    between atoms: O_3  and  C_4
REMARK    4  A    between atoms: C_4  and  C_6
REMARK    5  A    between atoms: C_9  and  S_10
REMARK    6  A    between atoms: S_10  and  N_13
REMARK    7  A    between atoms: N_13  and  C_14
REMARK    8  A    between atoms: C_14  and  C_15
REMARK    9  A    between atoms: C_15  and  C_16
REMARK   10  A    between atoms: C_15  and  C_25
REMARK   11  A    between atoms: C_19  and  N_20
REMARK   12  A    between atoms: N_20  and  C_21
REMARK   13  A    between atoms: N_20  and  C_22
REMARK                            x       y       z     vdW  Elec       q    Type
REMARK                         _______ _______ _______ _____ _____    ______ ____
ROOT
ATOM      1  C   UNL     1       3.387   6.861  18.674  0.00  0.00    +0.000 C 
ENDROOT
BRANCH   1   2
ATOM      2  C   UNL     1       2.638   5.520  18.709  0.00  0.00    +0.000 A 
ATOM      3  C   UNL     1       2.490   4.686  17.606  0.00  0.00    +0.000 A 
ATOM      4  N   UNL     1       1.355   3.966  17.860  0.00  0.00    +0.000 N 
ATOM      5  C   UNL     1       1.488   3.577  19.173  0.00  0.00    +0.000 A 
ATOM      6  C   UNL     1       0.946   2.460  19.813  0.00  0.00    +0.000 A 
ATOM      7  C   UNL     1       1.241   2.299  21.160  0.00  0.00    +0.000 A 
ATOM      8  C   UNL     1       1.979   3.270  21.833  0.00  0.00    +0.000 A 
ATOM      9  C   UNL     1       2.460   4.434  21.177  0.00  0.00    +0.000 A 
ATOM     10  C   UNL     1       2.247   4.592  19.785  0.00  0.00    +0.000 A 
ATOM     11  H   UNL     1       0.447   4.284  17.551  0.00  0.00    +0.000 HD
ENDBRANCH   1   2
BRANCH   1  12
ATOM     12  C   UNL     1       2.320   7.971  18.771  0.00  0.00    +0.000 A 
ATOM     13  C   UNL     1       2.033   8.870  17.730  0.00  0.00    +0.000 A 
ATOM     14  C   UNL     1       1.205  10.013  17.926  0.00  0.00    +0.000 A 
ATOM     15  C   UNL     1       0.624  10.325  19.168  0.00  0.00    +0.000 A 
ATOM     16  C   UNL     1       0.866   9.372  20.177  0.00  0.00    +0.000 A 
ATOM     17  C   UNL     1       1.687   8.233  19.989  0.00  0.00    +0.000 A 
BRANCH  15  18
ATOM     18  N   UNL     1      -0.065  11.503  19.396  0.00  0.00    +0.000 N 
ATOM     19  C   UNL     1      -1.525  11.579  19.412  0.00  0.00    +0.000 C 
ATOM     20  C   UNL     1       0.597  12.691  19.937  0.00  0.00    +0.000 C 
ENDBRANCH  15  18
ENDBRANCH   1  12
BRANCH   1  21
ATOM     21  C   UNL     1       4.227   7.032  17.368  0.00  0.00    +0.000 C 
BRANCH  21  22
ATOM     22  N   UNL     1       5.700   7.058  17.499  0.00  0.00    +0.000 NA
ATOM     23  H   UNL     1       6.186   7.870  17.116  0.00  0.00    +0.000 HD
BRANCH  22  24
ATOM     24  S   UNL     1       6.673   5.706  17.553  0.00  0.00    +0.000 S 
ATOM     25  O   UNL     1       6.170   4.796  18.558  0.00  0.00    +0.000 OA
ATOM     26  O   UNL     1       8.035   6.190  17.582  0.00  0.00    +0.000 OA
BRANCH  24  30
ATOM     27  C   UNL     1       5.994   3.808  13.453  0.00  0.00    +0.000 A 
ATOM     28  C   UNL     1       5.144   3.472  14.532  0.00  0.00    +0.000 A 
ATOM     29  C   UNL     1       5.353   4.045  15.791  0.00  0.00    +0.000 A 
ATOM     30  C   UNL     1       6.404   4.949  15.972  0.00  0.00    +0.000 A 
ATOM     31  C   UNL     1       7.215   5.321  14.896  0.00  0.00    +0.000 A 
ATOM     32  C   UNL     1       7.020   4.740  13.641  0.00  0.00    +0.000 A 
BRANCH  27  33
ATOM     33  C   UNL     1       5.761   3.146  12.144  0.00  0.00    +0.000 C 
ATOM     34  O   UNL     1       4.683   3.157  11.573  0.00  0.00    +0.000 OA
BRANCH  33  35
ATOM     35  O   UNL     1       6.885   2.510  11.729  0.00  0.00    +0.000 OA
BRANCH  35  37
ATOM     36  C   UNL     1       6.292   0.191  11.400  0.00  0.00    +0.000 C 
ATOM     37  C   UNL     1       6.689   1.497  10.738  0.00  0.00    +0.000 C 
ENDBRANCH  35  37
ENDBRANCH  33  35
ENDBRANCH  27  33
ENDBRANCH  24  30
ENDBRANCH  22  24
ENDBRANCH  21  22
ENDBRANCH   1  21
TORSDOF 10
ENDMDL
MODEL 3
REMARK VINA RESULT:      -8.1      1.003      1.747
REMARK  Name = 
REMARK  13 active torsions:
REMARK  status: ('A' for Active; 'I' for Inactive)
REMARK    1  A    between atoms: C_1  and  C_2
REMARK    2  A    between atoms: C_2  and  O_3
REMARK    3  A    between atoms: O_3  and  C_4
REMARK    4  A    between atoms: C_4  and  C_6
REMARK    5  A    between atoms: C_9  and  S_10
REMARK    6  A    between atoms: S_10  and  N_13
REMARK    7  A    between atoms: N_13  and  C_14
REMARK    8  A    between atoms: C_14  and  C_15
REMARK    9  A    between atoms: C_15  and  C_16
REMARK   10  A    between atoms: C_15  and  C_25
REMARK   11  A    between atoms: C_19  and  N_20
REMARK   12  A    between atoms: N_20  and  C_21
REMARK   13  A    between atoms: N_20  and  C_22
REMARK                            x       y       z     vdW  Elec       q    Type
REMARK                         _______ _______ _______ _____ _____    ______ ____
ROOT
ATOM      1  C   UNL     1       3.323   7.071  19.104  0.00  0.00    +0.000 C 
ENDROOT
BRANCH   1   2
ATOM      2  C   UNL     1       2.658   5.786  19.623  0.00  0.00    +0.000 A 
ATOM      3  C   UNL     1       1.743   5.756  20.669  0.00  0.00    +0.000 A 
ATOM      4  N   UNL     1       1.841   4.492  21.185  0.00  0.00    +0.000 N 
ATOM      5  C   UNL     1       1.852   3.675  20.078  0.00  0.00    +0.000 A 
ATOM      6  C   UNL     1       1.436   2.346  19.968  0.00  0.00    +0.000 A 
ATOM      7  C   UNL     1       1.553   1.749  18.721  0.00  0.00    +0.000 A 
ATOM      8  C   UNL     1       2.139   2.445  17.666  0.00  0.00    +0.000 A 
ATOM      9  C   UNL     1       2.620   3.773  17.821  0.00  0.00    +0.000 A 
ATOM     10  C   UNL     1       2.443   4.442  19.057  0.00  0.00    +0.000 A 
ATOM     11  H   UNL     1       2.480   4.277  21.938  0.00  0.00    +0.000 HD
ENDBRANCH   1   2
BRANCH   1  12
ATOM     12  C   UNL     1       2.238   8.167  19.105  0.00  0.00    +0.000 A 
ATOM     13  C   UNL     1       1.551   8.582  20.259  0.00  0.00    +0.000 A 
ATOM     14  C   UNL     1       0.409   9.432  20.192  0.00  0.00    +0.000 A 
ATOM     15  C   UNL     1      -0.112   9.909  18.977  0.00  0.00    +0.000 A 
ATOM     16  C   UNL     1       0.634   9.540  17.841  0.00  0.00    +0.000 A 
ATOM     17  C   UNL     1       1.770   8.696  17.899  0.00  0.00    +0.000 A 
BRANCH  15  18
ATOM     18  N   UNL     1      -1.297  10.621  18.899  0.00  0.00    +0.000 N 
ATOM     19  C   UNL     1      -1.490  11.916  19.548  0.00  0.00    +0.000 C 
ATOM     20  C   UNL     1      -2.333  10.286  17.921  0.00  0.00    +0.000 C 
ENDBRANCH  15  18
ENDBRANCH   1  12
BRANCH   1  21
ATOM     21  C   UNL     1       3.909   6.891  17.668  0.00  0.00    +0.000 C 
BRANCH  21  22
ATOM     22  N   UNL     1       5.369   7.056  17.497  0.00  0.00    +0.000 NA
ATOM     23  H   UNL     1       5.683   7.835  16.918  0.00  0.00    +0.000 HD
BRANCH  22  24
ATOM     24  S   UNL     1       6.477   5.811  17.540  0.00  0.00    +0.000 S 
ATOM     25  O   UNL     1       6.058   4.833  18.520  0.00  0.00    +0.000 OA
ATOM     26  O   UNL     1       7.780   6.434  17.599  0.00  0.00    +0.000 OA
BRANCH  24  30
ATOM     27  C   UNL     1       6.019   3.835  13.446  0.00  0.00    +0.000 A 
ATOM     28  C   UNL     1       7.146   4.647  13.713  0.00  0.00    +0.000 A 
ATOM     29  C   UNL     1       7.287   5.259  14.962  0.00  0.00    +0.000 A 
ATOM     30  C   UNL     1       6.308   5.063  15.940  0.00  0.00    +0.000 A 
ATOM     31  C   UNL     1       5.218   4.223  15.698  0.00  0.00    +0.000 A 
ATOM     32  C   UNL     1       5.066   3.621  14.447  0.00  0.00    +0.000 A 
BRANCH  27  33
ATOM     33  C   UNL     1       5.890   3.236  12.094  0.00  0.00    +0.000 C 
ATOM     34  O   UNL     1       6.608   2.336  11.690  0.00  0.00    +0.000 OA
BRANCH  33  35
ATOM     35  O   UNL     1       4.915   3.863  11.389  0.00  0.00    +0.000 OA
BRANCH  35  37
ATOM     36  C   UNL     1       3.025   3.740   9.888  0.00  0.00    +0.000 C 
ATOM     37  C   UNL     1       3.833   3.032  10.959  0.00  0.00    +0.000 C 
ENDBRANCH  35  37
ENDBRANCH  33  35
ENDBRANCH  27  33
ENDBRANCH  24  30
ENDBRANCH  22  24
ENDBRANCH  21  22
ENDBRANCH   1  21
TORSDOF 10
ENDMDL
MODEL 4
REMARK VINA RESULT:      -8.1      3.101      5.337
REMARK  Name = 
REMARK  13 active torsions:
REMARK  status: ('A' for Active; 'I' for Inactive)
REMARK    1  A    between atoms: C_1  and  C_2
REMARK    2  A    between atoms: C_2  and  O_3
REMARK    3  A    between atoms: O_3  and  C_4
REMARK    4  A    between atoms: C_4  and  C_6
REMARK    5  A    between atoms: C_9  and  S_10
REMARK    6  A    between atoms: S_10  and  N_13
REMARK    7  A    between atoms: N_13  and  C_14
REMARK    8  A    between atoms: C_14  and  C_15
REMARK    9  A    between atoms: C_15  and  C_16
REMARK   10  A    between atoms: C_15  and  C_25
REMARK   11  A    between atoms: C_19  and  N_20
REMARK   12  A    between atoms: N_20  and  C_21
REMARK   13  A    between atoms: N_20  and  C_22
REMARK                            x       y       z     vdW  Elec       q    Type
REMARK                         _______ _______ _______ _____ _____    ______ ____
ROOT
ATOM      1  C   UNL     1       3.614   6.548  18.461  0.00  0.00    +0.000 C 
ENDROOT
BRANCH   1   2
ATOM      2  C   UNL     1       2.752   5.285  18.614  0.00  0.00    +0.000 A 
ATOM      3  C   UNL     1       2.468   4.409  17.573  0.00  0.00    +0.000 A 
ATOM      4  N   UNL     1       1.289   3.812  17.927  0.00  0.00    +0.000 N 
ATOM      5  C   UNL     1       1.462   3.485  19.253  0.00  0.00    +0.000 A 
ATOM      6  C   UNL     1       0.860   2.459  19.986  0.00  0.00    +0.000 A 
ATOM      7  C   UNL     1       1.215   2.346  21.322  0.00  0.00    +0.000 A 
ATOM      8  C   UNL     1       2.073   3.280  21.898  0.00  0.00    +0.000 A 
ATOM      9  C   UNL     1       2.618   4.357  21.149  0.00  0.00    +0.000 A 
ATOM     10  C   UNL     1       2.342   4.458  19.763  0.00  0.00    +0.000 A 
ATOM     11  H   UNL     1       0.397   4.195  17.647  0.00  0.00    +0.000 HD
ENDBRANCH   1   2
BRANCH   1  12
ATOM     12  C   UNL     1       2.689   7.754  18.724  0.00  0.00    +0.000 A 
ATOM     13  C   UNL     1       2.024   7.975  19.942  0.00  0.00    +0.000 A 
ATOM     14  C   UNL     1       1.013   8.969  20.080  0.00  0.00    +0.000 A 
ATOM     15  C   UNL     1       0.606   9.791  19.014  0.00  0.00    +0.000 A 
ATOM     16  C   UNL     1       1.336   9.601  17.824  0.00  0.00    +0.000 A 
ATOM     17  C   UNL     1       2.343   8.616  17.679  0.00  0.00    +0.000 A 
BRANCH  15  18
ATOM     18  N   UNL     1      -0.466  10.661  19.108  0.00  0.00    +0.000 N 
ATOM     19  C   UNL     1      -1.502  10.759  18.081  0.00  0.00    +0.000 C 
ATOM     20  C   UNL     1      -0.813  11.324  20.366  0.00  0.00    +0.000 C 
ENDBRANCH  15  18
ENDBRANCH   1  12
BRANCH   1  21
ATOM     21  C   UNL     1       4.252   6.654  17.039  0.00  0.00    +0.000 C 
BRANCH  21  22
ATOM     22  N   UNL     1       5.052   5.507  16.558  0.00  0.00    +0.000 NA
ATOM     23  H   UNL     1       4.546   4.752  16.094  0.00  0.00    +0.000 HD
BRANCH  22  24
ATOM     24  S   UNL     1       6.475   4.984  17.250  0.00  0.00    +0.000 S 
ATOM     25  O   UNL     1       7.309   4.387  16.230  0.00  0.00    +0.000 OA
ATOM     26  O   UNL     1       6.102   4.261  18.444  0.00  0.00    +0.000 OA
BRANCH  24  30
ATOM     27  C   UNL     1       8.499   8.886  18.496  0.00  0.00    +0.000 A 
ATOM     28  C   UNL     1       8.687   7.718  19.271  0.00  0.00    +0.000 A 
ATOM     29  C   UNL     1       8.064   6.523  18.898  0.00  0.00    +0.000 A 
ATOM     30  C   UNL     1       7.257   6.494  17.756  0.00  0.00    +0.000 A 
ATOM     31  C   UNL     1       7.109   7.633  16.960  0.00  0.00    +0.000 A 
ATOM     32  C   UNL     1       7.717   8.832  17.338  0.00  0.00    +0.000 A 
BRANCH  27  33
ATOM     33  C   UNL     1       9.149  10.142  18.951  0.00  0.00    +0.000 C 
ATOM     34  O   UNL     1       9.164  10.502  20.116  0.00  0.00    +0.000 OA
BRANCH  33  35
ATOM     35  O   UNL     1       9.657  10.821  17.893  0.00  0.00    +0.000 OA
BRANCH  35  37
ATOM     36  C   UNL     1      10.191  13.164  17.636  0.00  0.00    +0.000 C 
ATOM     37  C   UNL     1      10.622  11.828  18.212  0.00  0.00    +0.000 C 
ENDBRANCH  35  37
ENDBRANCH  33  35
ENDBRANCH  27  33
ENDBRANCH  24  30
ENDBRANCH  22  24
ENDBRANCH  21  22
ENDBRANCH   1  21
TORSDOF 10
ENDMDL
MODEL 5
REMARK VINA RESULT:      -7.9      1.148      1.537
REMARK  Name = 
REMARK  13 active torsions:
REMARK  status: ('A' for Active; 'I' for Inactive)
REMARK    1  A    between atoms: C_1  and  C_2
REMARK    2  A    between atoms: C_2  and  O_3
REMARK    3  A    between atoms: O_3  and  C_4
REMARK    4  A    between atoms: C_4  and  C_6
REMARK    5  A    between atoms: C_9  and  S_10
REMARK    6  A    between atoms: S_10  and  N_13
REMARK    7  A    between atoms: N_13  and  C_14
REMARK    8  A    between atoms: C_14  and  C_15
REMARK    9  A    between atoms: C_15  and  C_16
REMARK   10  A    between atoms: C_15  and  C_25
REMARK   11  A    between atoms: C_19  and  N_20
REMARK   12  A    between atoms: N_20  and  C_21
REMARK   13  A    between atoms: N_20  and  C_22
REMARK                            x       y       z     vdW  Elec       q    Type
REMARK                         _______ _______ _______ _____ _____    ______ ____
ROOT
ATOM      1  C   UNL     1       3.514   6.686  18.299  0.00  0.00    +0.000 C 
ENDROOT
BRANCH   1   2
ATOM      2  C   UNL     1       2.859   5.296  18.329  0.00  0.00    +0.000 A 
ATOM      3  C   UNL     1       1.787   4.927  17.525  0.00  0.00    +0.000 A 
ATOM      4  N   UNL     1       1.160   3.924  18.213  0.00  0.00    +0.000 N 
ATOM      5  C   UNL     1       2.188   3.113  18.638  0.00  0.00    +0.000 A 
ATOM      6  C   UNL     1       2.162   1.745  18.919  0.00  0.00    +0.000 A 
ATOM      7  C   UNL     1       3.352   1.164  19.333  0.00  0.00    +0.000 A 
ATOM      8  C   UNL     1       4.484   1.952  19.527  0.00  0.00    +0.000 A 
ATOM      9  C   UNL     1       4.467   3.354  19.302  0.00  0.00    +0.000 A 
ATOM     10  C   UNL     1       3.292   3.970  18.802  0.00  0.00    +0.000 A 
ATOM     11  H   UNL     1       0.411   4.117  18.863  0.00  0.00    +0.000 HD
ENDBRANCH   1   2
BRANCH   1  12
ATOM     12  C   UNL     1       2.416   7.705  18.670  0.00  0.00    +0.000 A 
ATOM     13  C   UNL     1       1.936   8.689  17.789  0.00  0.00    +0.000 A 
ATOM     14  C   UNL     1       1.088   9.746  18.228  0.00  0.00    +0.000 A 
ATOM     15  C   UNL     1       0.676   9.883  19.566  0.00  0.00    +0.000 A 
ATOM     16  C   UNL     1       1.110   8.846  20.415  0.00  0.00    +0.000 A 
ATOM     17  C   UNL     1       1.953   7.792  19.986  0.00  0.00    +0.000 A 
BRANCH  15  18
ATOM     18  N   UNL     1      -0.033  10.981  20.021  0.00  0.00    +0.000 N 
ATOM     19  C   UNL     1      -0.671  11.026  21.336  0.00  0.00    +0.000 C 
ATOM     20  C   UNL     1       0.054  12.283  19.359  0.00  0.00    +0.000 C 
ENDBRANCH  15  18
ENDBRANCH   1  12
BRANCH   1  21
ATOM     21  C   UNL     1       4.113   7.023  16.896  0.00  0.00    +0.000 C 
BRANCH  21  22
ATOM     22  N   UNL     1       5.559   7.324  16.823  0.00  0.00    +0.000 NA
ATOM     23  H   UNL     1       5.836   8.143  16.282  0.00  0.00    +0.000 HD
BRANCH  22  24
ATOM     24  S   UNL     1       6.772   6.184  16.911  0.00  0.00    +0.000 S 
ATOM     25  O   UNL     1       6.551   5.341  18.066  0.00  0.00    +0.000 OA
ATOM     26  O   UNL     1       8.013   6.899  16.720  0.00  0.00    +0.000 OA
BRANCH  24  30
ATOM     27  C   UNL     1       6.081   3.663  13.163  0.00  0.00    +0.000 A 
ATOM     28  C   UNL     1       5.206   3.535  14.268  0.00  0.00    +0.000 A 
ATOM     29  C   UNL     1       5.418   4.299  15.420  0.00  0.00    +0.000 A 
ATOM     30  C   UNL     1       6.497   5.187  15.469  0.00  0.00    +0.000 A 
ATOM     31  C   UNL     1       7.334   5.353  14.363  0.00  0.00    +0.000 A 
ATOM     32  C   UNL     1       7.135   4.581  13.216  0.00  0.00    +0.000 A 
BRANCH  27  33
ATOM     33  C   UNL     1       5.841   2.804  11.976  0.00  0.00    +0.000 C 
ATOM     34  O   UNL     1       6.722   2.165  11.425  0.00  0.00    +0.000 OA
BRANCH  33  35
ATOM     35  O   UNL     1       4.543   2.884  11.589  0.00  0.00    +0.000 OA
BRANCH  35  37
ATOM     36  C   UNL     1       2.921   3.647   9.968  0.00  0.00    +0.000 C 
ATOM     37  C   UNL     1       4.239   3.932  10.663  0.00  0.00    +0.000 C 
ENDBRANCH  35  37
ENDBRANCH  33  35
ENDBRANCH  27  33
ENDBRANCH  24  30
ENDBRANCH  22  24
ENDBRANCH  21  22
ENDBRANCH   1  21
TORSDOF 10
ENDMDL
MODEL 6
REMARK VINA RESULT:      -7.9      3.119      5.593
REMARK  Name = 
REMARK  13 active torsions:
REMARK  status: ('A' for Active; 'I' for Inactive)
REMARK    1  A    between atoms: C_1  and  C_2
REMARK    2  A    between atoms: C_2  and  O_3
REMARK    3  A    between atoms: O_3  and  C_4
REMARK    4  A    between atoms: C_4  and  C_6
REMARK    5  A    between atoms: C_9  and  S_10
REMARK    6  A    between atoms: S_10  and  N_13
REMARK    7  A    between atoms: N_13  and  C_14
REMARK    8  A    between atoms: C_14  and  C_15
REMARK    9  A    between atoms: C_15  and  C_16
REMARK   10  A    between atoms: C_15  and  C_25
REMARK   11  A    between atoms: C_19  and  N_20
REMARK   12  A    between atoms: N_20  and  C_21
REMARK   13  A    between atoms: N_20  and  C_22
REMARK                            x       y       z     vdW  Elec       q    Type
REMARK                         _______ _______ _______ _____ _____    ______ ____
ROOT
ATOM      1  C   UNL     1       3.588   6.641  18.527  0.00  0.00    +0.000 C 
ENDROOT
BRANCH   1   2
ATOM      2  C   UNL     1       2.736   5.367  18.653  0.00  0.00    +0.000 A 
ATOM      3  C   UNL     1       2.444   4.522  17.589  0.00  0.00    +0.000 A 
ATOM      4  N   UNL     1       1.275   3.906  17.940  0.00  0.00    +0.000 N 
ATOM      5  C   UNL     1       1.467   3.540  19.253  0.00  0.00    +0.000 A 
ATOM      6  C   UNL     1       0.882   2.488  19.962  0.00  0.00    +0.000 A 
ATOM      7  C   UNL     1       1.256   2.336  21.289  0.00  0.00    +0.000 A 
ATOM      8  C   UNL     1       2.115   3.258  21.882  0.00  0.00    +0.000 A 
ATOM      9  C   UNL     1       2.642   4.362  21.159  0.00  0.00    +0.000 A 
ATOM     10  C   UNL     1       2.347   4.502  19.781  0.00  0.00    +0.000 A 
ATOM     11  H   UNL     1       0.376   4.291  17.684  0.00  0.00    +0.000 HD
ENDBRANCH   1   2
BRANCH   1  12
ATOM     12  C   UNL     1       2.634   7.837  18.724  0.00  0.00    +0.000 A 
ATOM     13  C   UNL     1       1.942   8.093  19.920  0.00  0.00    +0.000 A 
ATOM     14  C   UNL     1       0.909   9.070  20.000  0.00  0.00    +0.000 A 
ATOM     15  C   UNL     1       0.504   9.839  18.894  0.00  0.00    +0.000 A 
ATOM     16  C   UNL     1       1.259   9.617  17.726  0.00  0.00    +0.000 A 
ATOM     17  C   UNL     1       2.289   8.648  17.639  0.00  0.00    +0.000 A 
BRANCH  15  18
ATOM     18  N   UNL     1      -0.587  10.689  18.933  0.00  0.00    +0.000 N 
ATOM     19  C   UNL     1      -0.697  11.799  19.878  0.00  0.00    +0.000 C 
ATOM     20  C   UNL     1      -1.567  10.735  17.847  0.00  0.00    +0.000 C 
ENDBRANCH  15  18
ENDBRANCH   1  12
BRANCH   1  21
ATOM     21  C   UNL     1       4.298   6.738  17.139  0.00  0.00    +0.000 C 
BRANCH  21  22
ATOM     22  N   UNL     1       5.067   5.561  16.679  0.00  0.00    +0.000 NA
ATOM     23  H   UNL     1       4.533   4.763  16.334  0.00  0.00    +0.000 HD
BRANCH  22  24
ATOM     24  S   UNL     1       6.563   5.116  17.264  0.00  0.00    +0.000 S 
ATOM     25  O   UNL     1       7.344   4.545  16.189  0.00  0.00    +0.000 OA
ATOM     26  O   UNL     1       6.317   4.393  18.491  0.00  0.00    +0.000 OA
BRANCH  24  30
ATOM     27  C   UNL     1       8.479   9.097  18.428  0.00  0.00    +0.000 A 
ATOM     28  C   UNL     1       7.607   9.035  17.316  0.00  0.00    +0.000 A 
ATOM     29  C   UNL     1       7.024   7.817  16.952  0.00  0.00    +0.000 A 
ATOM     30  C   UNL     1       7.309   6.667  17.693  0.00  0.00    +0.000 A 
ATOM     31  C   UNL     1       8.131   6.733  18.821  0.00  0.00    +0.000 A 
ATOM     32  C   UNL     1       8.727   7.944  19.180  0.00  0.00    +0.000 A 
BRANCH  27  33
ATOM     33  C   UNL     1       9.106  10.403  18.755  0.00  0.00    +0.000 C 
ATOM     34  O   UNL     1       9.079  11.364  18.005  0.00  0.00    +0.000 OA
BRANCH  33  35
ATOM     35  O   UNL     1       9.734  10.337  19.956  0.00  0.00    +0.000 OA
BRANCH  35  37
ATOM     36  C   UNL     1      10.318  12.461  20.949  0.00  0.00    +0.000 C 
ATOM     37  C   UNL     1       9.326  11.314  20.919  0.00  0.00    +0.000 C 
ENDBRANCH  35  37
ENDBRANCH  33  35
ENDBRANCH  27  33
ENDBRANCH  24  30
ENDBRANCH  22  24
ENDBRANCH  21  22
ENDBRANCH   1  21
TORSDOF 10
ENDMDL
MODEL 7
REMARK VINA RESULT:      -7.8      3.027      5.502
REMARK  Name = 
REMARK  13 active torsions:
REMARK  status: ('A' for Active; 'I' for Inactive)
REMARK    1  A    between atoms: C_1  and  C_2
REMARK    2  A    between atoms: C_2  and  O_3
REMARK    3  A    between atoms: O_3  and  C_4
REMARK    4  A    between atoms: C_4  and  C_6
REMARK    5  A    between atoms: C_9  and  S_10
REMARK    6  A    between atoms: S_10  and  N_13
REMARK    7  A    between atoms: N_13  and  C_14
REMARK    8  A    between atoms: C_14  and  C_15
REMARK    9  A    between atoms: C_15  and  C_16
REMARK   10  A    between atoms: C_15  and  C_25
REMARK   11  A    between atoms: C_19  and  N_20
REMARK   12  A    between atoms: N_20  and  C_21
REMARK   13  A    between atoms: N_20  and  C_22
REMARK                            x       y       z     vdW  Elec       q    Type
REMARK                         _______ _______ _______ _____ _____    ______ ____
ROOT
ATOM      1  C   UNL     1       3.550   6.570  18.399  0.00  0.00    +0.000 C 
ENDROOT
BRANCH   1   2
ATOM      2  C   UNL     1       2.750   5.267  18.552  0.00  0.00    +0.000 A 
ATOM      3  C   UNL     1       2.547   4.357  17.521  0.00  0.00    +0.000 A 
ATOM      4  N   UNL     1       1.390   3.705  17.849  0.00  0.00    +0.000 N 
ATOM      5  C   UNL     1       1.534   3.414  19.186  0.00  0.00    +0.000 A 
ATOM      6  C   UNL     1       0.962   2.373  19.921  0.00  0.00    +0.000 A 
ATOM      7  C   UNL     1       1.277   2.306  21.271  0.00  0.00    +0.000 A 
ATOM      8  C   UNL     1       2.066   3.294  21.854  0.00  0.00    +0.000 A 
ATOM      9  C   UNL     1       2.579   4.384  21.100  0.00  0.00    +0.000 A 
ATOM     10  C   UNL     1       2.345   4.442  19.703  0.00  0.00    +0.000 A 
ATOM     11  H   UNL     1       0.489   4.035  17.531  0.00  0.00    +0.000 HD
ENDBRANCH   1   2
BRANCH   1  12
ATOM     12  C   UNL     1       2.558   7.731  18.619  0.00  0.00    +0.000 A 
ATOM     13  C   UNL     1       2.372   8.781  17.704  0.00  0.00    +0.000 A 
ATOM     14  C   UNL     1       1.618   9.944  18.033  0.00  0.00    +0.000 A 
ATOM     15  C   UNL     1       1.015  10.127  19.290  0.00  0.00    +0.000 A 
ATOM     16  C   UNL     1       1.154   9.031  20.165  0.00  0.00    +0.000 A 
ATOM     17  C   UNL     1       1.901   7.872  19.845  0.00  0.00    +0.000 A 
BRANCH  15  18
ATOM     18  N   UNL     1       0.399  11.310  19.659  0.00  0.00    +0.000 N 
ATOM     19  C   UNL     1       0.272  11.740  21.051  0.00  0.00    +0.000 C 
ATOM     20  C   UNL     1       0.102  12.360  18.684  0.00  0.00    +0.000 C 
ENDBRANCH  15  18
ENDBRANCH   1  12
BRANCH   1  21
ATOM     21  C   UNL     1       4.218   6.688  16.992  0.00  0.00    +0.000 C 
BRANCH  21  22
ATOM     22  N   UNL     1       5.047   5.554  16.529  0.00  0.00    +0.000 NA
ATOM     23  H   UNL     1       4.566   4.796  16.044  0.00  0.00    +0.000 HD
BRANCH  22  24
ATOM     24  S   UNL     1       6.455   5.046  17.260  0.00  0.00    +0.000 S 
ATOM     25  O   UNL     1       7.296   4.399  16.277  0.00  0.00    +0.000 OA
ATOM     26  O   UNL     1       6.059   4.377  18.478  0.00  0.00    +0.000 OA
BRANCH  24  30
ATOM     27  C   UNL     1       8.490   8.949  18.488  0.00  0.00    +0.000 A 
ATOM     28  C   UNL     1       7.639   8.925  17.358  0.00  0.00    +0.000 A 
ATOM     29  C   UNL     1       7.020   7.731  16.975  0.00  0.00    +0.000 A 
ATOM     30  C   UNL     1       7.248   6.567  17.714  0.00  0.00    +0.000 A 
ATOM     31  C   UNL     1       8.048   6.597  18.859  0.00  0.00    +0.000 A 
ATOM     32  C   UNL     1       8.680   7.783  19.238  0.00  0.00    +0.000 A 
BRANCH  27  33
ATOM     33  C   UNL     1       9.156  10.228  18.837  0.00  0.00    +0.000 C 
ATOM     34  O   UNL     1       9.632  10.983  18.005  0.00  0.00    +0.000 OA
BRANCH  33  35
ATOM     35  O   UNL     1       9.194  10.390  20.183  0.00  0.00    +0.000 OA
BRANCH  35  37
ATOM     36  C   UNL     1       8.810  11.809  22.102  0.00  0.00    +0.000 C 
ATOM     37  C   UNL     1       9.215  11.746  20.641  0.00  0.00    +0.000 C 
ENDBRANCH  35  37
ENDBRANCH  33  35
ENDBRANCH  27  33
ENDBRANCH  24  30
ENDBRANCH  22  24
ENDBRANCH  21  22
ENDBRANCH   1  21
TORSDOF 10
ENDMDL
MODEL 8
REMARK VINA RESULT:      -7.8      1.193      1.986
REMARK  Name = 
REMARK  13 active torsions:
REMARK  status: ('A' for Active; 'I' for Inactive)
REMARK    1  A    between atoms: C_1  and  C_2
REMARK    2  A    between atoms: C_2  and  O_3
REMARK    3  A    between atoms: O_3  and  C_4
REMARK    4  A    between atoms: C_4  and  C_6
REMARK    5  A    between atoms: C_9  and  S_10
REMARK    6  A    between atoms: S_10  and  N_13
REMARK    7  A    between atoms: N_13  and  C_14
REMARK    8  A    between atoms: C_14  and  C_15
REMARK    9  A    between atoms: C_15  and  C_16
REMARK   10  A    between atoms: C_15  and  C_25
REMARK   11  A    between atoms: C_19  and  N_20
REMARK   12  A    between atoms: N_20  and  C_21
REMARK   13  A    between atoms: N_20  and  C_22
REMARK                            x       y       z     vdW  Elec       q    Type
REMARK                         _______ _______ _______ _____ _____    ______ ____
ROOT
ATOM      1  C   UNL     1       3.459   6.749  19.511  0.00  0.00    +0.000 C 
ENDROOT
BRANCH   1   2
ATOM      2  C   UNL     1       2.637   5.492  19.837  0.00  0.00    +0.000 A 
ATOM      3  C   UNL     1       1.596   5.465  20.757  0.00  0.00    +0.000 A 
ATOM      4  N   UNL     1       1.530   4.164  21.176  0.00  0.00    +0.000 N 
ATOM      5  C   UNL     1       1.623   3.430  20.016  0.00  0.00    +0.000 A 
ATOM      6  C   UNL     1       1.126   2.153  19.748  0.00  0.00    +0.000 A 
ATOM      7  C   UNL     1       1.359   1.638  18.481  0.00  0.00    +0.000 A 
ATOM      8  C   UNL     1       2.127   2.355  17.566  0.00  0.00    +0.000 A 
ATOM      9  C   UNL     1       2.681   3.623  17.887  0.00  0.00    +0.000 A 
ATOM     10  C   UNL     1       2.398   4.215  19.142  0.00  0.00    +0.000 A 
ATOM     11  H   UNL     1       2.048   3.842  21.982  0.00  0.00    +0.000 HD
ENDBRANCH   1   2
BRANCH   1  12
ATOM     12  C   UNL     1       2.450   7.866  19.173  0.00  0.00    +0.000 A 
ATOM     13  C   UNL     1       1.722   8.578  20.142  0.00  0.00    +0.000 A 
ATOM     14  C   UNL     1       0.646   9.443  19.792  0.00  0.00    +0.000 A 
ATOM     15  C   UNL     1       0.232   9.641  18.464  0.00  0.00    +0.000 A 
ATOM     16  C   UNL     1       1.020   8.975  17.506  0.00  0.00    +0.000 A 
ATOM     17  C   UNL     1       2.093   8.114  17.845  0.00  0.00    +0.000 A 
BRANCH  15  18
ATOM     18  N   UNL     1      -0.896  10.371  18.132  0.00  0.00    +0.000 N 
ATOM     19  C   UNL     1      -1.783  10.008  17.029  0.00  0.00    +0.000 C 
ATOM     20  C   UNL     1      -1.456  11.376  19.037  0.00  0.00    +0.000 C 
ENDBRANCH  15  18
ENDBRANCH   1  12
BRANCH   1  21
ATOM     21  C   UNL     1       4.434   6.520  18.312  0.00  0.00    +0.000 C 
BRANCH  21  22
ATOM     22  N   UNL     1       5.530   5.544  18.497  0.00  0.00    +0.000 NA
ATOM     23  H   UNL     1       5.603   5.097  19.412  0.00  0.00    +0.000 HD
BRANCH  22  24
ATOM     24  S   UNL     1       6.991   5.594  17.697  0.00  0.00    +0.000 S 
ATOM     25  O   UNL     1       7.925   4.707  18.355  0.00  0.00    +0.000 OA
ATOM     26  O   UNL     1       7.289   6.992  17.489  0.00  0.00    +0.000 OA
BRANCH  24  30
ATOM     27  C   UNL     1       6.027   3.814  13.600  0.00  0.00    +0.000 A 
ATOM     28  C   UNL     1       5.254   3.446  14.726  0.00  0.00    +0.000 A 
ATOM     29  C   UNL     1       5.550   3.983  15.983  0.00  0.00    +0.000 A 
ATOM     30  C   UNL     1       6.611   4.882  16.117  0.00  0.00    +0.000 A 
ATOM     31  C   UNL     1       7.347   5.286  14.999  0.00  0.00    +0.000 A 
ATOM     32  C   UNL     1       7.065   4.741  13.744  0.00  0.00    +0.000 A 
BRANCH  27  33
ATOM     33  C   UNL     1       5.703   3.190  12.293  0.00  0.00    +0.000 C 
ATOM     34  O   UNL     1       6.350   2.276  11.809  0.00  0.00    +0.000 OA
BRANCH  33  35
ATOM     35  O   UNL     1       4.641   3.813  11.722  0.00  0.00    +0.000 OA
BRANCH  35  37
ATOM     36  C   UNL     1       3.084   4.009   9.885  0.00  0.00    +0.000 C 
ATOM     37  C   UNL     1       3.984   3.083  10.682  0.00  0.00    +0.000 C 
ENDBRANCH  35  37
ENDBRANCH  33  35
ENDBRANCH  27  33
ENDBRANCH  24  30
ENDBRANCH  22  24
ENDBRANCH  21  22
ENDBRANCH   1  21
TORSDOF 10
ENDMDL
MODEL 9
REMARK VINA RESULT:      -7.8      0.583      1.015
REMARK  Name = 
REMARK  13 active torsions:
REMARK  status: ('A' for Active; 'I' for Inactive)
REMARK    1  A    between atoms: C_1  and  C_2
REMARK    2  A    between atoms: C_2  and  O_3
REMARK    3  A    between atoms: O_3  and  C_4
REMARK    4  A    between atoms: C_4  and  C_6
REMARK    5  A    between atoms: C_9  and  S_10
REMARK    6  A    between atoms: S_10  and  N_13
REMARK    7  A    between atoms: N_13  and  C_14
REMARK    8  A    between atoms: C_14  and  C_15
REMARK    9  A    between atoms: C_15  and  C_16
REMARK   10  A    between atoms: C_15  and  C_25
REMARK   11  A    between atoms: C_19  and  N_20
REMARK   12  A    between atoms: N_20  and  C_21
REMARK   13  A    between atoms: N_20  and  C_22
REMARK                            x       y       z     vdW  Elec       q    Type
REMARK                         _______ _______ _______ _____ _____    ______ ____
ROOT
ATOM      1  C   UNL     1       3.449   6.934  18.828  0.00  0.00    +0.000 C 
ENDROOT
BRANCH   1   2
ATOM      2  C   UNL     1       2.651   5.621  18.780  0.00  0.00    +0.000 A 
ATOM      3  C   UNL     1       2.451   4.878  17.623  0.00  0.00    +0.000 A 
ATOM      4  N   UNL     1       1.295   4.182  17.848  0.00  0.00    +0.000 N 
ATOM      5  C   UNL     1       1.439   3.692  19.125  0.00  0.00    +0.000 A 
ATOM      6  C   UNL     1       0.869   2.550  19.693  0.00  0.00    +0.000 A 
ATOM      7  C   UNL     1       1.183   2.279  21.017  0.00  0.00    +0.000 A 
ATOM      8  C   UNL     1       1.970   3.169  21.744  0.00  0.00    +0.000 A 
ATOM      9  C   UNL     1       2.481   4.361  21.165  0.00  0.00    +0.000 A 
ATOM     10  C   UNL     1       2.247   4.630  19.793  0.00  0.00    +0.000 A 
ATOM     11  H   UNL     1       0.394   4.554  17.583  0.00  0.00    +0.000 HD
ENDBRANCH   1   2
BRANCH   1  12
ATOM     12  C   UNL     1       2.419   8.079  18.920  0.00  0.00    +0.000 A 
ATOM     13  C   UNL     1       1.674   8.366  20.076  0.00  0.00    +0.000 A 
ATOM     14  C   UNL     1       0.582   9.280  20.063  0.00  0.00    +0.000 A 
ATOM     15  C   UNL     1       0.168   9.952  18.899  0.00  0.00    +0.000 A 
ATOM     16  C   UNL     1       0.973   9.704  17.770  0.00  0.00    +0.000 A 
ATOM     17  C   UNL     1       2.061   8.797  17.775  0.00  0.00    +0.000 A 
BRANCH  15  18
ATOM     18  N   UNL     1      -0.973  10.733  18.852  0.00  0.00    +0.000 N 
ATOM     19  C   UNL     1      -2.184  10.330  18.139  0.00  0.00    +0.000 C 
ATOM     20  C   UNL     1      -1.166  11.870  19.753  0.00  0.00    +0.000 C 
ENDBRANCH  15  18
ENDBRANCH   1  12
BRANCH   1  21
ATOM     21  C   UNL     1       4.353   7.119  17.567  0.00  0.00    +0.000 C 
BRANCH  21  22
ATOM     22  N   UNL     1       5.818   7.057  17.759  0.00  0.00    +0.000 NA
ATOM     23  H   UNL     1       6.361   7.863  17.449  0.00  0.00    +0.000 HD
BRANCH  22  24
ATOM     24  S   UNL     1       6.716   5.653  17.768  0.00  0.00    +0.000 S 
ATOM     25  O   UNL     1       6.163   4.739  18.743  0.00  0.00    +0.000 OA
ATOM     26  O   UNL     1       8.101   6.061  17.810  0.00  0.00    +0.000 OA
BRANCH  24  30
ATOM     27  C   UNL     1       5.908   3.824  13.659  0.00  0.00    +0.000 A 
ATOM     28  C   UNL     1       6.889   4.834  13.799  0.00  0.00    +0.000 A 
ATOM     29  C   UNL     1       7.134   5.401  15.053  0.00  0.00    +0.000 A 
ATOM     30  C   UNL     1       6.406   4.964  16.163  0.00  0.00    +0.000 A 
ATOM     31  C   UNL     1       5.470   3.933  16.038  0.00  0.00    +0.000 A 
ATOM     32  C   UNL     1       5.211   3.373  14.785  0.00  0.00    +0.000 A 
BRANCH  27  33
ATOM     33  C   UNL     1       5.653   3.277  12.303  0.00  0.00    +0.000 C 
ATOM     34  O   UNL     1       6.343   2.412  11.790  0.00  0.00    +0.000 OA
BRANCH  33  35
ATOM     35  O   UNL     1       4.598   3.909  11.729  0.00  0.00    +0.000 OA
BRANCH  35  37
ATOM     36  C   UNL     1       2.857   2.807  10.467  0.00  0.00    +0.000 C 
ATOM     37  C   UNL     1       4.234   3.442  10.426  0.00  0.00    +0.000 C 
ENDBRANCH  35  37
ENDBRANCH  33  35
ENDBRANCH  27  33
ENDBRANCH  24  30
ENDBRANCH  22  24
ENDBRANCH  21  22
ENDBRANCH   1  21
TORSDOF 10
ENDMDL
