MODEL 1
REMARK VINA RESULT:      -8.7      0.000      0.000
REMARK  Name = 
REMARK  9 active torsions:
REMARK  status: ('A' for Active; 'I' for Inactive)
REMARK    1  A    between atoms: C_1  and  C_2
REMARK    2  A    between atoms: C_9  and  S_10
REMARK    3  A    between atoms: S_10  and  N_13
REMARK    4  A    between atoms: N_13  and  C_14
REMARK    5  A    between atoms: C_14  and  C_15
REMARK    6  A    between atoms: C_15  and  C_16
REMARK    7  A    between atoms: N_18  and  C_19
REMARK    8  A    between atoms: N_22  and  C_23
REMARK    9  A    between atoms: C_23  and  C_24
REMARK                            x       y       z     vdW  Elec       q    Type
REMARK                         _______ _______ _______ _____ _____    ______ ____
ROOT
ATOM      1  C   UNL     1       1.337   6.323  20.696  0.00  0.00    +0.000 C 
ENDROOT
BRANCH   1   2
ATOM      2  N   UNL     1       2.319   5.323  21.138  0.00  0.00    +0.000 NA
ATOM      3  H   UNL     1       3.273   5.664  21.272  0.00  0.00    +0.000 HD
BRANCH   2   4
ATOM      4  S   UNL     1       2.314   3.895  20.202  0.00  0.00    +0.000 S 
ATOM      5  O   UNL     1       1.015   3.782  19.573  0.00  0.00    +0.000 OA
ATOM      6  O   UNL     1       2.886   2.846  21.011  0.00  0.00    +0.000 OA
BRANCH   4  15
ATOM      7  C   UNL     1       5.977   4.066  14.008  0.00  0.00    +0.000 C 
ATOM      8  C   UNL     1       6.859   4.931  14.863  0.00  0.00    +0.000 C 
ATOM      9  O   UNL     1       7.893   5.401  14.374  0.00  0.00    +0.000 OA
ATOM     10  N   UNL     1       6.495   5.205  16.164  0.00  0.00    +0.000 N 
ATOM     11  C   UNL     1       7.320   6.135  16.950  0.00  0.00    +0.000 C 
ATOM     12  C   UNL     1       6.798   6.117  18.386  0.00  0.00    +0.000 C 
ATOM     13  C   UNL     1       5.526   5.342  18.237  0.00  0.00    +0.000 A 
ATOM     14  C   UNL     1       4.595   5.091  19.239  0.00  0.00    +0.000 A 
ATOM     15  C   UNL     1       3.505   4.273  18.927  0.00  0.00    +0.000 A 
ATOM     16  C   UNL     1       3.363   3.724  17.644  0.00  0.00    +0.000 A 
ATOM     17  C   UNL     1       4.317   3.984  16.653  0.00  0.00    +0.000 A 
ATOM     18  C   UNL     1       5.401   4.802  16.952  0.00  0.00    +0.000 A 
ENDBRANCH   4  15
ENDBRANCH   2   4
ENDBRANCH   1   2
BRANCH   1  19
ATOM     19  C   UNL     1       1.656   7.738  21.142  0.00  0.00    +0.000 C 
BRANCH  19  20
ATOM     20  C   UNL     1       0.432   8.651  21.054  0.00  0.00    +0.000 C 
ATOM     21  O   UNL     1      -0.511   8.529  21.824  0.00  0.00    +0.000 OA
ATOM     22  N   UNL     1       0.498   9.651  20.105  0.00  0.00    +0.000 N 
ATOM     23  H   UNL     1       1.258   9.686  19.447  0.00  0.00    +0.000 HD
BRANCH  22  24
ATOM     24  C   UNL     1      -0.588  10.590  19.810  0.00  0.00    +0.000 C 
ATOM     25  C   UNL     1      -0.301  11.445  18.581  0.00  0.00    +0.000 C 
ATOM     26  C   UNL     1       0.877  12.387  18.825  0.00  0.00    +0.000 C 
ATOM     27  N   UNL     1       0.693  13.269  19.996  0.00  0.00    +0.000 NA
ATOM     28  C   UNL     1       0.324  12.523  21.206  0.00  0.00    +0.000 C 
ATOM     29  C   UNL     1      -0.828  11.529  20.997  0.00  0.00    +0.000 C 
BRANCH  27  30
ATOM     30  C   UNL     1       1.947  14.038  20.199  0.00  0.00    +0.000 C 
BRANCH  30  31
ATOM     31  C   UNL     1       2.245  15.105  19.164  0.00  0.00    +0.000 A 
ATOM     32  C   UNL     1       3.322  14.947  18.274  0.00  0.00    +0.000 A 
ATOM     33  C   UNL     1       3.559  15.887  17.268  0.00  0.00    +0.000 A 
ATOM     34  C   UNL     1       2.715  16.987  17.131  0.00  0.00    +0.000 A 
ATOM     35  C   UNL     1       1.650  17.161  18.014  0.00  0.00    +0.000 A 
ATOM     36  C   UNL     1       1.421  16.230  19.031  0.00  0.00    +0.000 A 
ENDBRANCH  30  31
ENDBRANCH  27  30
ENDBRANCH  22  24
ENDBRANCH  19  20
ENDBRANCH   1  19
TORSDOF 8
ENDMDL
MODEL 2
REMARK VINA RESULT:      -8.7      2.159      3.596
REMARK  Name = 
REMARK  9 active torsions:
REMARK  status: ('A' for Active; 'I' for Inactive)
REMARK    1  A    between atoms: C_1  and  C_2
REMARK    2  A    between atoms: C_9  and  S_10
REMARK    3  A    between atoms: S_10  and  N_13
REMARK    4  A    between atoms: N_13  and  C_14
REMARK    5  A    between atoms: C_14  and  C_15
REMARK    6  A    between atoms: C_15  and  C_16
REMARK    7  A    between atoms: N_18  and  C_19
REMARK    8  A    between atoms: N_22  and  C_23
REMARK    9  A    between atoms: C_23  and  C_24
REMARK                            x       y       z     vdW  Elec       q    Type
REMARK                         _______ _______ _______ _____ _____    ______ ____
ROOT
ATOM      1  C   UNL     1       1.498   6.035  20.486  0.00  0.00    +0.000 C 
ENDROOT
BRANCH   1   2
ATOM      2  N   UNL     1       2.338   5.052  21.185  0.00  0.00    +0.000 NA
ATOM      3  H   UNL     1       3.243   5.393  21.516  0.00  0.00    +0.000 HD
BRANCH   2   4
ATOM      4  S   UNL     1       2.520   3.580  20.340  0.00  0.00    +0.000 S 
ATOM      5  O   UNL     1       1.247   3.258  19.732  0.00  0.00    +0.000 OA
ATOM      6  O   UNL     1       3.227   2.667  21.207  0.00  0.00    +0.000 OA
BRANCH   4  15
ATOM      7  C   UNL     1       5.937   4.036  14.021  0.00  0.00    +0.000 C 
ATOM      8  C   UNL     1       6.823   4.905  14.867  0.00  0.00    +0.000 C 
ATOM      9  O   UNL     1       7.822   5.422  14.352  0.00  0.00    +0.000 OA
ATOM     10  N   UNL     1       6.501   5.133  16.187  0.00  0.00    +0.000 N 
ATOM     11  C   UNL     1       7.325   6.068  16.968  0.00  0.00    +0.000 C 
ATOM     12  C   UNL     1       6.859   5.995  18.421  0.00  0.00    +0.000 C 
ATOM     13  C   UNL     1       5.607   5.183  18.298  0.00  0.00    +0.000 A 
ATOM     14  C   UNL     1       4.724   4.875  19.327  0.00  0.00    +0.000 A 
ATOM     15  C   UNL     1       3.649   4.030  19.033  0.00  0.00    +0.000 A 
ATOM     16  C   UNL     1       3.476   3.511  17.741  0.00  0.00    +0.000 A 
ATOM     17  C   UNL     1       4.383   3.828  16.723  0.00  0.00    +0.000 A 
ATOM     18  C   UNL     1       5.450   4.673  17.004  0.00  0.00    +0.000 A 
ENDBRANCH   4  15
ENDBRANCH   2   4
ENDBRANCH   1   2
BRANCH   1  19
ATOM     19  C   UNL     1       1.845   7.477  20.806  0.00  0.00    +0.000 C 
BRANCH  19  20
ATOM     20  C   UNL     1       1.710   8.379  19.577  0.00  0.00    +0.000 C 
ATOM     21  O   UNL     1       2.324   8.145  18.545  0.00  0.00    +0.000 OA
ATOM     22  N   UNL     1       0.805   9.415  19.691  0.00  0.00    +0.000 N 
ATOM     23  H   UNL     1       0.364   9.616  20.572  0.00  0.00    +0.000 HD
BRANCH  22  24
ATOM     24  C   UNL     1       0.571  10.432  18.661  0.00  0.00    +0.000 C 
ATOM     25  C   UNL     1       1.475  11.648  18.827  0.00  0.00    +0.000 C 
ATOM     26  C   UNL     1       1.145  12.411  20.109  0.00  0.00    +0.000 C 
ATOM     27  N   UNL     1      -0.265  12.842  20.192  0.00  0.00    +0.000 NA
ATOM     28  C   UNL     1      -1.203  11.737  19.953  0.00  0.00    +0.000 C 
ATOM     29  C   UNL     1      -0.883  10.912  18.697  0.00  0.00    +0.000 C 
BRANCH  27  30
ATOM     30  C   UNL     1      -0.485  13.455  21.526  0.00  0.00    +0.000 C 
BRANCH  30  31
ATOM     31  C   UNL     1      -1.879  13.301  22.104  0.00  0.00    +0.000 A 
ATOM     32  C   UNL     1      -2.130  12.345  23.104  0.00  0.00    +0.000 A 
ATOM     33  C   UNL     1      -3.391  12.247  23.697  0.00  0.00    +0.000 A 
ATOM     34  C   UNL     1      -4.411  13.111  23.308  0.00  0.00    +0.000 A 
ATOM     35  C   UNL     1      -4.179  14.057  22.310  0.00  0.00    +0.000 A 
ATOM     36  C   UNL     1      -2.923  14.145  21.704  0.00  0.00    +0.000 A 
ENDBRANCH  30  31
ENDBRANCH  27  30
ENDBRANCH  22  24
ENDBRANCH  19  20
ENDBRANCH   1  19
TORSDOF 8
ENDMDL
MODEL 3
REMARK VINA RESULT:      -8.7      5.533     10.923
REMARK  Name = 
REMARK  9 active torsions:
REMARK  status: ('A' for Active; 'I' for Inactive)
REMARK    1  A    between atoms: C_1  and  C_2
REMARK    2  A    between atoms: C_9  and  S_10
REMARK    3  A    between atoms: S_10  and  N_13
REMARK    4  A    between atoms: N_13  and  C_14
REMARK    5  A    between atoms: C_14  and  C_15
REMARK    6  A    between atoms: C_15  and  C_16
REMARK    7  A    between atoms: N_18  and  C_19
REMARK    8  A    between atoms: N_22  and  C_23
REMARK    9  A    between atoms: C_23  and  C_24
REMARK                            x       y       z     vdW  Elec       q    Type
REMARK                         _______ _______ _______ _____ _____    ______ ____
ROOT
ATOM      1  C   UNL     1       9.004  10.142  18.649  0.00  0.00    +0.000 C 
ENDROOT
BRANCH   1   2
ATOM      2  N   UNL     1       9.032  11.603  18.494  0.00  0.00    +0.000 NA
ATOM      3  H   UNL     1       9.162  11.949  17.542  0.00  0.00    +0.000 HD
BRANCH   2   4
ATOM      4  S   UNL     1      10.100  12.388  19.572  0.00  0.00    +0.000 S 
ATOM      5  O   UNL     1      10.458  13.663  18.991  0.00  0.00    +0.000 OA
ATOM      6  O   UNL     1      11.080  11.416  19.993  0.00  0.00    +0.000 OA
BRANCH   4  15
ATOM      7  C   UNL     1       6.150  11.652  25.545  0.00  0.00    +0.000 C 
ATOM      8  C   UNL     1       5.853  13.085  25.204  0.00  0.00    +0.000 C 
ATOM      9  O   UNL     1       5.080  13.725  25.927  0.00  0.00    +0.000 OA
ATOM     10  N   UNL     1       6.459  13.668  24.112  0.00  0.00    +0.000 N 
ATOM     11  C   UNL     1       6.233  15.100  23.856  0.00  0.00    +0.000 C 
ATOM     12  C   UNL     1       6.867  15.435  22.507  0.00  0.00    +0.000 C 
ATOM     13  C   UNL     1       7.639  14.185  22.215  0.00  0.00    +0.000 A 
ATOM     14  C   UNL     1       8.480  13.974  21.128  0.00  0.00    +0.000 A 
ATOM     15  C   UNL     1       9.049  12.706  20.980  0.00  0.00    +0.000 A 
ATOM     16  C   UNL     1       8.774  11.683  21.900  0.00  0.00    +0.000 A 
ATOM     17  C   UNL     1       7.917  11.916  22.982  0.00  0.00    +0.000 A 
ATOM     18  C   UNL     1       7.352  13.176  23.142  0.00  0.00    +0.000 A 
ENDBRANCH   4  15
ENDBRANCH   2   4
ENDBRANCH   1   2
BRANCH   1  19
ATOM     19  C   UNL     1       7.986   9.450  17.762  0.00  0.00    +0.000 C 
BRANCH  19  20
ATOM     20  C   UNL     1       8.038   7.929  17.920  0.00  0.00    +0.000 C 
ATOM     21  O   UNL     1       8.625   7.405  18.857  0.00  0.00    +0.000 OA
ATOM     22  N   UNL     1       7.326   7.205  16.984  0.00  0.00    +0.000 N 
ATOM     23  H   UNL     1       6.907   7.662  16.192  0.00  0.00    +0.000 HD
BRANCH  22  24
ATOM     24  C   UNL     1       7.297   5.741  16.912  0.00  0.00    +0.000 C 
ATOM     25  C   UNL     1       6.354   5.231  15.828  0.00  0.00    +0.000 C 
ATOM     26  C   UNL     1       4.900   5.563  16.159  0.00  0.00    +0.000 C 
ATOM     27  N   UNL     1       4.459   5.041  17.469  0.00  0.00    +0.000 NA
ATOM     28  C   UNL     1       5.371   5.418  18.557  0.00  0.00    +0.000 C 
ATOM     29  C   UNL     1       6.851   5.143  18.250  0.00  0.00    +0.000 C 
BRANCH  27  30
ATOM     30  C   UNL     1       3.083   5.535  17.726  0.00  0.00    +0.000 C 
BRANCH  30  31
ATOM     31  C   UNL     1       2.210   4.644  18.588  0.00  0.00    +0.000 A 
ATOM     32  C   UNL     1       1.667   3.459  18.061  0.00  0.00    +0.000 A 
ATOM     33  C   UNL     1       0.926   2.593  18.869  0.00  0.00    +0.000 A 
ATOM     34  C   UNL     1       0.728   2.895  20.214  0.00  0.00    +0.000 A 
ATOM     35  C   UNL     1       1.252   4.072  20.747  0.00  0.00    +0.000 A 
ATOM     36  C   UNL     1       1.980   4.948  19.936  0.00  0.00    +0.000 A 
ENDBRANCH  30  31
ENDBRANCH  27  30
ENDBRANCH  22  24
ENDBRANCH  19  20
ENDBRANCH   1  19
TORSDOF 8
ENDMDL
MODEL 4
REMARK VINA RESULT:      -8.6      5.444     10.910
REMARK  Name = 
REMARK  9 active torsions:
REMARK  status: ('A' for Active; 'I' for Inactive)
REMARK    1  A    between atoms: C_1  and  C_2
REMARK    2  A    between atoms: C_9  and  S_10
REMARK    3  A    between atoms: S_10  and  N_13
REMARK    4  A    between atoms: N_13  and  C_14
REMARK    5  A    between atoms: C_14  and  C_15
REMARK    6  A    between atoms: C_15  and  C_16
REMARK    7  A    between atoms: N_18  and  C_19
REMARK    8  A    between atoms: N_22  and  C_23
REMARK    9  A    between atoms: C_23  and  C_24
REMARK                            x       y       z     vdW  Elec       q    Type
REMARK                         _______ _______ _______ _____ _____    ______ ____
ROOT
ATOM      1  C   UNL     1       8.792  10.402  18.711  0.00  0.00    +0.000 C 
ENDROOT
BRANCH   1   2
ATOM      2  N   UNL     1       9.342  11.648  18.161  0.00  0.00    +0.000 NA
ATOM      3  H   UNL     1       9.826  11.565  17.265  0.00  0.00    +0.000 HD
BRANCH   2   4
ATOM      4  S   UNL     1      10.285  12.534  19.276  0.00  0.00    +0.000 S 
ATOM      5  O   UNL     1      10.625  13.799  18.663  0.00  0.00    +0.000 OA
ATOM      6  O   UNL     1      11.277  11.634  19.815  0.00  0.00    +0.000 OA
BRANCH   4  15
ATOM      7  C   UNL     1       5.192  15.510  23.401  0.00  0.00    +0.000 C 
ATOM      8  C   UNL     1       5.610  14.363  24.278  0.00  0.00    +0.000 C 
ATOM      9  O   UNL     1       5.063  14.221  25.378  0.00  0.00    +0.000 OA
ATOM     10  N   UNL     1       6.570  13.479  23.838  0.00  0.00    +0.000 N 
ATOM     11  C   UNL     1       6.890  12.307  24.668  0.00  0.00    +0.000 C 
ATOM     12  C   UNL     1       8.093  11.608  24.039  0.00  0.00    +0.000 C 
ATOM     13  C   UNL     1       8.208  12.320  22.727  0.00  0.00    +0.000 A 
ATOM     14  C   UNL     1       9.105  12.025  21.707  0.00  0.00    +0.000 A 
ATOM     15  C   UNL     1       9.117  12.859  20.585  0.00  0.00    +0.000 A 
ATOM     16  C   UNL     1       8.252  13.961  20.501  0.00  0.00    +0.000 A 
ATOM     17  C   UNL     1       7.362  14.244  21.544  0.00  0.00    +0.000 A 
ATOM     18  C   UNL     1       7.338  13.416  22.660  0.00  0.00    +0.000 A 
ENDBRANCH   4  15
ENDBRANCH   2   4
ENDBRANCH   1   2
BRANCH   1  19
ATOM     19  C   UNL     1       7.905   9.641  17.743  0.00  0.00    +0.000 C 
BRANCH  19  20
ATOM     20  C   UNL     1       8.054   8.127  17.907  0.00  0.00    +0.000 C 
ATOM     21  O   UNL     1       8.734   7.648  18.804  0.00  0.00    +0.000 OA
ATOM     22  N   UNL     1       7.320   7.355  17.029  0.00  0.00    +0.000 N 
ATOM     23  H   UNL     1       6.820   7.779  16.266  0.00  0.00    +0.000 HD
BRANCH  22  24
ATOM     24  C   UNL     1       7.368   5.891  16.970  0.00  0.00    +0.000 C 
ATOM     25  C   UNL     1       6.483   5.324  15.866  0.00  0.00    +0.000 C 
ATOM     26  C   UNL     1       5.005   5.583  16.153  0.00  0.00    +0.000 C 
ATOM     27  N   UNL     1       4.555   5.049  17.454  0.00  0.00    +0.000 NA
ATOM     28  C   UNL     1       5.415   5.481  18.564  0.00  0.00    +0.000 C 
ATOM     29  C   UNL     1       6.916   5.281  18.301  0.00  0.00    +0.000 C 
BRANCH  27  30
ATOM     30  C   UNL     1       3.149   5.473  17.668  0.00  0.00    +0.000 C 
BRANCH  30  31
ATOM     31  C   UNL     1       2.313   4.572  18.556  0.00  0.00    +0.000 A 
ATOM     32  C   UNL     1       1.997   4.965  19.868  0.00  0.00    +0.000 A 
ATOM     33  C   UNL     1       1.164   4.178  20.668  0.00  0.00    +0.000 A 
ATOM     34  C   UNL     1       0.627   2.997  20.162  0.00  0.00    +0.000 A 
ATOM     35  C   UNL     1       0.941   2.590  18.865  0.00  0.00    +0.000 A 
ATOM     36  C   UNL     1       1.787   3.367  18.070  0.00  0.00    +0.000 A 
ENDBRANCH  30  31
ENDBRANCH  27  30
ENDBRANCH  22  24
ENDBRANCH  19  20
ENDBRANCH   1  19
TORSDOF 8
ENDMDL
MODEL 5
REMARK VINA RESULT:      -8.4      2.376      4.173
REMARK  Name = 
REMARK  9 active torsions:
REMARK  status: ('A' for Active; 'I' for Inactive)
REMARK    1  A    between atoms: C_1  and  C_2
REMARK    2  A    between atoms: C_9  and  S_10
REMARK    3  A    between atoms: S_10  and  N_13
REMARK    4  A    between atoms: N_13  and  C_14
REMARK    5  A    between atoms: C_14  and  C_15
REMARK    6  A    between atoms: C_15  and  C_16
REMARK    7  A    between atoms: N_18  and  C_19
REMARK    8  A    between atoms: N_22  and  C_23
REMARK    9  A    between atoms: C_23  and  C_24
REMARK                            x       y       z     vdW  Elec       q    Type
REMARK                         _______ _______ _______ _____ _____    ______ ____
ROOT
ATOM      1  C   UNL     1       1.893   6.684  20.159  0.00  0.00    +0.000 C 
ENDROOT
BRANCH   1   2
ATOM      2  N   UNL     1       2.212   5.565  21.057  0.00  0.00    +0.000 NA
ATOM      3  H   UNL     1       3.015   5.704  21.674  0.00  0.00    +0.000 HD
BRANCH   2   4
ATOM      4  S   UNL     1       2.313   4.056  20.264  0.00  0.00    +0.000 S 
ATOM      5  O   UNL     1       1.037   3.803  19.630  0.00  0.00    +0.000 OA
ATOM      6  O   UNL     1       2.930   3.127  21.179  0.00  0.00    +0.000 OA
BRANCH   4  15
ATOM      7  C   UNL     1       5.916   4.065  14.033  0.00  0.00    +0.000 C 
ATOM      8  C   UNL     1       6.840   4.896  14.876  0.00  0.00    +0.000 C 
ATOM      9  O   UNL     1       7.887   5.324  14.375  0.00  0.00    +0.000 OA
ATOM     10  N   UNL     1       6.501   5.189  16.180  0.00  0.00    +0.000 N 
ATOM     11  C   UNL     1       7.370   6.088  16.954  0.00  0.00    +0.000 C 
ATOM     12  C   UNL     1       6.863   6.094  18.395  0.00  0.00    +0.000 C 
ATOM     13  C   UNL     1       5.559   5.370  18.262  0.00  0.00    +0.000 A 
ATOM     14  C   UNL     1       4.629   5.158  19.274  0.00  0.00    +0.000 A 
ATOM     15  C   UNL     1       3.505   4.383  18.976  0.00  0.00    +0.000 A 
ATOM     16  C   UNL     1       3.328   3.836  17.696  0.00  0.00    +0.000 A 
ATOM     17  C   UNL     1       4.282   4.056  16.695  0.00  0.00    +0.000 A 
ATOM     18  C   UNL     1       5.399   4.831  16.980  0.00  0.00    +0.000 A 
ENDBRANCH   4  15
ENDBRANCH   2   4
ENDBRANCH   1   2
BRANCH   1  19
ATOM     19  C   UNL     1       1.445   7.942  20.880  0.00  0.00    +0.000 C 
BRANCH  19  20
ATOM     20  C   UNL     1       1.194   9.095  19.906  0.00  0.00    +0.000 C 
ATOM     21  O   UNL     1       1.637   9.074  18.766  0.00  0.00    +0.000 OA
ATOM     22  N   UNL     1       0.387  10.111  20.376  0.00  0.00    +0.000 N 
ATOM     23  H   UNL     1       0.090  10.129  21.337  0.00  0.00    +0.000 HD
BRANCH  22  24
ATOM     24  C   UNL     1       0.075  11.336  19.634  0.00  0.00    +0.000 C 
ATOM     25  C   UNL     1       0.795  12.557  20.197  0.00  0.00    +0.000 C 
ATOM     26  C   UNL     1       0.292  12.897  21.599  0.00  0.00    +0.000 C 
ATOM     27  N   UNL     1      -1.166  13.123  21.664  0.00  0.00    +0.000 NA
ATOM     28  C   UNL     1      -1.930  12.025  21.057  0.00  0.00    +0.000 C 
ATOM     29  C   UNL     1      -1.431  11.617  19.662  0.00  0.00    +0.000 C 
BRANCH  27  30
ATOM     30  C   UNL     1      -1.542  13.318  23.086  0.00  0.00    +0.000 C 
BRANCH  30  31
ATOM     31  C   UNL     1      -3.023  13.494  23.362  0.00  0.00    +0.000 A 
ATOM     32  C   UNL     1      -3.726  14.572  22.795  0.00  0.00    +0.000 A 
ATOM     33  C   UNL     1      -5.105  14.701  22.980  0.00  0.00    +0.000 A 
ATOM     34  C   UNL     1      -5.799  13.748  23.721  0.00  0.00    +0.000 A 
ATOM     35  C   UNL     1      -5.113  12.680  24.297  0.00  0.00    +0.000 A 
ATOM     36  C   UNL     1      -3.731  12.558  24.127  0.00  0.00    +0.000 A 
ENDBRANCH  30  31
ENDBRANCH  27  30
ENDBRANCH  22  24
ENDBRANCH  19  20
ENDBRANCH   1  19
TORSDOF 8
ENDMDL
MODEL 6
REMARK VINA RESULT:      -8.3      3.614     10.461
REMARK  Name = 
REMARK  9 active torsions:
REMARK  status: ('A' for Active; 'I' for Inactive)
REMARK    1  A    between atoms: C_1  and  C_2
REMARK    2  A    between atoms: C_9  and  S_10
REMARK    3  A    between atoms: S_10  and  N_13
REMARK    4  A    between atoms: N_13  and  C_14
REMARK    5  A    between atoms: C_14  and  C_15
REMARK    6  A    between atoms: C_15  and  C_16
REMARK    7  A    between atoms: N_18  and  C_19
REMARK    8  A    between atoms: N_22  and  C_23
REMARK    9  A    between atoms: C_23  and  C_24
REMARK                            x       y       z     vdW  Elec       q    Type
REMARK                         _______ _______ _______ _____ _____    ______ ____
ROOT
ATOM      1  C   UNL     1       2.123   8.034  19.523  0.00  0.00    +0.000 C 
ENDROOT
BRANCH   1   2
ATOM      2  N   UNL     1       1.068   8.845  18.900  0.00  0.00    +0.000 NA
ATOM      3  H   UNL     1       1.066   8.866  17.879  0.00  0.00    +0.000 HD
BRANCH   2   4
ATOM      4  S   UNL     1       0.949  10.425  19.537  0.00  0.00    +0.000 S 
ATOM      5  O   UNL     1       1.879  11.265  18.814  0.00  0.00    +0.000 OA
ATOM      6  O   UNL     1       0.952  10.312  20.976  0.00  0.00    +0.000 OA
BRANCH   4  15
ATOM      7  C   UNL     1      -5.694  13.196  19.488  0.00  0.00    +0.000 C 
ATOM      8  C   UNL     1      -5.711  12.440  18.190  0.00  0.00    +0.000 C 
ATOM      9  O   UNL     1      -6.740  12.451  17.504  0.00  0.00    +0.000 OA
ATOM     10  N   UNL     1      -4.581  11.770  17.773  0.00  0.00    +0.000 N 
ATOM     11  C   UNL     1      -4.587  11.122  16.452  0.00  0.00    +0.000 C 
ATOM     12  C   UNL     1      -3.296  10.316  16.326  0.00  0.00    +0.000 C 
ATOM     13  C   UNL     1      -2.525  10.785  17.521  0.00  0.00    +0.000 A 
ATOM     14  C   UNL     1      -1.224  10.425  17.853  0.00  0.00    +0.000 A 
ATOM     15  C   UNL     1      -0.703  10.903  19.059  0.00  0.00    +0.000 A 
ATOM     16  C   UNL     1      -1.474  11.716  19.903  0.00  0.00    +0.000 A 
ATOM     17  C   UNL     1      -2.785  12.059  19.552  0.00  0.00    +0.000 A 
ATOM     18  C   UNL     1      -3.310  11.595  18.352  0.00  0.00    +0.000 A 
ENDBRANCH   4  15
ENDBRANCH   2   4
ENDBRANCH   1   2
BRANCH   1  19
ATOM     19  C   UNL     1       1.612   7.051  20.559  0.00  0.00    +0.000 C 
BRANCH  19  20
ATOM     20  C   UNL     1       2.282   5.683  20.423  0.00  0.00    +0.000 C 
ATOM     21  O   UNL     1       1.744   4.666  20.839  0.00  0.00    +0.000 OA
ATOM     22  N   UNL     1       3.483   5.669  19.743  0.00  0.00    +0.000 N 
ATOM     23  H   UNL     1       3.928   6.528  19.468  0.00  0.00    +0.000 HD
BRANCH  22  24
ATOM     24  C   UNL     1       4.320   4.479  19.557  0.00  0.00    +0.000 C 
ATOM     25  C   UNL     1       5.777   4.831  19.277  0.00  0.00    +0.000 C 
ATOM     26  C   UNL     1       5.925   5.538  17.931  0.00  0.00    +0.000 C 
ATOM     27  N   UNL     1       5.387   4.762  16.795  0.00  0.00    +0.000 NA
ATOM     28  C   UNL     1       4.010   4.309  17.029  0.00  0.00    +0.000 C 
ATOM     29  C   UNL     1       3.802   3.631  18.392  0.00  0.00    +0.000 C 
BRANCH  27  30
ATOM     30  C   UNL     1       5.476   5.604  15.575  0.00  0.00    +0.000 C 
BRANCH  30  31
ATOM     31  C   UNL     1       6.057   4.931  14.347  0.00  0.00    +0.000 A 
ATOM     32  C   UNL     1       5.329   3.935  13.672  0.00  0.00    +0.000 A 
ATOM     33  C   UNL     1       5.822   3.364  12.496  0.00  0.00    +0.000 A 
ATOM     34  C   UNL     1       7.041   3.789  11.974  0.00  0.00    +0.000 A 
ATOM     35  C   UNL     1       7.778   4.768  12.639  0.00  0.00    +0.000 A 
ATOM     36  C   UNL     1       7.294   5.329  13.824  0.00  0.00    +0.000 A 
ENDBRANCH  30  31
ENDBRANCH  27  30
ENDBRANCH  22  24
ENDBRANCH  19  20
ENDBRANCH   1  19
TORSDOF 8
ENDMDL
MODEL 7
REMARK VINA RESULT:      -8.2      2.300      4.001
REMARK  Name = 
REMARK  9 active torsions:
REMARK  status: ('A' for Active; 'I' for Inactive)
REMARK    1  A    between atoms: C_1  and  C_2
REMARK    2  A    between atoms: C_9  and  S_10
REMARK    3  A    between atoms: S_10  and  N_13
REMARK    4  A    between atoms: N_13  and  C_14
REMARK    5  A    between atoms: C_14  and  C_15
REMARK    6  A    between atoms: C_15  and  C_16
REMARK    7  A    between atoms: N_18  and  C_19
REMARK    8  A    between atoms: N_22  and  C_23
REMARK    9  A    between atoms: C_23  and  C_24
REMARK                            x       y       z     vdW  Elec       q    Type
REMARK                         _______ _______ _______ _____ _____    ______ ____
ROOT
ATOM      1  C   UNL     1       1.572   6.859  20.508  0.00  0.00    +0.000 C 
ENDROOT
BRANCH   1   2
ATOM      2  N   UNL     1       2.206   5.741  21.221  0.00  0.00    +0.000 NA
ATOM      3  H   UNL     1       3.143   5.920  21.587  0.00  0.00    +0.000 HD
BRANCH   2   4
ATOM      4  S   UNL     1       2.164   4.267  20.360  0.00  0.00    +0.000 S 
ATOM      5  O   UNL     1       0.867   4.160  19.727  0.00  0.00    +0.000 OA
ATOM      6  O   UNL     1       2.697   3.244  21.228  0.00  0.00    +0.000 OA
BRANCH   4  15
ATOM      7  C   UNL     1       5.740   4.203  14.114  0.00  0.00    +0.000 C 
ATOM      8  C   UNL     1       6.731   4.926  14.981  0.00  0.00    +0.000 C 
ATOM      9  O   UNL     1       7.808   5.284  14.489  0.00  0.00    +0.000 OA
ATOM     10  N   UNL     1       6.420   5.198  16.296  0.00  0.00    +0.000 N 
ATOM     11  C   UNL     1       7.361   5.996  17.097  0.00  0.00    +0.000 C 
ATOM     12  C   UNL     1       6.860   5.992  18.540  0.00  0.00    +0.000 C 
ATOM     13  C   UNL     1       5.501   5.382  18.389  0.00  0.00    +0.000 A 
ATOM     14  C   UNL     1       4.560   5.211  19.398  0.00  0.00    +0.000 A 
ATOM     15  C   UNL     1       3.375   4.541  19.078  0.00  0.00    +0.000 A 
ATOM     16  C   UNL     1       3.151   4.056  17.781  0.00  0.00    +0.000 A 
ATOM     17  C   UNL     1       4.117   4.232  16.783  0.00  0.00    +0.000 A 
ATOM     18  C   UNL     1       5.295   4.903  17.089  0.00  0.00    +0.000 A 
ENDBRANCH   4  15
ENDBRANCH   2   4
ENDBRANCH   1   2
BRANCH   1  19
ATOM     19  C   UNL     1       0.569   7.631  21.345  0.00  0.00    +0.000 C 
BRANCH  19  20
ATOM     20  C   UNL     1       0.999   9.085  21.548  0.00  0.00    +0.000 C 
ATOM     21  O   UNL     1       1.676   9.421  22.510  0.00  0.00    +0.000 OA
ATOM     22  N   UNL     1       0.634   9.963  20.547  0.00  0.00    +0.000 N 
ATOM     23  H   UNL     1       0.026   9.668  19.802  0.00  0.00    +0.000 HD
BRANCH  22  24
ATOM     24  C   UNL     1       0.886  11.407  20.574  0.00  0.00    +0.000 C 
ATOM     25  C   UNL     1       0.059  12.122  21.637  0.00  0.00    +0.000 C 
ATOM     26  C   UNL     1      -1.432  12.065  21.308  0.00  0.00    +0.000 C 
ATOM     27  N   UNL     1      -1.764  12.622  19.981  0.00  0.00    +0.000 NA
ATOM     28  C   UNL     1      -0.942  12.044  18.909  0.00  0.00    +0.000 C 
ATOM     29  C   UNL     1       0.564  12.038  19.216  0.00  0.00    +0.000 C 
BRANCH  27  30
ATOM     30  C   UNL     1      -3.210  12.394  19.731  0.00  0.00    +0.000 C 
BRANCH  30  31
ATOM     31  C   UNL     1      -4.165  13.164  20.621  0.00  0.00    +0.000 A 
ATOM     32  C   UNL     1      -5.208  12.497  21.287  0.00  0.00    +0.000 A 
ATOM     33  C   UNL     1      -6.046  13.183  22.169  0.00  0.00    +0.000 A 
ATOM     34  C   UNL     1      -5.844  14.540  22.406  0.00  0.00    +0.000 A 
ATOM     35  C   UNL     1      -4.821  15.217  21.744  0.00  0.00    +0.000 A 
ATOM     36  C   UNL     1      -3.991  14.536  20.849  0.00  0.00    +0.000 A 
ENDBRANCH  30  31
ENDBRANCH  27  30
ENDBRANCH  22  24
ENDBRANCH  19  20
ENDBRANCH   1  19
TORSDOF 8
ENDMDL
MODEL 8
REMARK VINA RESULT:      -8.2      2.945      4.491
REMARK  Name = 
REMARK  9 active torsions:
REMARK  status: ('A' for Active; 'I' for Inactive)
REMARK    1  A    between atoms: C_1  and  C_2
REMARK    2  A    between atoms: C_9  and  S_10
REMARK    3  A    between atoms: S_10  and  N_13
REMARK    4  A    between atoms: N_13  and  C_14
REMARK    5  A    between atoms: C_14  and  C_15
REMARK    6  A    between atoms: C_15  and  C_16
REMARK    7  A    between atoms: N_18  and  C_19
REMARK    8  A    between atoms: N_22  and  C_23
REMARK    9  A    between atoms: C_23  and  C_24
REMARK                            x       y       z     vdW  Elec       q    Type
REMARK                         _______ _______ _______ _____ _____    ______ ____
ROOT
ATOM      1  C   UNL     1       2.090   5.528  20.477  0.00  0.00    +0.000 C 
ENDROOT
BRANCH   1   2
ATOM      2  N   UNL     1       1.327   4.273  20.444  0.00  0.00    +0.000 NA
ATOM      3  H   UNL     1       0.694   4.115  21.230  0.00  0.00    +0.000 HD
BRANCH   2   4
ATOM      4  S   UNL     1       2.290   2.892  20.157  0.00  0.00    +0.000 S 
ATOM      5  O   UNL     1       1.464   1.907  19.492  0.00  0.00    +0.000 OA
ATOM      6  O   UNL     1       3.018   2.612  21.371  0.00  0.00    +0.000 OA
BRANCH   4  15
ATOM      7  C   UNL     1       5.893   4.257  14.077  0.00  0.00    +0.000 C 
ATOM      8  C   UNL     1       6.805   4.904  15.079  0.00  0.00    +0.000 C 
ATOM      9  O   UNL     1       7.846   5.442  14.681  0.00  0.00    +0.000 OA
ATOM     10  N   UNL     1       6.462   4.912  16.413  0.00  0.00    +0.000 N 
ATOM     11  C   UNL     1       7.319   5.640  17.362  0.00  0.00    +0.000 C 
ATOM     12  C   UNL     1       6.812   5.337  18.771  0.00  0.00    +0.000 C 
ATOM     13  C   UNL     1       5.518   4.639  18.485  0.00  0.00    +0.000 A 
ATOM     14  C   UNL     1       4.591   4.207  19.427  0.00  0.00    +0.000 A 
ATOM     15  C   UNL     1       3.477   3.498  18.970  0.00  0.00    +0.000 A 
ATOM     16  C   UNL     1       3.308   3.229  17.603  0.00  0.00    +0.000 A 
ATOM     17  C   UNL     1       4.258   3.667  16.673  0.00  0.00    +0.000 A 
ATOM     18  C   UNL     1       5.365   4.380  17.117  0.00  0.00    +0.000 A 
ENDBRANCH   4  15
ENDBRANCH   2   4
ENDBRANCH   1   2
BRANCH   1  19
ATOM     19  C   UNL     1       1.278   6.730  20.921  0.00  0.00    +0.000 C 
BRANCH  19  20
ATOM     20  C   UNL     1       1.507   7.938  20.011  0.00  0.00    +0.000 C 
ATOM     21  O   UNL     1       2.382   7.934  19.155  0.00  0.00    +0.000 OA
ATOM     22  N   UNL     1       0.625   8.987  20.173  0.00  0.00    +0.000 N 
ATOM     23  H   UNL     1      -0.042   8.985  20.925  0.00  0.00    +0.000 HD
BRANCH  22  24
ATOM     24  C   UNL     1       0.707  10.261  19.453  0.00  0.00    +0.000 C 
ATOM     25  C   UNL     1      -0.427  11.212  19.821  0.00  0.00    +0.000 C 
ATOM     26  C   UNL     1      -1.777  10.668  19.356  0.00  0.00    +0.000 C 
ATOM     27  N   UNL     1      -1.832  10.388  17.907  0.00  0.00    +0.000 NA
ATOM     28  C   UNL     1      -0.716   9.547  17.456  0.00  0.00    +0.000 C 
ATOM     29  C   UNL     1       0.661  10.030  17.939  0.00  0.00    +0.000 C 
BRANCH  27  30
ATOM     30  C   UNL     1      -3.140   9.752  17.606  0.00  0.00    +0.000 C 
BRANCH  30  31
ATOM     31  C   UNL     1      -4.355  10.652  17.717  0.00  0.00    +0.000 A 
ATOM     32  C   UNL     1      -4.537  11.712  16.812  0.00  0.00    +0.000 A 
ATOM     33  C   UNL     1      -5.691  12.499  16.857  0.00  0.00    +0.000 A 
ATOM     34  C   UNL     1      -6.681  12.229  17.798  0.00  0.00    +0.000 A 
ATOM     35  C   UNL     1      -6.508  11.187  18.709  0.00  0.00    +0.000 A 
ATOM     36  C   UNL     1      -5.347  10.409  18.676  0.00  0.00    +0.000 A 
ENDBRANCH  30  31
ENDBRANCH  27  30
ENDBRANCH  22  24
ENDBRANCH  19  20
ENDBRANCH   1  19
TORSDOF 8
ENDMDL
MODEL 9
REMARK VINA RESULT:      -8.1      2.451      3.986
REMARK  Name = 
REMARK  9 active torsions:
REMARK  status: ('A' for Active; 'I' for Inactive)
REMARK    1  A    between atoms: C_1  and  C_2
REMARK    2  A    between atoms: C_9  and  S_10
REMARK    3  A    between atoms: S_10  and  N_13
REMARK    4  A    between atoms: N_13  and  C_14
REMARK    5  A    between atoms: C_14  and  C_15
REMARK    6  A    between atoms: C_15  and  C_16
REMARK    7  A    between atoms: N_18  and  C_19
REMARK    8  A    between atoms: N_22  and  C_23
REMARK    9  A    between atoms: C_23  and  C_24
REMARK                            x       y       z     vdW  Elec       q    Type
REMARK                         _______ _______ _______ _____ _____    ______ ____
ROOT
ATOM      1  C   UNL     1       1.639   6.444  20.316  0.00  0.00    +0.000 C 
ENDROOT
BRANCH   1   2
ATOM      2  N   UNL     1       2.203   5.357  21.129  0.00  0.00    +0.000 NA
ATOM      3  H   UNL     1       3.077   5.569  21.614  0.00  0.00    +0.000 HD
BRANCH   2   4
ATOM      4  S   UNL     1       2.319   3.868  20.300  0.00  0.00    +0.000 S 
ATOM      5  O   UNL     1       1.044   3.615  19.664  0.00  0.00    +0.000 OA
ATOM      6  O   UNL     1       2.951   2.925  21.191  0.00  0.00    +0.000 OA
BRANCH   4  15
ATOM      7  C   UNL     1       5.874   4.105  14.045  0.00  0.00    +0.000 C 
ATOM      8  C   UNL     1       6.808   4.899  14.913  0.00  0.00    +0.000 C 
ATOM      9  O   UNL     1       7.852   5.342  14.421  0.00  0.00    +0.000 OA
ATOM     10  N   UNL     1       6.480   5.142  16.229  0.00  0.00    +0.000 N 
ATOM     11  C   UNL     1       7.359   6.007  17.032  0.00  0.00    +0.000 C 
ATOM     12  C   UNL     1       6.863   5.959  18.476  0.00  0.00    +0.000 C 
ATOM     13  C   UNL     1       5.555   5.246  18.325  0.00  0.00    +0.000 A 
ATOM     14  C   UNL     1       4.632   4.999  19.335  0.00  0.00    +0.000 A 
ATOM     15  C   UNL     1       3.502   4.241  19.016  0.00  0.00    +0.000 A 
ATOM     16  C   UNL     1       3.313   3.744  17.718  0.00  0.00    +0.000 A 
ATOM     17  C   UNL     1       4.260   3.999  16.718  0.00  0.00    +0.000 A 
ATOM     18  C   UNL     1       5.383   4.758  17.024  0.00  0.00    +0.000 A 
ENDBRANCH   4  15
ENDBRANCH   2   4
ENDBRANCH   1   2
BRANCH   1  19
ATOM     19  C   UNL     1       1.456   7.746  21.073  0.00  0.00    +0.000 C 
BRANCH  19  20
ATOM     20  C   UNL     1       1.354   8.943  20.126  0.00  0.00    +0.000 C 
ATOM     21  O   UNL     1       1.661   8.849  18.945  0.00  0.00    +0.000 OA
ATOM     22  N   UNL     1       0.833  10.098  20.674  0.00  0.00    +0.000 N 
ATOM     23  H   UNL     1       0.649  10.160  21.661  0.00  0.00    +0.000 HD
BRANCH  22  24
ATOM     24  C   UNL     1       0.711  11.374  19.963  0.00  0.00    +0.000 C 
ATOM     25  C   UNL     1       0.807  12.573  20.900  0.00  0.00    +0.000 C 
ATOM     26  C   UNL     1      -0.384  12.626  21.855  0.00  0.00    +0.000 C 
ATOM     27  N   UNL     1      -1.690  12.653  21.167  0.00  0.00    +0.000 NA
ATOM     28  C   UNL     1      -1.825  11.575  20.178  0.00  0.00    +0.000 C 
ATOM     29  C   UNL     1      -0.628  11.455  19.223  0.00  0.00    +0.000 C 
BRANCH  27  30
ATOM     30  C   UNL     1      -2.758  12.575  22.196  0.00  0.00    +0.000 C 
BRANCH  30  31
ATOM     31  C   UNL     1      -3.973  13.450  21.956  0.00  0.00    +0.000 A 
ATOM     32  C   UNL     1      -3.998  14.349  20.876  0.00  0.00    +0.000 A 
ATOM     33  C   UNL     1      -5.142  15.103  20.601  0.00  0.00    +0.000 A 
ATOM     34  C   UNL     1      -6.277  14.959  21.394  0.00  0.00    +0.000 A 
ATOM     35  C   UNL     1      -6.263  14.079  22.476  0.00  0.00    +0.000 A 
ATOM     36  C   UNL     1      -5.114  13.336  22.762  0.00  0.00    +0.000 A 
ENDBRANCH  30  31
ENDBRANCH  27  30
ENDBRANCH  22  24
ENDBRANCH  19  20
ENDBRANCH   1  19
TORSDOF 8
ENDMDL
