MODEL 1
REMARK VINA RESULT:      -6.6      0.000      0.000
REMARK  Name = 
REMARK  9 active torsions:
REMARK  status: ('A' for Active; 'I' for Inactive)
REMARK    1  A    between atoms: C_1  and  C_2
REMARK    2  A    between atoms: C_2  and  C_3
REMARK    3  A    between atoms: C_2  and  C_4
REMARK    4  A    between atoms: C_2  and  C_5
REMARK    5  A    between atoms: N_7  and  C_8
REMARK    6  A    between atoms: C_8  and  C_9
REMARK    7  A    between atoms: C_9  and  N_10
REMARK    8  A    between atoms: C_12  and  C_13
REMARK    9  A    between atoms: C_17  and  C_18
REMARK                            x       y       z     vdW  Elec       q    Type
REMARK                         _______ _______ _______ _____ _____    ______ ____
ROOT
ATOM      1  N   UNL     1       2.303   4.296  18.344  0.00  0.00    +0.000 N 
ATOM      2  N   UNL     1       2.452   5.521  17.798  0.00  0.00    +0.000 NA
ATOM      3  C   UNL     1       2.334   6.344  18.844  0.00  0.00    +0.000 A 
ATOM      4  C   UNL     1       2.026   5.655  20.036  0.00  0.00    +0.000 A 
ATOM      5  C   UNL     1       1.988   4.326  19.678  0.00  0.00    +0.000 A 
ENDROOT
BRANCH   3   6
ATOM      6  C   UNL     1       2.562   7.847  18.759  0.00  0.00    +0.000 C 
ATOM      7  C   UNL     1       1.759   8.604  17.711  0.00  0.00    +0.000 C 
ATOM      8  C   UNL     1       1.482   8.832  19.155  0.00  0.00    +0.000 C 
ENDBRANCH   3   6
BRANCH   5   9
ATOM      9  C   UNL     1       1.689   3.114  20.552  0.00  0.00    +0.000 C 
ATOM     10  C   UNL     1       2.849   2.386  21.196  0.00  0.00    +0.000 C 
ATOM     11  C   UNL     1       1.913   3.173  22.046  0.00  0.00    +0.000 C 
ENDBRANCH   5   9
BRANCH   1  12
ATOM     12  C   UNL     1       2.461   3.132  17.494  0.00  0.00    +0.000 C 
BRANCH  12  13
ATOM     13  C   UNL     1       3.897   2.630  17.529  0.00  0.00    +0.000 C 
BRANCH  13  16
ATOM     14  C   UNL     1       5.657   4.219  18.224  0.00  0.00    +0.000 C 
ATOM     15  O   UNL     1       5.538   3.876  19.398  0.00  0.00    +0.000 OA
ATOM     16  N   UNL     1       4.867   3.673  17.233  0.00  0.00    +0.000 N 
ATOM     17  H   UNL     1       4.922   4.021  16.286  0.00  0.00    +0.000 HD
BRANCH  14  19
ATOM     18  C   UNL     1       7.451   4.728  16.548  0.00  0.00    +0.000 C 
ATOM     19  C   UNL     1       6.672   5.279  17.757  0.00  0.00    +0.000 C 
ATOM     20  C   UNL     1       7.664   5.588  18.886  0.00  0.00    +0.000 C 
ATOM     21  C   UNL     1       5.946   6.562  17.328  0.00  0.00    +0.000 C 
ENDBRANCH  14  19
ENDBRANCH  13  16
ENDBRANCH  12  13
ENDBRANCH   1  12
TORSDOF 6
ENDMDL
MODEL 2
REMARK VINA RESULT:      -6.5      0.349      1.066
REMARK  Name = 
REMARK  9 active torsions:
REMARK  status: ('A' for Active; 'I' for Inactive)
REMARK    1  A    between atoms: C_1  and  C_2
REMARK    2  A    between atoms: C_2  and  C_3
REMARK    3  A    between atoms: C_2  and  C_4
REMARK    4  A    between atoms: C_2  and  C_5
REMARK    5  A    between atoms: N_7  and  C_8
REMARK    6  A    between atoms: C_8  and  C_9
REMARK    7  A    between atoms: C_9  and  N_10
REMARK    8  A    between atoms: C_12  and  C_13
REMARK    9  A    between atoms: C_17  and  C_18
REMARK                            x       y       z     vdW  Elec       q    Type
REMARK                         _______ _______ _______ _____ _____    ______ ____
ROOT
ATOM      1  N   UNL     1       2.276   4.229  18.336  0.00  0.00    +0.000 N 
ATOM      2  N   UNL     1       2.361   5.488  17.862  0.00  0.00    +0.000 NA
ATOM      3  C   UNL     1       2.164   6.243  18.947  0.00  0.00    +0.000 A 
ATOM      4  C   UNL     1       1.869   5.471  20.090  0.00  0.00    +0.000 A 
ATOM      5  C   UNL     1       1.925   4.164  19.660  0.00  0.00    +0.000 A 
ENDROOT
BRANCH   3   6
ATOM      6  C   UNL     1       2.298   7.760  18.950  0.00  0.00    +0.000 C 
ATOM      7  C   UNL     1       2.965   8.391  17.736  0.00  0.00    +0.000 C 
ATOM      8  C   UNL     1       1.516   8.622  17.980  0.00  0.00    +0.000 C 
ENDBRANCH   3   6
BRANCH   5   9
ATOM      9  C   UNL     1       1.680   2.889  20.458  0.00  0.00    +0.000 C 
ATOM     10  C   UNL     1       2.731   2.452  21.457  0.00  0.00    +0.000 C 
ATOM     11  C   UNL     1       1.416   2.955  21.945  0.00  0.00    +0.000 C 
ENDBRANCH   5   9
BRANCH   1  12
ATOM     12  C   UNL     1       2.530   3.125  17.429  0.00  0.00    +0.000 C 
BRANCH  12  13
ATOM     13  C   UNL     1       3.958   2.621  17.581  0.00  0.00    +0.000 C 
BRANCH  13  16
ATOM     14  C   UNL     1       5.682   4.265  18.238  0.00  0.00    +0.000 C 
ATOM     15  O   UNL     1       5.490   4.028  19.429  0.00  0.00    +0.000 OA
ATOM     16  N   UNL     1       4.951   3.633  17.254  0.00  0.00    +0.000 N 
ATOM     17  H   UNL     1       5.067   3.895  16.285  0.00  0.00    +0.000 HD
BRANCH  14  19
ATOM     18  C   UNL     1       7.705   5.593  18.892  0.00  0.00    +0.000 C 
ATOM     19  C   UNL     1       6.732   5.277  17.743  0.00  0.00    +0.000 C 
ATOM     20  C   UNL     1       6.042   6.576  17.306  0.00  0.00    +0.000 C 
ATOM     21  C   UNL     1       7.532   4.686  16.572  0.00  0.00    +0.000 C 
ENDBRANCH  14  19
ENDBRANCH  13  16
ENDBRANCH  12  13
ENDBRANCH   1  12
TORSDOF 6
ENDMDL
MODEL 3
REMARK VINA RESULT:      -6.3      2.159      6.322
REMARK  Name = 
REMARK  9 active torsions:
REMARK  status: ('A' for Active; 'I' for Inactive)
REMARK    1  A    between atoms: C_1  and  C_2
REMARK    2  A    between atoms: C_2  and  C_3
REMARK    3  A    between atoms: C_2  and  C_4
REMARK    4  A    between atoms: C_2  and  C_5
REMARK    5  A    between atoms: N_7  and  C_8
REMARK    6  A    between atoms: C_8  and  C_9
REMARK    7  A    between atoms: C_9  and  N_10
REMARK    8  A    between atoms: C_12  and  C_13
REMARK    9  A    between atoms: C_17  and  C_18
REMARK                            x       y       z     vdW  Elec       q    Type
REMARK                         _______ _______ _______ _____ _____    ______ ____
ROOT
ATOM      1  N   UNL     1       5.845   4.440  16.692  0.00  0.00    +0.000 N 
ATOM      2  N   UNL     1       5.787   3.589  15.647  0.00  0.00    +0.000 NA
ATOM      3  C   UNL     1       6.485   4.216  14.695  0.00  0.00    +0.000 A 
ATOM      4  C   UNL     1       6.914   5.497  15.102  0.00  0.00    +0.000 A 
ATOM      5  C   UNL     1       6.463   5.628  16.397  0.00  0.00    +0.000 A 
ENDROOT
BRANCH   3   6
ATOM      6  C   UNL     1       6.821   3.588  13.349  0.00  0.00    +0.000 C 
ATOM      7  C   UNL     1       5.702   3.538  12.319  0.00  0.00    +0.000 C 
ATOM      8  C   UNL     1       6.878   4.419  12.084  0.00  0.00    +0.000 C 
ENDBRANCH   3   6
BRANCH   5   9
ATOM      9  C   UNL     1       6.619   6.812  17.343  0.00  0.00    +0.000 C 
ATOM     10  C   UNL     1       7.753   6.789  18.346  0.00  0.00    +0.000 C 
ATOM     11  C   UNL     1       7.798   7.749  17.209  0.00  0.00    +0.000 C 
ENDBRANCH   5   9
BRANCH   1  12
ATOM     12  C   UNL     1       5.253   4.035  17.953  0.00  0.00    +0.000 C 
BRANCH  12  13
ATOM     13  C   UNL     1       4.207   2.952  17.734  0.00  0.00    +0.000 C 
BRANCH  13  16
ATOM     14  C   UNL     1       2.879   2.956  19.817  0.00  0.00    +0.000 C 
ATOM     15  O   UNL     1       3.818   2.472  20.446  0.00  0.00    +0.000 OA
ATOM     16  N   UNL     1       2.974   3.204  18.464  0.00  0.00    +0.000 N 
ATOM     17  H   UNL     1       2.168   3.528  17.947  0.00  0.00    +0.000 HD
BRANCH  14  19
ATOM     18  C   UNL     1       0.390   2.871  19.533  0.00  0.00    +0.000 C 
ATOM     19  C   UNL     1       1.530   3.315  20.467  0.00  0.00    +0.000 C 
ATOM     20  C   UNL     1       1.436   4.832  20.678  0.00  0.00    +0.000 C 
ATOM     21  C   UNL     1       1.374   2.587  21.811  0.00  0.00    +0.000 C 
ENDBRANCH  14  19
ENDBRANCH  13  16
ENDBRANCH  12  13
ENDBRANCH   1  12
TORSDOF 6
ENDMDL
MODEL 4
REMARK VINA RESULT:      -6.2      1.934      4.297
REMARK  Name = 
REMARK  9 active torsions:
REMARK  status: ('A' for Active; 'I' for Inactive)
REMARK    1  A    between atoms: C_1  and  C_2
REMARK    2  A    between atoms: C_2  and  C_3
REMARK    3  A    between atoms: C_2  and  C_4
REMARK    4  A    between atoms: C_2  and  C_5
REMARK    5  A    between atoms: N_7  and  C_8
REMARK    6  A    between atoms: C_8  and  C_9
REMARK    7  A    between atoms: C_9  and  N_10
REMARK    8  A    between atoms: C_12  and  C_13
REMARK    9  A    between atoms: C_17  and  C_18
REMARK                            x       y       z     vdW  Elec       q    Type
REMARK                         _______ _______ _______ _____ _____    ______ ____
ROOT
ATOM      1  N   UNL     1       2.179   6.712  18.980  0.00  0.00    +0.000 N 
ATOM      2  N   UNL     1       2.266   5.377  18.812  0.00  0.00    +0.000 NA
ATOM      3  C   UNL     1       1.814   4.887  19.970  0.00  0.00    +0.000 A 
ATOM      4  C   UNL     1       1.521   5.904  20.904  0.00  0.00    +0.000 A 
ATOM      5  C   UNL     1       1.791   7.082  20.242  0.00  0.00    +0.000 A 
ENDROOT
BRANCH   3   6
ATOM      6  C   UNL     1       1.592   3.402  20.225  0.00  0.00    +0.000 C 
ATOM      7  C   UNL     1       2.767   2.622  20.795  0.00  0.00    +0.000 C 
ATOM      8  C   UNL     1       1.556   2.840  21.631  0.00  0.00    +0.000 C 
ENDBRANCH   3   6
BRANCH   5   9
ATOM      9  C   UNL     1       1.671   8.511  20.757  0.00  0.00    +0.000 C 
ATOM     10  C   UNL     1       0.365   9.247  20.543  0.00  0.00    +0.000 C 
ATOM     11  C   UNL     1       0.759   8.832  21.919  0.00  0.00    +0.000 C 
ENDBRANCH   5   9
BRANCH   1  12
ATOM     12  C   UNL     1       2.514   7.577  17.864  0.00  0.00    +0.000 C 
BRANCH  12  13
ATOM     13  C   UNL     1       4.018   7.604  17.636  0.00  0.00    +0.000 C 
BRANCH  13  16
ATOM     14  C   UNL     1       5.143   6.026  16.103  0.00  0.00    +0.000 C 
ATOM     15  O   UNL     1       5.176   6.875  15.214  0.00  0.00    +0.000 OA
ATOM     16  N   UNL     1       4.565   6.292  17.327  0.00  0.00    +0.000 N 
ATOM     17  H   UNL     1       4.476   5.560  18.019  0.00  0.00    +0.000 HD
BRANCH  14  19
ATOM     18  C   UNL     1       5.806   4.278  14.432  0.00  0.00    +0.000 C 
ATOM     19  C   UNL     1       5.724   4.610  15.933  0.00  0.00    +0.000 C 
ATOM     20  C   UNL     1       4.812   3.583  16.619  0.00  0.00    +0.000 C 
ATOM     21  C   UNL     1       7.138   4.538  16.528  0.00  0.00    +0.000 C 
ENDBRANCH  14  19
ENDBRANCH  13  16
ENDBRANCH  12  13
ENDBRANCH   1  12
TORSDOF 6
ENDMDL
MODEL 5
REMARK VINA RESULT:      -6.2      0.498      1.195
REMARK  Name = 
REMARK  9 active torsions:
REMARK  status: ('A' for Active; 'I' for Inactive)
REMARK    1  A    between atoms: C_1  and  C_2
REMARK    2  A    between atoms: C_2  and  C_3
REMARK    3  A    between atoms: C_2  and  C_4
REMARK    4  A    between atoms: C_2  and  C_5
REMARK    5  A    between atoms: N_7  and  C_8
REMARK    6  A    between atoms: C_8  and  C_9
REMARK    7  A    between atoms: C_9  and  N_10
REMARK    8  A    between atoms: C_12  and  C_13
REMARK    9  A    between atoms: C_17  and  C_18
REMARK                            x       y       z     vdW  Elec       q    Type
REMARK                         _______ _______ _______ _____ _____    ______ ____
ROOT
ATOM      1  N   UNL     1       2.455   4.514  18.443  0.00  0.00    +0.000 N 
ATOM      2  N   UNL     1       2.368   5.677  17.767  0.00  0.00    +0.000 NA
ATOM      3  C   UNL     1       2.432   6.603  18.729  0.00  0.00    +0.000 A 
ATOM      4  C   UNL     1       2.474   6.032  20.018  0.00  0.00    +0.000 A 
ATOM      5  C   UNL     1       2.464   4.671  19.805  0.00  0.00    +0.000 A 
ENDROOT
BRANCH   3   6
ATOM      6  C   UNL     1       2.506   8.098  18.452  0.00  0.00    +0.000 C 
ATOM      7  C   UNL     1       1.350   8.708  17.672  0.00  0.00    +0.000 C 
ATOM      8  C   UNL     1       1.543   9.069  19.103  0.00  0.00    +0.000 C 
ENDBRANCH   3   6
BRANCH   5   9
ATOM      9  C   UNL     1       2.483   3.547  20.833  0.00  0.00    +0.000 C 
ATOM     10  C   UNL     1       1.184   3.172  21.515  0.00  0.00    +0.000 C 
ATOM     11  C   UNL     1       1.802   2.230  20.541  0.00  0.00    +0.000 C 
ENDBRANCH   5   9
BRANCH   1  12
ATOM     12  C   UNL     1       2.506   3.274  17.691  0.00  0.00    +0.000 C 
BRANCH  12  13
ATOM     13  C   UNL     1       3.939   2.777  17.567  0.00  0.00    +0.000 C 
BRANCH  13  16
ATOM     14  C   UNL     1       5.759   4.352  18.123  0.00  0.00    +0.000 C 
ATOM     15  O   UNL     1       5.762   3.974  19.293  0.00  0.00    +0.000 OA
ATOM     16  N   UNL     1       4.872   3.832  17.204  0.00  0.00    +0.000 N 
ATOM     17  H   UNL     1       4.830   4.208  16.266  0.00  0.00    +0.000 HD
BRANCH  14  19
ATOM     18  C   UNL     1       5.913   6.690  17.231  0.00  0.00    +0.000 C 
ATOM     19  C   UNL     1       6.721   5.429  17.586  0.00  0.00    +0.000 C 
ATOM     20  C   UNL     1       7.426   4.920  16.322  0.00  0.00    +0.000 C 
ATOM     21  C   UNL     1       7.759   5.798  18.656  0.00  0.00    +0.000 C 
ENDBRANCH  14  19
ENDBRANCH  13  16
ENDBRANCH  12  13
ENDBRANCH   1  12
TORSDOF 6
ENDMDL
MODEL 6
REMARK VINA RESULT:      -6.1      2.482      5.905
REMARK  Name = 
REMARK  9 active torsions:
REMARK  status: ('A' for Active; 'I' for Inactive)
REMARK    1  A    between atoms: C_1  and  C_2
REMARK    2  A    between atoms: C_2  and  C_3
REMARK    3  A    between atoms: C_2  and  C_4
REMARK    4  A    between atoms: C_2  and  C_5
REMARK    5  A    between atoms: N_7  and  C_8
REMARK    6  A    between atoms: C_8  and  C_9
REMARK    7  A    between atoms: C_9  and  N_10
REMARK    8  A    between atoms: C_12  and  C_13
REMARK    9  A    between atoms: C_17  and  C_18
REMARK                            x       y       z     vdW  Elec       q    Type
REMARK                         _______ _______ _______ _____ _____    ______ ____
ROOT
ATOM      1  N   UNL     1       3.516   5.225  18.155  0.00  0.00    +0.000 N 
ATOM      2  N   UNL     1       4.748   5.228  17.608  0.00  0.00    +0.000 NA
ATOM      3  C   UNL     1       4.736   4.160  16.806  0.00  0.00    +0.000 A 
ATOM      4  C   UNL     1       3.532   3.430  16.905  0.00  0.00    +0.000 A 
ATOM      5  C   UNL     1       2.765   4.132  17.808  0.00  0.00    +0.000 A 
ENDROOT
BRANCH   3   6
ATOM      6  C   UNL     1       5.874   3.809  15.856  0.00  0.00    +0.000 C 
ATOM      7  C   UNL     1       5.787   4.373  14.445  0.00  0.00    +0.000 C 
ATOM      8  C   UNL     1       6.846   4.863  15.368  0.00  0.00    +0.000 C 
ENDBRANCH   3   6
BRANCH   5   9
ATOM      9  C   UNL     1       1.366   3.810  18.319  0.00  0.00    +0.000 C 
ATOM     10  C   UNL     1       1.072   2.396  18.774  0.00  0.00    +0.000 C 
ATOM     11  C   UNL     1       1.139   3.493  19.780  0.00  0.00    +0.000 C 
ENDBRANCH   5   9
BRANCH   1  12
ATOM     12  C   UNL     1       3.141   6.318  19.032  0.00  0.00    +0.000 C 
BRANCH  12  13
ATOM     13  C   UNL     1       2.768   7.554  18.225  0.00  0.00    +0.000 C 
BRANCH  13  16
ATOM     14  C   UNL     1       1.466   9.644  18.422  0.00  0.00    +0.000 C 
ATOM     15  O   UNL     1       2.054  10.130  17.458  0.00  0.00    +0.000 OA
ATOM     16  N   UNL     1       1.773   8.382  18.887  0.00  0.00    +0.000 N 
ATOM     17  H   UNL     1       1.337   8.027  19.727  0.00  0.00    +0.000 HD
BRANCH  14  19
ATOM     18  C   UNL     1       0.066   9.630  20.502  0.00  0.00    +0.000 C 
ATOM     19  C   UNL     1       0.359  10.387  19.193  0.00  0.00    +0.000 C 
ATOM     20  C   UNL     1      -0.923  10.437  18.352  0.00  0.00    +0.000 C 
ATOM     21  C   UNL     1       0.815  11.811  19.543  0.00  0.00    +0.000 C 
ENDBRANCH  14  19
ENDBRANCH  13  16
ENDBRANCH  12  13
ENDBRANCH   1  12
TORSDOF 6
ENDMDL
MODEL 7
REMARK VINA RESULT:      -6.1      2.458      6.296
REMARK  Name = 
REMARK  9 active torsions:
REMARK  status: ('A' for Active; 'I' for Inactive)
REMARK    1  A    between atoms: C_1  and  C_2
REMARK    2  A    between atoms: C_2  and  C_3
REMARK    3  A    between atoms: C_2  and  C_4
REMARK    4  A    between atoms: C_2  and  C_5
REMARK    5  A    between atoms: N_7  and  C_8
REMARK    6  A    between atoms: C_8  and  C_9
REMARK    7  A    between atoms: C_9  and  N_10
REMARK    8  A    between atoms: C_12  and  C_13
REMARK    9  A    between atoms: C_17  and  C_18
REMARK                            x       y       z     vdW  Elec       q    Type
REMARK                         _______ _______ _______ _____ _____    ______ ____
ROOT
ATOM      1  N   UNL     1       5.418   4.641  15.828  0.00  0.00    +0.000 N 
ATOM      2  N   UNL     1       5.016   4.400  14.564  0.00  0.00    +0.000 NA
ATOM      3  C   UNL     1       6.162   4.310  13.883  0.00  0.00    +0.000 A 
ATOM      4  C   UNL     1       7.287   4.579  14.691  0.00  0.00    +0.000 A 
ATOM      5  C   UNL     1       6.773   4.815  15.947  0.00  0.00    +0.000 A 
ENDROOT
BRANCH   3   6
ATOM      6  C   UNL     1       6.238   3.910  12.415  0.00  0.00    +0.000 C 
ATOM      7  C   UNL     1       6.215   2.420  12.109  0.00  0.00    +0.000 C 
ATOM      8  C   UNL     1       5.061   3.270  11.711  0.00  0.00    +0.000 C 
ENDBRANCH   3   6
BRANCH   5   9
ATOM      9  C   UNL     1       7.518   5.171  17.227  0.00  0.00    +0.000 C 
ATOM     10  C   UNL     1       7.549   6.620  17.665  0.00  0.00    +0.000 C 
ATOM     11  C   UNL     1       6.761   5.632  18.452  0.00  0.00    +0.000 C 
ENDBRANCH   5   9
BRANCH   1  12
ATOM     12  C   UNL     1       4.418   4.712  16.875  0.00  0.00    +0.000 C 
BRANCH  12  13
ATOM     13  C   UNL     1       3.989   3.317  17.306  0.00  0.00    +0.000 C 
BRANCH  13  16
ATOM     14  C   UNL     1       2.939   3.202  19.540  0.00  0.00    +0.000 C 
ATOM     15  O   UNL     1       4.033   3.031  20.072  0.00  0.00    +0.000 OA
ATOM     16  N   UNL     1       2.820   3.328  18.171  0.00  0.00    +0.000 N 
ATOM     17  H   UNL     1       1.906   3.390  17.742  0.00  0.00    +0.000 HD
BRANCH  14  19
ATOM     18  C   UNL     1       1.281   4.759  20.594  0.00  0.00    +0.000 C 
ATOM     19  C   UNL     1       1.621   3.280  20.333  0.00  0.00    +0.000 C 
ATOM     20  C   UNL     1       1.776   2.562  21.680  0.00  0.00    +0.000 C 
ATOM     21  C   UNL     1       0.475   2.649  19.529  0.00  0.00    +0.000 C 
ENDBRANCH  14  19
ENDBRANCH  13  16
ENDBRANCH  12  13
ENDBRANCH   1  12
TORSDOF 6
ENDMDL
MODEL 8
REMARK VINA RESULT:      -6.1      1.989      4.208
REMARK  Name = 
REMARK  9 active torsions:
REMARK  status: ('A' for Active; 'I' for Inactive)
REMARK    1  A    between atoms: C_1  and  C_2
REMARK    2  A    between atoms: C_2  and  C_3
REMARK    3  A    between atoms: C_2  and  C_4
REMARK    4  A    between atoms: C_2  and  C_5
REMARK    5  A    between atoms: N_7  and  C_8
REMARK    6  A    between atoms: C_8  and  C_9
REMARK    7  A    between atoms: C_9  and  N_10
REMARK    8  A    between atoms: C_12  and  C_13
REMARK    9  A    between atoms: C_17  and  C_18
REMARK                            x       y       z     vdW  Elec       q    Type
REMARK                         _______ _______ _______ _____ _____    ______ ____
ROOT
ATOM      1  N   UNL     1       2.166   6.623  18.908  0.00  0.00    +0.000 N 
ATOM      2  N   UNL     1       2.229   5.296  18.673  0.00  0.00    +0.000 NA
ATOM      3  C   UNL     1       1.816   4.756  19.823  0.00  0.00    +0.000 A 
ATOM      4  C   UNL     1       1.572   5.729  20.815  0.00  0.00    +0.000 A 
ATOM      5  C   UNL     1       1.831   6.935  20.200  0.00  0.00    +0.000 A 
ENDROOT
BRANCH   3   6
ATOM      6  C   UNL     1       1.585   3.263  20.014  0.00  0.00    +0.000 C 
ATOM      7  C   UNL     1       0.746   2.558  18.957  0.00  0.00    +0.000 C 
ATOM      8  C   UNL     1       2.196   2.244  19.074  0.00  0.00    +0.000 C 
ENDBRANCH   3   6
BRANCH   5   9
ATOM      9  C   UNL     1       1.749   8.338  20.788  0.00  0.00    +0.000 C 
ATOM     10  C   UNL     1       0.510   9.163  20.514  0.00  0.00    +0.000 C 
ATOM     11  C   UNL     1       0.762   8.651  21.890  0.00  0.00    +0.000 C 
ENDBRANCH   5   9
BRANCH   1  12
ATOM     12  C   UNL     1       2.468   7.537  17.823  0.00  0.00    +0.000 C 
BRANCH  12  13
ATOM     13  C   UNL     1       3.967   7.590  17.565  0.00  0.00    +0.000 C 
BRANCH  13  16
ATOM     14  C   UNL     1       5.166   6.014  16.088  0.00  0.00    +0.000 C 
ATOM     15  O   UNL     1       5.224   6.857  15.195  0.00  0.00    +0.000 OA
ATOM     16  N   UNL     1       4.539   6.282  17.287  0.00  0.00    +0.000 N 
ATOM     17  H   UNL     1       4.430   5.554  17.980  0.00  0.00    +0.000 HD
BRANCH  14  19
ATOM     18  C   UNL     1       4.859   3.599  16.685  0.00  0.00    +0.000 C 
ATOM     19  C   UNL     1       5.766   4.603  15.951  0.00  0.00    +0.000 C 
ATOM     20  C   UNL     1       7.163   4.563  16.584  0.00  0.00    +0.000 C 
ATOM     21  C   UNL     1       5.847   4.198  14.471  0.00  0.00    +0.000 C 
ENDBRANCH  14  19
ENDBRANCH  13  16
ENDBRANCH  12  13
ENDBRANCH   1  12
TORSDOF 6
ENDMDL
MODEL 9
REMARK VINA RESULT:      -6.0      2.493      6.325
REMARK  Name = 
REMARK  9 active torsions:
REMARK  status: ('A' for Active; 'I' for Inactive)
REMARK    1  A    between atoms: C_1  and  C_2
REMARK    2  A    between atoms: C_2  and  C_3
REMARK    3  A    between atoms: C_2  and  C_4
REMARK    4  A    between atoms: C_2  and  C_5
REMARK    5  A    between atoms: N_7  and  C_8
REMARK    6  A    between atoms: C_8  and  C_9
REMARK    7  A    between atoms: C_9  and  N_10
REMARK    8  A    between atoms: C_12  and  C_13
REMARK    9  A    between atoms: C_17  and  C_18
REMARK                            x       y       z     vdW  Elec       q    Type
REMARK                         _______ _______ _______ _____ _____    ______ ____
ROOT
ATOM      1  N   UNL     1       5.355   4.541  15.762  0.00  0.00    +0.000 N 
ATOM      2  N   UNL     1       4.991   4.243  14.499  0.00  0.00    +0.000 NA
ATOM      3  C   UNL     1       6.148   4.248  13.831  0.00  0.00    +0.000 A 
ATOM      4  C   UNL     1       7.235   4.632  14.645  0.00  0.00    +0.000 A 
ATOM      5  C   UNL     1       6.687   4.841  15.892  0.00  0.00    +0.000 A 
ENDROOT
BRANCH   3   6
ATOM      6  C   UNL     1       6.278   3.833  12.371  0.00  0.00    +0.000 C 
ATOM      7  C   UNL     1       6.225   2.341  12.076  0.00  0.00    +0.000 C 
ATOM      8  C   UNL     1       5.114   3.219  11.620  0.00  0.00    +0.000 C 
ENDBRANCH   3   6
BRANCH   5   9
ATOM      9  C   UNL     1       7.382   5.284  17.173  0.00  0.00    +0.000 C 
ATOM     10  C   UNL     1       7.500   6.767  17.453  0.00  0.00    +0.000 C 
ATOM     11  C   UNL     1       6.592   5.932  18.288  0.00  0.00    +0.000 C 
ENDBRANCH   5   9
BRANCH   1  12
ATOM     12  C   UNL     1       4.340   4.537  16.799  0.00  0.00    +0.000 C 
BRANCH  12  13
ATOM     13  C   UNL     1       4.189   3.147  17.398  0.00  0.00    +0.000 C 
BRANCH  13  16
ATOM     14  C   UNL     1       2.941   3.537  19.495  0.00  0.00    +0.000 C 
ATOM     15  O   UNL     1       3.914   4.094  19.999  0.00  0.00    +0.000 OA
ATOM     16  N   UNL     1       2.996   3.014  18.220  0.00  0.00    +0.000 N 
ATOM     17  H   UNL     1       2.214   2.491  17.849  0.00  0.00    +0.000 HD
BRANCH  14  19
ATOM     18  C   UNL     1       0.636   2.565  19.332  0.00  0.00    +0.000 C 
ATOM     19  C   UNL     1       1.598   3.364  20.229  0.00  0.00    +0.000 C 
ATOM     20  C   UNL     1       0.979   4.737  20.520  0.00  0.00    +0.000 C 
ATOM     21  C   UNL     1       1.802   2.590  21.540  0.00  0.00    +0.000 C 
ENDBRANCH  14  19
ENDBRANCH  13  16
ENDBRANCH  12  13
ENDBRANCH   1  12
TORSDOF 6
ENDMDL
