MODEL 1
REMARK VINA RESULT:      -7.8      0.000      0.000
REMARK  Name = 
REMARK  7 active torsions:
REMARK  status: ('A' for Active; 'I' for Inactive)
REMARK    1  A    between atoms: C_1  and  C_2
REMARK    2  A    between atoms: C_4  and  C_5
REMARK    3  A    between atoms: C_7  and  S_8
REMARK    4  A    between atoms: S_8  and  C_11
REMARK    5  A    between atoms: C_12  and  C_13
REMARK    6  A    between atoms: N_15  and  C_16
REMARK    7  A    between atoms: C_21  and  C_22
REMARK                            x       y       z     vdW  Elec       q    Type
REMARK                         _______ _______ _______ _____ _____    ______ ____
ROOT
ATOM      1  C   UNL     1      -1.398  11.841  21.135  0.00  0.00    +0.000 A 
ATOM      2  C   UNL     1      -1.843  11.868  22.455  0.00  0.00    +0.000 A 
ATOM      3  N   UNL     1      -1.192  10.846  23.108  0.00  0.00    +0.000 N 
ATOM      4  C   UNL     1      -0.367  10.159  22.263  0.00  0.00    +0.000 A 
ATOM      5  C   UNL     1       0.448   9.057  22.529  0.00  0.00    +0.000 A 
ATOM      6  C   UNL     1       1.173   8.524  21.462  0.00  0.00    +0.000 A 
ATOM      7  C   UNL     1       1.081   9.081  20.191  0.00  0.00    +0.000 A 
ATOM      8 CL   UNL     1       1.971   8.382  18.894  0.00  0.00    +0.000 Cl
ATOM      9  C   UNL     1       0.272  10.194  19.946  0.00  0.00    +0.000 A 
ATOM     10  C   UNL     1      -0.477  10.749  21.006  0.00  0.00    +0.000 A 
ATOM     11  H   UNL     1      -1.350  10.588  24.073  0.00  0.00    +0.000 HD
ENDROOT
BRANCH   2  12
ATOM     12  C   UNL     1      -2.842  12.677  23.110  0.00  0.00    +0.000 C 
ATOM     13  O   UNL     1      -3.839  12.169  23.601  0.00  0.00    +0.000 OA
ATOM     14  N   UNL     1      -2.551  14.041  23.107  0.00  0.00    +0.000 N 
ATOM     15  H   UNL     1      -1.779  14.354  22.528  0.00  0.00    +0.000 HD
BRANCH  14  16
ATOM     16  C   UNL     1      -3.357  15.057  23.690  0.00  0.00    +0.000 A 
ATOM     17  C   UNL     1      -4.629  15.335  23.177  0.00  0.00    +0.000 A 
ATOM     18  C   UNL     1      -5.449  16.309  23.744  0.00  0.00    +0.000 A 
ATOM     19  C   UNL     1      -5.022  17.008  24.862  0.00  0.00    +0.000 A 
ATOM     20  C   UNL     1      -3.753  16.760  25.390  0.00  0.00    +0.000 A 
ATOM     21  C   UNL     1      -2.909  15.804  24.803  0.00  0.00    +0.000 A 
BRANCH  21  22
ATOM     22  C   UNL     1      -1.562  15.694  25.306  0.00  0.00    +0.000 C 
ATOM     23  N   UNL     1      -0.473  15.605  25.678  0.00  0.00    +0.000 NA
ENDBRANCH  21  22
ENDBRANCH  14  16
ENDBRANCH   2  12
BRANCH   1  24
ATOM     24  S   UNL     1      -1.833  12.839  19.781  0.00  0.00    +0.000 S 
ATOM     25  O   UNL     1      -0.566  13.112  19.132  0.00  0.00    +0.000 OA
ATOM     26  O   UNL     1      -2.630  13.908  20.357  0.00  0.00    +0.000 OA
BRANCH  24  33
ATOM     27  C   UNL     1      -2.700  10.151  15.359  0.00  0.00    +0.000 C 
ATOM     28  C   UNL     1      -3.239  10.726  16.635  0.00  0.00    +0.000 A 
ATOM     29  C   UNL     1      -4.605  10.637  16.948  0.00  0.00    +0.000 A 
ATOM     30  C   UNL     1      -5.111  11.185  18.135  0.00  0.00    +0.000 A 
ATOM     31  C   UNL     1      -6.562  11.089  18.497  0.00  0.00    +0.000 C 
ATOM     32  C   UNL     1      -4.243  11.846  19.003  0.00  0.00    +0.000 A 
ATOM     33  C   UNL     1      -2.892  11.972  18.677  0.00  0.00    +0.000 A 
ATOM     34  C   UNL     1      -2.374  11.380  17.522  0.00  0.00    +0.000 A 
ENDBRANCH  24  33
ENDBRANCH   1  24
TORSDOF 5
ENDMDL
MODEL 2
REMARK VINA RESULT:      -7.8      0.062      1.532
REMARK  Name = 
REMARK  7 active torsions:
REMARK  status: ('A' for Active; 'I' for Inactive)
REMARK    1  A    between atoms: C_1  and  C_2
REMARK    2  A    between atoms: C_4  and  C_5
REMARK    3  A    between atoms: C_7  and  S_8
REMARK    4  A    between atoms: S_8  and  C_11
REMARK    5  A    between atoms: C_12  and  C_13
REMARK    6  A    between atoms: N_15  and  C_16
REMARK    7  A    between atoms: C_21  and  C_22
REMARK                            x       y       z     vdW  Elec       q    Type
REMARK                         _______ _______ _______ _____ _____    ______ ____
ROOT
ATOM      1  C   UNL     1      -1.391  11.851  21.141  0.00  0.00    +0.000 A 
ATOM      2  C   UNL     1      -1.831  11.880  22.463  0.00  0.00    +0.000 A 
ATOM      3  N   UNL     1      -1.179  10.856  23.114  0.00  0.00    +0.000 N 
ATOM      4  C   UNL     1      -0.358  10.168  22.266  0.00  0.00    +0.000 A 
ATOM      5  C   UNL     1       0.455   9.065  22.529  0.00  0.00    +0.000 A 
ATOM      6  C   UNL     1       1.176   8.530  21.460  0.00  0.00    +0.000 A 
ATOM      7  C   UNL     1       1.080   9.087  20.189  0.00  0.00    +0.000 A 
ATOM      8 CL   UNL     1       1.964   8.386  18.889  0.00  0.00    +0.000 Cl
ATOM      9  C   UNL     1       0.272  10.201  19.947  0.00  0.00    +0.000 A 
ATOM     10  C   UNL     1      -0.472  10.758  21.009  0.00  0.00    +0.000 A 
ATOM     11  H   UNL     1      -1.334  10.599  24.079  0.00  0.00    +0.000 HD
ENDROOT
BRANCH   2  12
ATOM     12  C   UNL     1      -2.827  12.690  23.122  0.00  0.00    +0.000 C 
ATOM     13  O   UNL     1      -3.837  12.188  23.590  0.00  0.00    +0.000 OA
ATOM     14  N   UNL     1      -2.516  14.050  23.148  0.00  0.00    +0.000 N 
ATOM     15  H   UNL     1      -1.733  14.362  22.585  0.00  0.00    +0.000 HD
BRANCH  14  16
ATOM     16  C   UNL     1      -3.314  15.066  23.742  0.00  0.00    +0.000 A 
ATOM     17  C   UNL     1      -4.608  15.316  23.270  0.00  0.00    +0.000 A 
ATOM     18  C   UNL     1      -5.421  16.290  23.849  0.00  0.00    +0.000 A 
ATOM     19  C   UNL     1      -4.963  17.017  24.937  0.00  0.00    +0.000 A 
ATOM     20  C   UNL     1      -3.672  16.796  25.422  0.00  0.00    +0.000 A 
ATOM     21  C   UNL     1      -2.837  15.840  24.823  0.00  0.00    +0.000 A 
BRANCH  21  22
ATOM     22  C   UNL     1      -1.470  15.758  25.278  0.00  0.00    +0.000 C 
ATOM     23  N   UNL     1      -0.387  15.703  25.671  0.00  0.00    +0.000 NA
ENDBRANCH  21  22
ENDBRANCH  14  16
ENDBRANCH   2  12
BRANCH   1  24
ATOM     24  S   UNL     1      -1.830  12.850  19.789  0.00  0.00    +0.000 S 
ATOM     25  O   UNL     1      -0.569  13.091  19.115  0.00  0.00    +0.000 OA
ATOM     26  O   UNL     1      -2.593  13.939  20.372  0.00  0.00    +0.000 OA
BRANCH  24  33
ATOM     27  C   UNL     1      -6.594  11.060  18.510  0.00  0.00    +0.000 C 
ATOM     28  C   UNL     1      -5.143  11.207  18.158  0.00  0.00    +0.000 A 
ATOM     29  C   UNL     1      -4.620  10.621  16.994  0.00  0.00    +0.000 A 
ATOM     30  C   UNL     1      -3.262  10.747  16.671  0.00  0.00    +0.000 A 
ATOM     31  C   UNL     1      -2.683  10.142  15.428  0.00  0.00    +0.000 C 
ATOM     32  C   UNL     1      -2.420  11.448  17.533  0.00  0.00    +0.000 A 
ATOM     33  C   UNL     1      -2.928  11.998  18.710  0.00  0.00    +0.000 A 
ATOM     34  C   UNL     1      -4.290  11.922  19.009  0.00  0.00    +0.000 A 
ENDBRANCH  24  33
ENDBRANCH   1  24
TORSDOF 5
ENDMDL
MODEL 3
REMARK VINA RESULT:      -7.7      4.687      7.886
REMARK  Name = 
REMARK  7 active torsions:
REMARK  status: ('A' for Active; 'I' for Inactive)
REMARK    1  A    between atoms: C_1  and  C_2
REMARK    2  A    between atoms: C_4  and  C_5
REMARK    3  A    between atoms: C_7  and  S_8
REMARK    4  A    between atoms: S_8  and  C_11
REMARK    5  A    between atoms: C_12  and  C_13
REMARK    6  A    between atoms: N_15  and  C_16
REMARK    7  A    between atoms: C_21  and  C_22
REMARK                            x       y       z     vdW  Elec       q    Type
REMARK                         _______ _______ _______ _____ _____    ______ ____
ROOT
ATOM      1  C   UNL     1       0.590  11.420  19.036  0.00  0.00    +0.000 A 
ATOM      2  C   UNL     1       1.530  10.532  18.516  0.00  0.00    +0.000 A 
ATOM      3  N   UNL     1       2.570  11.298  18.041  0.00  0.00    +0.000 N 
ATOM      4  C   UNL     1       2.330  12.632  18.218  0.00  0.00    +0.000 A 
ATOM      5  C   UNL     1       3.123  13.725  17.863  0.00  0.00    +0.000 A 
ATOM      6  C   UNL     1       2.618  14.997  18.136  0.00  0.00    +0.000 A 
ATOM      7  C   UNL     1       1.376  15.155  18.740  0.00  0.00    +0.000 A 
ATOM      8 CL   UNL     1       0.774  16.740  19.038  0.00  0.00    +0.000 Cl
ATOM      9  C   UNL     1       0.602  14.049  19.102  0.00  0.00    +0.000 A 
ATOM     10  C   UNL     1       1.086  12.750  18.833  0.00  0.00    +0.000 A 
ATOM     11  H   UNL     1       3.380  10.932  17.560  0.00  0.00    +0.000 HD
ENDROOT
BRANCH   2  12
ATOM     12  C   UNL     1       1.503   9.098  18.355  0.00  0.00    +0.000 C 
ATOM     13  O   UNL     1       0.989   8.585  17.372  0.00  0.00    +0.000 OA
ATOM     14  N   UNL     1       2.095   8.404  19.410  0.00  0.00    +0.000 N 
ATOM     15  H   UNL     1       2.338   8.932  20.241  0.00  0.00    +0.000 HD
BRANCH  14  16
ATOM     16  C   UNL     1       2.215   6.990  19.501  0.00  0.00    +0.000 A 
ATOM     17  C   UNL     1       1.509   6.280  20.479  0.00  0.00    +0.000 A 
ATOM     18  C   UNL     1       1.590   4.892  20.576  0.00  0.00    +0.000 A 
ATOM     19  C   UNL     1       2.360   4.179  19.672  0.00  0.00    +0.000 A 
ATOM     20  C   UNL     1       3.085   4.861  18.691  0.00  0.00    +0.000 A 
ATOM     21  C   UNL     1       3.035   6.261  18.610  0.00  0.00    +0.000 A 
BRANCH  21  22
ATOM     22  C   UNL     1       3.912   6.914  17.669  0.00  0.00    +0.000 C 
ATOM     23  N   UNL     1       4.640   7.427  16.935  0.00  0.00    +0.000 NA
ENDBRANCH  21  22
ENDBRANCH  14  16
ENDBRANCH   2  12
BRANCH   1  24
ATOM     24  S   UNL     1      -0.957  11.119  19.766  0.00  0.00    +0.000 S 
ATOM     25  O   UNL     1      -1.130  12.230  20.681  0.00  0.00    +0.000 OA
ATOM     26  O   UNL     1      -0.873   9.752  20.249  0.00  0.00    +0.000 OA
BRANCH  24  33
ATOM     27  C   UNL     1      -2.834   9.986  14.998  0.00  0.00    +0.000 C 
ATOM     28  C   UNL     1      -3.060  10.583  16.356  0.00  0.00    +0.000 A 
ATOM     29  C   UNL     1      -4.271  11.219  16.673  0.00  0.00    +0.000 A 
ATOM     30  C   UNL     1      -4.479  11.787  17.937  0.00  0.00    +0.000 A 
ATOM     31  C   UNL     1      -5.768  12.460  18.302  0.00  0.00    +0.000 C 
ATOM     32  C   UNL     1      -3.455  11.735  18.882  0.00  0.00    +0.000 A 
ATOM     33  C   UNL     1      -2.236  11.139  18.559  0.00  0.00    +0.000 A 
ATOM     34  C   UNL     1      -2.044  10.523  17.319  0.00  0.00    +0.000 A 
ENDBRANCH  24  33
ENDBRANCH   1  24
TORSDOF 5
ENDMDL
MODEL 4
REMARK VINA RESULT:      -7.7      4.672      8.038
REMARK  Name = 
REMARK  7 active torsions:
REMARK  status: ('A' for Active; 'I' for Inactive)
REMARK    1  A    between atoms: C_1  and  C_2
REMARK    2  A    between atoms: C_4  and  C_5
REMARK    3  A    between atoms: C_7  and  S_8
REMARK    4  A    between atoms: S_8  and  C_11
REMARK    5  A    between atoms: C_12  and  C_13
REMARK    6  A    between atoms: N_15  and  C_16
REMARK    7  A    between atoms: C_21  and  C_22
REMARK                            x       y       z     vdW  Elec       q    Type
REMARK                         _______ _______ _______ _____ _____    ______ ____
ROOT
ATOM      1  C   UNL     1       0.623  11.395  19.059  0.00  0.00    +0.000 A 
ATOM      2  C   UNL     1       1.552  10.507  18.519  0.00  0.00    +0.000 A 
ATOM      3  N   UNL     1       2.582  11.273  18.023  0.00  0.00    +0.000 N 
ATOM      4  C   UNL     1       2.347  12.606  18.207  0.00  0.00    +0.000 A 
ATOM      5  C   UNL     1       3.132  13.699  17.837  0.00  0.00    +0.000 A 
ATOM      6  C   UNL     1       2.634  14.972  18.122  0.00  0.00    +0.000 A 
ATOM      7  C   UNL     1       1.405  15.129  18.751  0.00  0.00    +0.000 A 
ATOM      8 CL   UNL     1       0.810  16.714  19.063  0.00  0.00    +0.000 Cl
ATOM      9  C   UNL     1       0.638  14.023  19.128  0.00  0.00    +0.000 A 
ATOM     10  C   UNL     1       1.116  12.725  18.848  0.00  0.00    +0.000 A 
ATOM     11  H   UNL     1       3.382  10.907  17.525  0.00  0.00    +0.000 HD
ENDROOT
BRANCH   2  12
ATOM     12  C   UNL     1       1.521   9.073  18.358  0.00  0.00    +0.000 C 
ATOM     13  O   UNL     1       1.005   8.562  17.375  0.00  0.00    +0.000 OA
ATOM     14  N   UNL     1       2.112   8.376  19.411  0.00  0.00    +0.000 N 
ATOM     15  H   UNL     1       2.357   8.904  20.242  0.00  0.00    +0.000 HD
BRANCH  14  16
ATOM     16  C   UNL     1       2.229   6.962  19.501  0.00  0.00    +0.000 A 
ATOM     17  C   UNL     1       1.520   6.254  20.479  0.00  0.00    +0.000 A 
ATOM     18  C   UNL     1       1.598   4.865  20.575  0.00  0.00    +0.000 A 
ATOM     19  C   UNL     1       2.366   4.150  19.669  0.00  0.00    +0.000 A 
ATOM     20  C   UNL     1       3.093   4.831  18.690  0.00  0.00    +0.000 A 
ATOM     21  C   UNL     1       3.046   6.232  18.609  0.00  0.00    +0.000 A 
BRANCH  21  22
ATOM     22  C   UNL     1       3.925   6.883  17.669  0.00  0.00    +0.000 C 
ATOM     23  N   UNL     1       4.608   7.397  16.894  0.00  0.00    +0.000 NA
ENDBRANCH  21  22
ENDBRANCH  14  16
ENDBRANCH   2  12
BRANCH   1  24
ATOM     24  S   UNL     1      -0.908  11.093  19.822  0.00  0.00    +0.000 S 
ATOM     25  O   UNL     1      -1.045  12.185  20.766  0.00  0.00    +0.000 OA
ATOM     26  O   UNL     1      -0.828   9.715  20.270  0.00  0.00    +0.000 OA
BRANCH  24  33
ATOM     27  C   UNL     1      -5.769  12.450  18.382  0.00  0.00    +0.000 C 
ATOM     28  C   UNL     1      -4.457  11.814  18.026  0.00  0.00    +0.000 A 
ATOM     29  C   UNL     1      -4.265  11.206  16.775  0.00  0.00    +0.000 A 
ATOM     30  C   UNL     1      -3.044  10.602  16.446  0.00  0.00    +0.000 A 
ATOM     31  C   UNL     1      -2.810   9.959  15.112  0.00  0.00    +0.000 C 
ATOM     32  C   UNL     1      -2.016  10.589  17.389  0.00  0.00    +0.000 A 
ATOM     33  C   UNL     1      -2.217  11.156  18.647  0.00  0.00    +0.000 A 
ATOM     34  C   UNL     1      -3.413  11.808  18.960  0.00  0.00    +0.000 A 
ENDBRANCH  24  33
ENDBRANCH   1  24
TORSDOF 5
ENDMDL
MODEL 5
REMARK VINA RESULT:      -7.7      4.678      8.058
REMARK  Name = 
REMARK  7 active torsions:
REMARK  status: ('A' for Active; 'I' for Inactive)
REMARK    1  A    between atoms: C_1  and  C_2
REMARK    2  A    between atoms: C_4  and  C_5
REMARK    3  A    between atoms: C_7  and  S_8
REMARK    4  A    between atoms: S_8  and  C_11
REMARK    5  A    between atoms: C_12  and  C_13
REMARK    6  A    between atoms: N_15  and  C_16
REMARK    7  A    between atoms: C_21  and  C_22
REMARK                            x       y       z     vdW  Elec       q    Type
REMARK                         _______ _______ _______ _____ _____    ______ ____
ROOT
ATOM      1  C   UNL     1       0.653  11.557  18.873  0.00  0.00    +0.000 A 
ATOM      2  C   UNL     1       1.653  10.836  18.221  0.00  0.00    +0.000 A 
ATOM      3  N   UNL     1       2.597  11.753  17.820  0.00  0.00    +0.000 N 
ATOM      4  C   UNL     1       2.240  13.025  18.170  0.00  0.00    +0.000 A 
ATOM      5  C   UNL     1       2.911  14.226  17.935  0.00  0.00    +0.000 A 
ATOM      6  C   UNL     1       2.300  15.399  18.378  0.00  0.00    +0.000 A 
ATOM      7  C   UNL     1       1.072  15.359  19.029  0.00  0.00    +0.000 A 
ATOM      8 CL   UNL     1       0.335  16.828  19.540  0.00  0.00    +0.000 Cl
ATOM      9  C   UNL     1       0.420  14.146  19.269  0.00  0.00    +0.000 A 
ATOM     10  C   UNL     1       1.014  12.944  18.827  0.00  0.00    +0.000 A 
ATOM     11  H   UNL     1       3.420  11.530  17.276  0.00  0.00    +0.000 HD
ENDROOT
BRANCH   2  12
ATOM     12  C   UNL     1       1.755   9.437  17.882  0.00  0.00    +0.000 C 
ATOM     13  O   UNL     1       0.864   8.873  17.265  0.00  0.00    +0.000 OA
ATOM     14  N   UNL     1       2.930   8.835  18.331  0.00  0.00    +0.000 N 
ATOM     15  H   UNL     1       3.513   9.365  18.970  0.00  0.00    +0.000 HD
BRANCH  14  16
ATOM     16  C   UNL     1       3.290   7.475  18.125  0.00  0.00    +0.000 A 
ATOM     17  C   UNL     1       4.046   7.103  17.007  0.00  0.00    +0.000 A 
ATOM     18  C   UNL     1       4.432   5.781  16.793  0.00  0.00    +0.000 A 
ATOM     19  C   UNL     1       4.093   4.803  17.714  0.00  0.00    +0.000 A 
ATOM     20  C   UNL     1       3.329   5.142  18.834  0.00  0.00    +0.000 A 
ATOM     21  C   UNL     1       2.908   6.466  19.038  0.00  0.00    +0.000 A 
BRANCH  21  22
ATOM     22  C   UNL     1       2.007   6.726  20.133  0.00  0.00    +0.000 C 
ATOM     23  N   UNL     1       1.261   6.924  20.991  0.00  0.00    +0.000 NA
ENDBRANCH  21  22
ENDBRANCH  14  16
ENDBRANCH   2  12
BRANCH   1  24
ATOM     24  S   UNL     1      -0.829  11.018  19.600  0.00  0.00    +0.000 S 
ATOM     25  O   UNL     1      -1.061  11.976  20.663  0.00  0.00    +0.000 OA
ATOM     26  O   UNL     1      -0.605   9.612  19.888  0.00  0.00    +0.000 OA
BRANCH  24  33
ATOM     27  C   UNL     1      -2.899  10.026  14.880  0.00  0.00    +0.000 C 
ATOM     28  C   UNL     1      -3.067  10.589  16.261  0.00  0.00    +0.000 A 
ATOM     29  C   UNL     1      -4.259  11.226  16.641  0.00  0.00    +0.000 A 
ATOM     30  C   UNL     1      -4.413  11.762  17.927  0.00  0.00    +0.000 A 
ATOM     31  C   UNL     1      -5.681  12.434  18.360  0.00  0.00    +0.000 C 
ATOM     32  C   UNL     1      -3.354  11.677  18.830  0.00  0.00    +0.000 A 
ATOM     33  C   UNL     1      -2.154  11.080  18.444  0.00  0.00    +0.000 A 
ATOM     34  C   UNL     1      -2.015  10.496  17.182  0.00  0.00    +0.000 A 
ENDBRANCH  24  33
ENDBRANCH   1  24
TORSDOF 5
ENDMDL
MODEL 6
REMARK VINA RESULT:      -7.6      4.661      8.196
REMARK  Name = 
REMARK  7 active torsions:
REMARK  status: ('A' for Active; 'I' for Inactive)
REMARK    1  A    between atoms: C_1  and  C_2
REMARK    2  A    between atoms: C_4  and  C_5
REMARK    3  A    between atoms: C_7  and  S_8
REMARK    4  A    between atoms: S_8  and  C_11
REMARK    5  A    between atoms: C_12  and  C_13
REMARK    6  A    between atoms: N_15  and  C_16
REMARK    7  A    between atoms: C_21  and  C_22
REMARK                            x       y       z     vdW  Elec       q    Type
REMARK                         _______ _______ _______ _____ _____    ______ ____
ROOT
ATOM      1  C   UNL     1       0.687  11.558  18.888  0.00  0.00    +0.000 A 
ATOM      2  C   UNL     1       1.681  10.860  18.204  0.00  0.00    +0.000 A 
ATOM      3  N   UNL     1       2.605  11.795  17.797  0.00  0.00    +0.000 N 
ATOM      4  C   UNL     1       2.239  13.057  18.174  0.00  0.00    +0.000 A 
ATOM      5  C   UNL     1       2.891  14.270  17.943  0.00  0.00    +0.000 A 
ATOM      6  C   UNL     1       2.275  15.428  18.417  0.00  0.00    +0.000 A 
ATOM      7  C   UNL     1       1.061  15.363  19.093  0.00  0.00    +0.000 A 
ATOM      8 CL   UNL     1       0.317  16.815  19.641  0.00  0.00    +0.000 Cl
ATOM      9  C   UNL     1       0.430  14.138  19.328  0.00  0.00    +0.000 A 
ATOM     10  C   UNL     1       1.029  12.951  18.855  0.00  0.00    +0.000 A 
ATOM     11  H   UNL     1       3.419  11.591  17.232  0.00  0.00    +0.000 HD
ENDROOT
BRANCH   2  12
ATOM     12  C   UNL     1       1.794   9.468  17.842  0.00  0.00    +0.000 C 
ATOM     13  O   UNL     1       0.940   8.926  17.155  0.00  0.00    +0.000 OA
ATOM     14  N   UNL     1       2.932   8.845  18.353  0.00  0.00    +0.000 N 
ATOM     15  H   UNL     1       3.475   9.355  19.041  0.00  0.00    +0.000 HD
BRANCH  14  16
ATOM     16  C   UNL     1       3.292   7.486  18.142  0.00  0.00    +0.000 A 
ATOM     17  C   UNL     1       4.052   7.120  17.024  0.00  0.00    +0.000 A 
ATOM     18  C   UNL     1       4.439   5.799  16.804  0.00  0.00    +0.000 A 
ATOM     19  C   UNL     1       4.097   4.816  17.720  0.00  0.00    +0.000 A 
ATOM     20  C   UNL     1       3.330   5.149  18.839  0.00  0.00    +0.000 A 
ATOM     21  C   UNL     1       2.909   6.472  19.048  0.00  0.00    +0.000 A 
BRANCH  21  22
ATOM     22  C   UNL     1       2.004   6.726  20.143  0.00  0.00    +0.000 C 
ATOM     23  N   UNL     1       1.274   6.898  21.019  0.00  0.00    +0.000 NA
ENDBRANCH  21  22
ENDBRANCH  14  16
ENDBRANCH   2  12
BRANCH   1  24
ATOM     24  S   UNL     1      -0.773  10.990  19.637  0.00  0.00    +0.000 S 
ATOM     25  O   UNL     1      -0.977  11.909  20.740  0.00  0.00    +0.000 OA
ATOM     26  O   UNL     1      -0.537   9.576  19.870  0.00  0.00    +0.000 OA
BRANCH  24  33
ATOM     27  C   UNL     1      -5.673  12.431  18.433  0.00  0.00    +0.000 C 
ATOM     28  C   UNL     1      -4.387  11.785  18.010  0.00  0.00    +0.000 A 
ATOM     29  C   UNL     1      -4.257  11.195  16.742  0.00  0.00    +0.000 A 
ATOM     30  C   UNL     1      -3.060  10.580  16.351  0.00  0.00    +0.000 A 
ATOM     31  C   UNL     1      -2.893   9.957  14.999  0.00  0.00    +0.000 C 
ATOM     32  C   UNL     1      -1.992  10.539  17.248  0.00  0.00    +0.000 A 
ATOM     33  C   UNL     1      -2.130  11.088  18.523  0.00  0.00    +0.000 A 
ATOM     34  C   UNL     1      -3.303  11.749  18.897  0.00  0.00    +0.000 A 
ENDBRANCH  24  33
ENDBRANCH   1  24
TORSDOF 5
ENDMDL
MODEL 7
REMARK VINA RESULT:      -7.5      4.928      9.168
REMARK  Name = 
REMARK  7 active torsions:
REMARK  status: ('A' for Active; 'I' for Inactive)
REMARK    1  A    between atoms: C_1  and  C_2
REMARK    2  A    between atoms: C_4  and  C_5
REMARK    3  A    between atoms: C_7  and  S_8
REMARK    4  A    between atoms: S_8  and  C_11
REMARK    5  A    between atoms: C_12  and  C_13
REMARK    6  A    between atoms: N_15  and  C_16
REMARK    7  A    between atoms: C_21  and  C_22
REMARK                            x       y       z     vdW  Elec       q    Type
REMARK                         _______ _______ _______ _____ _____    ______ ____
ROOT
ATOM      1  C   UNL     1       0.970   9.261  19.733  0.00  0.00    +0.000 A 
ATOM      2  C   UNL     1       1.542   8.059  20.147  0.00  0.00    +0.000 A 
ATOM      3  N   UNL     1       1.235   7.919  21.482  0.00  0.00    +0.000 N 
ATOM      4  C   UNL     1       0.509   8.982  21.940  0.00  0.00    +0.000 A 
ATOM      5  C   UNL     1       0.019   9.226  23.225  0.00  0.00    +0.000 A 
ATOM      6  C   UNL     1      -0.674  10.420  23.430  0.00  0.00    +0.000 A 
ATOM      7  C   UNL     1      -0.863  11.320  22.388  0.00  0.00    +0.000 A 
ATOM      8 CL   UNL     1      -1.700  12.795  22.684  0.00  0.00    +0.000 Cl
ATOM      9  C   UNL     1      -0.378  11.053  21.104  0.00  0.00    +0.000 A 
ATOM     10  C   UNL     1       0.330   9.855  20.870  0.00  0.00    +0.000 A 
ATOM     11  H   UNL     1       1.559   7.163  22.069  0.00  0.00    +0.000 HD
ENDROOT
BRANCH   2  12
ATOM     12  C   UNL     1       2.386   7.114  19.455  0.00  0.00    +0.000 C 
ATOM     13  O   UNL     1       3.395   7.481  18.873  0.00  0.00    +0.000 OA
ATOM     14  N   UNL     1       1.926   5.799  19.520  0.00  0.00    +0.000 N 
ATOM     15  H   UNL     1       0.994   5.646  19.891  0.00  0.00    +0.000 HD
BRANCH  14  16
ATOM     16  C   UNL     1       2.568   4.672  18.938  0.00  0.00    +0.000 A 
ATOM     17  C   UNL     1       2.908   4.673  17.580  0.00  0.00    +0.000 A 
ATOM     18  C   UNL     1       3.559   3.591  16.988  0.00  0.00    +0.000 A 
ATOM     19  C   UNL     1       3.912   2.492  17.756  0.00  0.00    +0.000 A 
ATOM     20  C   UNL     1       3.575   2.458  19.111  0.00  0.00    +0.000 A 
ATOM     21  C   UNL     1       2.890   3.530  19.705  0.00  0.00    +0.000 A 
BRANCH  21  22
ATOM     22  C   UNL     1       2.448   3.375  21.069  0.00  0.00    +0.000 C 
ATOM     23  N   UNL     1       2.096   3.218  22.157  0.00  0.00    +0.000 NA
ENDBRANCH  21  22
ENDBRANCH  14  16
ENDBRANCH   2  12
BRANCH   1  24
ATOM     24  S   UNL     1       0.996  10.042  18.182  0.00  0.00    +0.000 S 
ATOM     25  O   UNL     1      -0.348   9.847  17.674  0.00  0.00    +0.000 OA
ATOM     26  O   UNL     1       2.147   9.471  17.504  0.00  0.00    +0.000 OA
BRANCH  24  33
ATOM     27  C   UNL     1       4.261  14.151  18.160  0.00  0.00    +0.000 C 
ATOM     28  C   UNL     1       2.865  13.624  18.316  0.00  0.00    +0.000 A 
ATOM     29  C   UNL     1       1.804  14.479  18.656  0.00  0.00    +0.000 A 
ATOM     30  C   UNL     1       0.502  13.986  18.814  0.00  0.00    +0.000 A 
ATOM     31  C   UNL     1      -0.649  14.880  19.163  0.00  0.00    +0.000 C 
ATOM     32  C   UNL     1       0.267  12.620  18.650  0.00  0.00    +0.000 A 
ATOM     33  C   UNL     1       1.325  11.762  18.351  0.00  0.00    +0.000 A 
ATOM     34  C   UNL     1       2.614  12.257  18.139  0.00  0.00    +0.000 A 
ENDBRANCH  24  33
ENDBRANCH   1  24
TORSDOF 5
ENDMDL
MODEL 8
REMARK VINA RESULT:      -7.5      1.032      2.402
REMARK  Name = 
REMARK  7 active torsions:
REMARK  status: ('A' for Active; 'I' for Inactive)
REMARK    1  A    between atoms: C_1  and  C_2
REMARK    2  A    between atoms: C_4  and  C_5
REMARK    3  A    between atoms: C_7  and  S_8
REMARK    4  A    between atoms: S_8  and  C_11
REMARK    5  A    between atoms: C_12  and  C_13
REMARK    6  A    between atoms: N_15  and  C_16
REMARK    7  A    between atoms: C_21  and  C_22
REMARK                            x       y       z     vdW  Elec       q    Type
REMARK                         _______ _______ _______ _____ _____    ______ ____
ROOT
ATOM      1  C   UNL     1      -0.755  11.480  20.726  0.00  0.00    +0.000 A 
ATOM      2  C   UNL     1      -1.035  11.411  22.089  0.00  0.00    +0.000 A 
ATOM      3  N   UNL     1      -0.363  10.309  22.570  0.00  0.00    +0.000 N 
ATOM      4  C   UNL     1       0.317   9.666  21.575  0.00  0.00    +0.000 A 
ATOM      5  C   UNL     1       1.100   8.512  21.647  0.00  0.00    +0.000 A 
ATOM      6  C   UNL     1       1.663   8.045  20.458  0.00  0.00    +0.000 A 
ATOM      7  C   UNL     1       1.446   8.714  19.258  0.00  0.00    +0.000 A 
ATOM      8 CL   UNL     1       2.135   8.095  17.807  0.00  0.00    +0.000 Cl
ATOM      9  C   UNL     1       0.671   9.876  19.208  0.00  0.00    +0.000 A 
ATOM     10  C   UNL     1       0.086  10.367  20.395  0.00  0.00    +0.000 A 
ATOM     11  H   UNL     1      -0.416   9.975  23.523  0.00  0.00    +0.000 HD
ENDROOT
BRANCH   2  12
ATOM     12  C   UNL     1      -1.904  12.200  22.928  0.00  0.00    +0.000 C 
ATOM     13  O   UNL     1      -2.871  11.697  23.481  0.00  0.00    +0.000 OA
ATOM     14  N   UNL     1      -1.533  13.541  23.018  0.00  0.00    +0.000 N 
ATOM     15  H   UNL     1      -0.812  13.870  22.385  0.00  0.00    +0.000 HD
BRANCH  14  16
ATOM     16  C   UNL     1      -2.206  14.533  23.783  0.00  0.00    +0.000 A 
ATOM     17  C   UNL     1      -1.582  15.117  24.892  0.00  0.00    +0.000 A 
ATOM     18  C   UNL     1      -2.210  16.108  25.645  0.00  0.00    +0.000 A 
ATOM     19  C   UNL     1      -3.469  16.559  25.283  0.00  0.00    +0.000 A 
ATOM     20  C   UNL     1      -4.121  15.987  24.188  0.00  0.00    +0.000 A 
ATOM     21  C   UNL     1      -3.508  14.965  23.446  0.00  0.00    +0.000 A 
BRANCH  21  22
ATOM     22  C   UNL     1      -4.286  14.319  22.417  0.00  0.00    +0.000 C 
ATOM     23  N   UNL     1      -4.909  13.831  21.577  0.00  0.00    +0.000 NA
ENDBRANCH  21  22
ENDBRANCH  14  16
ENDBRANCH   2  12
BRANCH   1  24
ATOM     24  S   UNL     1      -1.299  12.609  19.523  0.00  0.00    +0.000 S 
ATOM     25  O   UNL     1      -0.115  12.861  18.724  0.00  0.00    +0.000 OA
ATOM     26  O   UNL     1      -1.935  13.672  20.281  0.00  0.00    +0.000 OA
BRANCH  24  33
ATOM     27  C   UNL     1      -6.269  11.157  18.669  0.00  0.00    +0.000 C 
ATOM     28  C   UNL     1      -4.859  11.260  18.166  0.00  0.00    +0.000 A 
ATOM     29  C   UNL     1      -4.501  10.742  16.910  0.00  0.00    +0.000 A 
ATOM     30  C   UNL     1      -3.182  10.828  16.444  0.00  0.00    +0.000 A 
ATOM     31  C   UNL     1      -2.778  10.295  15.103  0.00  0.00    +0.000 C 
ATOM     32  C   UNL     1      -2.212  11.419  17.254  0.00  0.00    +0.000 A 
ATOM     33  C   UNL     1      -2.555  11.898  18.518  0.00  0.00    +0.000 A 
ATOM     34  C   UNL     1      -3.879  11.865  18.963  0.00  0.00    +0.000 A 
ENDBRANCH  24  33
ENDBRANCH   1  24
TORSDOF 5
ENDMDL
MODEL 9
REMARK VINA RESULT:      -7.4      1.466      2.430
REMARK  Name = 
REMARK  7 active torsions:
REMARK  status: ('A' for Active; 'I' for Inactive)
REMARK    1  A    between atoms: C_1  and  C_2
REMARK    2  A    between atoms: C_4  and  C_5
REMARK    3  A    between atoms: C_7  and  S_8
REMARK    4  A    between atoms: S_8  and  C_11
REMARK    5  A    between atoms: C_12  and  C_13
REMARK    6  A    between atoms: N_15  and  C_16
REMARK    7  A    between atoms: C_21  and  C_22
REMARK                            x       y       z     vdW  Elec       q    Type
REMARK                         _______ _______ _______ _____ _____    ______ ____
ROOT
ATOM      1  C   UNL     1      -1.577  11.918  21.301  0.00  0.00    +0.000 A 
ATOM      2  C   UNL     1      -2.013  11.901  22.625  0.00  0.00    +0.000 A 
ATOM      3  N   UNL     1      -1.331  10.880  23.247  0.00  0.00    +0.000 N 
ATOM      4  C   UNL     1      -0.494  10.236  22.380  0.00  0.00    +0.000 A 
ATOM      5  C   UNL     1       0.351   9.149  22.613  0.00  0.00    +0.000 A 
ATOM      6  C   UNL     1       1.082   8.663  21.529  0.00  0.00    +0.000 A 
ATOM      7  C   UNL     1       0.967   9.248  20.273  0.00  0.00    +0.000 A 
ATOM      8 CL   UNL     1       1.865   8.605  18.952  0.00  0.00    +0.000 Cl
ATOM      9  C   UNL     1       0.127  10.345  20.061  0.00  0.00    +0.000 A 
ATOM     10  C   UNL     1      -0.629  10.854  21.139  0.00  0.00    +0.000 A 
ATOM     11  H   UNL     1      -1.476  10.594  24.206  0.00  0.00    +0.000 HD
ENDROOT
BRANCH   2  12
ATOM     12  C   UNL     1      -3.029  12.667  23.306  0.00  0.00    +0.000 C 
ATOM     13  O   UNL     1      -2.775  13.265  24.341  0.00  0.00    +0.000 OA
ATOM     14  N   UNL     1      -4.273  12.634  22.678  0.00  0.00    +0.000 N 
ATOM     15  H   UNL     1      -4.397  11.972  21.920  0.00  0.00    +0.000 HD
BRANCH  14  16
ATOM     16  C   UNL     1      -5.441  13.308  23.129  0.00  0.00    +0.000 A 
ATOM     17  C   UNL     1      -6.597  12.585  23.449  0.00  0.00    +0.000 A 
ATOM     18  C   UNL     1      -7.748  13.218  23.915  0.00  0.00    +0.000 A 
ATOM     19  C   UNL     1      -7.757  14.592  24.099  0.00  0.00    +0.000 A 
ATOM     20  C   UNL     1      -6.622  15.340  23.777  0.00  0.00    +0.000 A 
ATOM     21  C   UNL     1      -5.470  14.713  23.276  0.00  0.00    +0.000 A 
BRANCH  21  22
ATOM     22  C   UNL     1      -4.385  15.551  22.831  0.00  0.00    +0.000 C 
ATOM     23  N   UNL     1      -3.515  16.236  22.504  0.00  0.00    +0.000 NA
ENDBRANCH  21  22
ENDBRANCH  14  16
ENDBRANCH   2  12
BRANCH   1  24
ATOM     24  S   UNL     1      -2.048  12.937  19.976  0.00  0.00    +0.000 S 
ATOM     25  O   UNL     1      -0.792  13.269  19.332  0.00  0.00    +0.000 OA
ATOM     26  O   UNL     1      -2.877  13.964  20.582  0.00  0.00    +0.000 OA
BRANCH  24  33
ATOM     27  C   UNL     1      -6.722  11.076  18.482  0.00  0.00    +0.000 C 
ATOM     28  C   UNL     1      -5.258  11.242  18.198  0.00  0.00    +0.000 A 
ATOM     29  C   UNL     1      -4.672  10.659  17.062  0.00  0.00    +0.000 A 
ATOM     30  C   UNL     1      -3.302  10.803  16.803  0.00  0.00    +0.000 A 
ATOM     31  C   UNL     1      -2.657  10.202  15.591  0.00  0.00    +0.000 C 
ATOM     32  C   UNL     1      -2.511  11.520  17.701  0.00  0.00    +0.000 A 
ATOM     33  C   UNL     1      -3.082  12.066  18.850  0.00  0.00    +0.000 A 
ATOM     34  C   UNL     1      -4.456  11.972  19.085  0.00  0.00    +0.000 A 
ENDBRANCH  24  33
ENDBRANCH   1  24
TORSDOF 5
ENDMDL
