MODEL 1
REMARK VINA RESULT:      -7.3      0.000      0.000
REMARK  Name = 
REMARK  5 active torsions:
REMARK  status: ('A' for Active; 'I' for Inactive)
REMARK    1  A    between atoms: C_1  and  C_2
REMARK    2  A    between atoms: N_5  and  C_6
REMARK    3  A    between atoms: C_11  and  N_12
REMARK    4  A    between atoms: C_15  and  C_16
REMARK    5  A    between atoms: C_24  and  C_25
REMARK                            x       y       z     vdW  Elec       q    Type
REMARK                         _______ _______ _______ _____ _____    ______ ____
ROOT
ATOM      1  N   UNL     1       2.267   6.272  19.570  0.00  0.00    +0.000 N 
ATOM      2  C   UNL     1       2.253   6.600  18.143  0.00  0.00    +0.000 C 
ATOM      3  C   UNL     1       2.837   7.998  17.980  0.00  0.00    +0.000 C 
ATOM      4  C   UNL     1       2.113   9.055  18.824  0.00  0.00    +0.000 C 
ATOM      5  C   UNL     1       1.931   8.599  20.277  0.00  0.00    +0.000 C 
ATOM      6  C   UNL     1       1.434   7.146  20.398  0.00  0.00    +0.000 C 
ENDROOT
BRANCH   4   7
ATOM      7  C   UNL     1       0.748   9.421  18.256  0.00  0.00    +0.000 C 
ATOM      8  O   UNL     1       0.262   8.797  17.313  0.00  0.00    +0.000 OA
ATOM      9  N   UNL     1       0.014  10.396  18.895  0.00  0.00    +0.000 N 
ATOM     10  C   UNL     1      -1.399  10.564  18.585  0.00  0.00    +0.000 C 
ATOM     11  C   UNL     1      -1.641  12.044  18.775  0.00  0.00    +0.000 C 
ATOM     12  F   UNL     1      -2.925  12.320  19.065  0.00  0.00    +0.000 F 
ATOM     13  F   UNL     1      -1.307  12.725  17.658  0.00  0.00    +0.000 F 
ATOM     14  C   UNL     1      -0.724  12.427  19.920  0.00  0.00    +0.000 C 
ATOM     15  C   UNL     1       0.486  11.492  19.756  0.00  0.00    +0.000 C 
BRANCH  15  16
ATOM     16  C   UNL     1       1.620  12.252  19.205  0.00  0.00    +0.000 C 
ATOM     17  N   UNL     1       2.499  12.841  18.720  0.00  0.00    +0.000 NA
ENDBRANCH  15  16
ENDBRANCH   4   7
BRANCH   1  23
ATOM     18  C   UNL     1       3.856   4.334  19.533  0.00  0.00    +0.000 A 
ATOM     19  C   UNL     1       4.102   3.011  19.967  0.00  0.00    +0.000 A 
ATOM     20  C   UNL     1       3.221   2.398  20.836  0.00  0.00    +0.000 A 
ATOM     21  N   UNL     1       2.147   3.013  21.339  0.00  0.00    +0.000 NA
ATOM     22  C   UNL     1       1.929   4.281  20.904  0.00  0.00    +0.000 A 
ATOM     23  C   UNL     1       2.699   5.015  19.975  0.00  0.00    +0.000 A 
BRANCH  18  28
ATOM     24  C   UNL     1       7.576   6.989  17.462  0.00  0.00    +0.000 C 
ATOM     25  C   UNL     1       6.456   6.056  17.692  0.00  0.00    +0.000 A 
ATOM     26  C   UNL     1       5.814   5.229  16.760  0.00  0.00    +0.000 A 
ATOM     27  N   UNL     1       4.861   4.482  17.308  0.00  0.00    +0.000 NA
ATOM     28  N   UNL     1       4.798   4.862  18.602  0.00  0.00    +0.000 N 
ATOM     29  C   UNL     1       5.794   5.789  18.872  0.00  0.00    +0.000 A 
ENDBRANCH  18  28
ENDBRANCH   1  23
TORSDOF 4
ENDMDL
MODEL 2
REMARK VINA RESULT:      -7.3      0.619      1.090
REMARK  Name = 
REMARK  5 active torsions:
REMARK  status: ('A' for Active; 'I' for Inactive)
REMARK    1  A    between atoms: C_1  and  C_2
REMARK    2  A    between atoms: N_5  and  C_6
REMARK    3  A    between atoms: C_11  and  N_12
REMARK    4  A    between atoms: C_15  and  C_16
REMARK    5  A    between atoms: C_24  and  C_25
REMARK                            x       y       z     vdW  Elec       q    Type
REMARK                         _______ _______ _______ _____ _____    ______ ____
ROOT
ATOM      1  N   UNL     1       2.269   6.217  19.632  0.00  0.00    +0.000 N 
ATOM      2  C   UNL     1       2.230   6.478  18.191  0.00  0.00    +0.000 C 
ATOM      3  C   UNL     1       2.830   7.859  17.951  0.00  0.00    +0.000 C 
ATOM      4  C   UNL     1       2.139   8.964  18.759  0.00  0.00    +0.000 C 
ATOM      5  C   UNL     1       1.982   8.579  20.235  0.00  0.00    +0.000 C 
ATOM      6  C   UNL     1       1.466   7.142  20.434  0.00  0.00    +0.000 C 
ENDROOT
BRANCH   4   7
ATOM      7  C   UNL     1       0.767   9.324  18.203  0.00  0.00    +0.000 C 
ATOM      8  O   UNL     1       0.264   8.681  17.282  0.00  0.00    +0.000 OA
ATOM      9  N   UNL     1       0.047  10.317  18.830  0.00  0.00    +0.000 N 
ATOM     10  C   UNL     1      -1.369  10.485  18.537  0.00  0.00    +0.000 C 
ATOM     11  C   UNL     1      -1.602  11.970  18.697  0.00  0.00    +0.000 C 
ATOM     12  F   UNL     1      -2.880  12.259  18.999  0.00  0.00    +0.000 F 
ATOM     13  F   UNL     1      -1.282  12.624  17.559  0.00  0.00    +0.000 F 
ATOM     14  C   UNL     1      -0.666  12.375  19.819  0.00  0.00    +0.000 C 
ATOM     15  C   UNL     1       0.536  11.430  19.659  0.00  0.00    +0.000 C 
BRANCH  15  16
ATOM     16  C   UNL     1       1.666  12.172  19.074  0.00  0.00    +0.000 C 
ATOM     17  N   UNL     1       2.526  12.773  18.571  0.00  0.00    +0.000 NA
ENDBRANCH  15  16
ENDBRANCH   4   7
BRANCH   1  23
ATOM     18  C   UNL     1       3.708   4.168  19.524  0.00  0.00    +0.000 A 
ATOM     19  C   UNL     1       3.949   2.876  20.046  0.00  0.00    +0.000 A 
ATOM     20  C   UNL     1       3.206   2.417  21.116  0.00  0.00    +0.000 A 
ATOM     21  N   UNL     1       2.279   3.158  21.731  0.00  0.00    +0.000 NA
ATOM     22  C   UNL     1       2.062   4.393  21.208  0.00  0.00    +0.000 A 
ATOM     23  C   UNL     1       2.692   4.975  20.086  0.00  0.00    +0.000 A 
BRANCH  18  28
ATOM     24  C   UNL     1       5.575   4.448  14.876  0.00  0.00    +0.000 C 
ATOM     25  C   UNL     1       5.318   4.643  16.315  0.00  0.00    +0.000 A 
ATOM     26  C   UNL     1       6.021   5.453  17.218  0.00  0.00    +0.000 A 
ATOM     27  N   UNL     1       5.503   5.428  18.442  0.00  0.00    +0.000 NA
ATOM     28  N   UNL     1       4.494   4.532  18.392  0.00  0.00    +0.000 N 
ATOM     29  C   UNL     1       4.332   4.074  17.093  0.00  0.00    +0.000 A 
ENDBRANCH  18  28
ENDBRANCH   1  23
TORSDOF 4
ENDMDL
MODEL 3
REMARK VINA RESULT:      -7.1      6.868      9.560
REMARK  Name = 
REMARK  5 active torsions:
REMARK  status: ('A' for Active; 'I' for Inactive)
REMARK    1  A    between atoms: C_1  and  C_2
REMARK    2  A    between atoms: N_5  and  C_6
REMARK    3  A    between atoms: C_11  and  N_12
REMARK    4  A    between atoms: C_15  and  C_16
REMARK    5  A    between atoms: C_24  and  C_25
REMARK                            x       y       z     vdW  Elec       q    Type
REMARK                         _______ _______ _______ _____ _____    ______ ____
ROOT
ATOM      1  N   UNL     1       8.290  15.675  18.345  0.00  0.00    +0.000 N 
ATOM      2  C   UNL     1       7.873  16.634  19.371  0.00  0.00    +0.000 C 
ATOM      3  C   UNL     1       6.945  15.908  20.338  0.00  0.00    +0.000 C 
ATOM      4  C   UNL     1       5.749  15.247  19.642  0.00  0.00    +0.000 C 
ATOM      5  C   UNL     1       6.181  14.422  18.424  0.00  0.00    +0.000 C 
ATOM      6  C   UNL     1       7.195  15.154  17.525  0.00  0.00    +0.000 C 
ENDROOT
BRANCH   4   7
ATOM      7  C   UNL     1       4.701  16.257  19.195  0.00  0.00    +0.000 C 
ATOM      8  O   UNL     1       5.011  17.414  18.910  0.00  0.00    +0.000 OA
ATOM      9  N   UNL     1       3.408  15.820  19.006  0.00  0.00    +0.000 N 
ATOM     10  C   UNL     1       2.452  16.657  18.296  0.00  0.00    +0.000 C 
ATOM     11  C   UNL     1       1.125  16.320  18.935  0.00  0.00    +0.000 C 
ATOM     12  F   UNL     1       0.086  16.551  18.113  0.00  0.00    +0.000 F 
ATOM     13  F   UNL     1       0.941  17.049  20.057  0.00  0.00    +0.000 F 
ATOM     14  C   UNL     1       1.240  14.847  19.277  0.00  0.00    +0.000 C 
ATOM     15  C   UNL     1       2.731  14.656  19.599  0.00  0.00    +0.000 C 
BRANCH  15  16
ATOM     16  C   UNL     1       2.903  14.531  21.057  0.00  0.00    +0.000 C 
ATOM     17  N   UNL     1       3.088  14.452  22.203  0.00  0.00    +0.000 NA
ENDBRANCH  15  16
ENDBRANCH   4   7
BRANCH   1  23
ATOM     18  C   UNL     1      10.494  14.515  18.066  0.00  0.00    +0.000 A 
ATOM     19  C   UNL     1      11.860  14.658  17.727  0.00  0.00    +0.000 A 
ATOM     20  C   UNL     1      12.333  15.876  17.281  0.00  0.00    +0.000 A 
ATOM     21  N   UNL     1      11.548  16.942  17.101  0.00  0.00    +0.000 NA
ATOM     22  C   UNL     1      10.242  16.782  17.438  0.00  0.00    +0.000 A 
ATOM     23  C   UNL     1       9.625  15.625  17.964  0.00  0.00    +0.000 A 
BRANCH  18  28
ATOM     24  C   UNL     1       8.727   9.830  18.376  0.00  0.00    +0.000 C 
ATOM     25  C   UNL     1       9.318  11.146  18.683  0.00  0.00    +0.000 A 
ATOM     26  C   UNL     1       9.748  11.632  19.925  0.00  0.00    +0.000 A 
ATOM     27  N   UNL     1      10.267  12.854  19.847  0.00  0.00    +0.000 NA
ATOM     28  N   UNL     1      10.113  13.233  18.560  0.00  0.00    +0.000 N 
ATOM     29  C   UNL     1       9.578  12.190  17.820  0.00  0.00    +0.000 A 
ENDBRANCH  18  28
ENDBRANCH   1  23
TORSDOF 4
ENDMDL
MODEL 4
REMARK VINA RESULT:      -6.8      3.708      7.923
REMARK  Name = 
REMARK  5 active torsions:
REMARK  status: ('A' for Active; 'I' for Inactive)
REMARK    1  A    between atoms: C_1  and  C_2
REMARK    2  A    between atoms: N_5  and  C_6
REMARK    3  A    between atoms: C_11  and  N_12
REMARK    4  A    between atoms: C_15  and  C_16
REMARK    5  A    between atoms: C_24  and  C_25
REMARK                            x       y       z     vdW  Elec       q    Type
REMARK                         _______ _______ _______ _____ _____    ______ ____
ROOT
ATOM      1  N   UNL     1       1.185   8.695  20.172  0.00  0.00    +0.000 N 
ATOM      2  C   UNL     1       1.576   9.267  18.881  0.00  0.00    +0.000 C 
ATOM      3  C   UNL     1       1.320   8.214  17.808  0.00  0.00    +0.000 C 
ATOM      4  C   UNL     1       2.029   6.883  18.091  0.00  0.00    +0.000 C 
ATOM      5  C   UNL     1       1.796   6.406  19.529  0.00  0.00    +0.000 C 
ATOM      6  C   UNL     1       1.967   7.525  20.574  0.00  0.00    +0.000 C 
ENDROOT
BRANCH   4   7
ATOM      7  C   UNL     1       3.529   6.956  17.841  0.00  0.00    +0.000 C 
ATOM      8  O   UNL     1       4.044   7.952  17.333  0.00  0.00    +0.000 OA
ATOM      9  N   UNL     1       4.320   5.927  18.302  0.00  0.00    +0.000 N 
ATOM     10  C   UNL     1       5.766   6.089  18.364  0.00  0.00    +0.000 C 
ATOM     11  C   UNL     1       6.302   4.699  18.116  0.00  0.00    +0.000 C 
ATOM     12  F   UNL     1       7.524   4.518  18.646  0.00  0.00    +0.000 F 
ATOM     13  F   UNL     1       6.379   4.450  16.791  0.00  0.00    +0.000 F 
ATOM     14  C   UNL     1       5.280   3.785  18.765  0.00  0.00    +0.000 C 
ATOM     15  C   UNL     1       3.948   4.532  18.586  0.00  0.00    +0.000 C 
BRANCH  15  16
ATOM     16  C   UNL     1       3.164   3.883  17.520  0.00  0.00    +0.000 C 
ATOM     17  N   UNL     1       2.513   3.351  16.716  0.00  0.00    +0.000 NA
ENDBRANCH  15  16
ENDBRANCH   4   7
BRANCH   1  23
ATOM     18  C   UNL     1      -0.561  10.404  20.731  0.00  0.00    +0.000 A 
ATOM     19  C   UNL     1      -1.154  11.183  21.751  0.00  0.00    +0.000 A 
ATOM     20  C   UNL     1      -0.765  11.008  23.064  0.00  0.00    +0.000 A 
ATOM     21  N   UNL     1       0.129  10.090  23.443  0.00  0.00    +0.000 NA
ATOM     22  C   UNL     1       0.689   9.358  22.445  0.00  0.00    +0.000 A 
ATOM     23  C   UNL     1       0.443   9.464  21.059  0.00  0.00    +0.000 A 
BRANCH  18  28
ATOM     24  C   UNL     1      -2.670  10.034  16.194  0.00  0.00    +0.000 C 
ATOM     25  C   UNL     1      -1.939  10.509  17.384  0.00  0.00    +0.000 A 
ATOM     26  C   UNL     1      -1.240  11.714  17.545  0.00  0.00    +0.000 A 
ATOM     27  N   UNL     1      -0.721  11.846  18.762  0.00  0.00    +0.000 NA
ATOM     28  N   UNL     1      -0.996  10.691  19.404  0.00  0.00    +0.000 N 
ATOM     29  C   UNL     1      -1.779   9.877  18.598  0.00  0.00    +0.000 A 
ENDBRANCH  18  28
ENDBRANCH   1  23
TORSDOF 4
ENDMDL
MODEL 5
REMARK VINA RESULT:      -6.6      3.530      8.267
REMARK  Name = 
REMARK  5 active torsions:
REMARK  status: ('A' for Active; 'I' for Inactive)
REMARK    1  A    between atoms: C_1  and  C_2
REMARK    2  A    between atoms: N_5  and  C_6
REMARK    3  A    between atoms: C_11  and  N_12
REMARK    4  A    between atoms: C_15  and  C_16
REMARK    5  A    between atoms: C_24  and  C_25
REMARK                            x       y       z     vdW  Elec       q    Type
REMARK                         _______ _______ _______ _____ _____    ______ ____
ROOT
ATOM      1  N   UNL     1       1.124   9.864  19.507  0.00  0.00    +0.000 N 
ATOM      2  C   UNL     1       1.408   9.785  18.072  0.00  0.00    +0.000 C 
ATOM      3  C   UNL     1       1.028   8.386  17.598  0.00  0.00    +0.000 C 
ATOM      4  C   UNL     1       1.726   7.273  18.389  0.00  0.00    +0.000 C 
ATOM      5  C   UNL     1       1.615   7.491  19.902  0.00  0.00    +0.000 C 
ATOM      6  C   UNL     1       1.911   8.941  20.328  0.00  0.00    +0.000 C 
ENDROOT
BRANCH   4   7
ATOM      7  C   UNL     1       3.198   7.134  18.025  0.00  0.00    +0.000 C 
ATOM      8  O   UNL     1       3.792   8.024  17.417  0.00  0.00    +0.000 OA
ATOM      9  N   UNL     1       3.887   6.036  18.492  0.00  0.00    +0.000 N 
ATOM     10  C   UNL     1       5.341   6.010  18.437  0.00  0.00    +0.000 C 
ATOM     11  C   UNL     1       5.674   4.549  18.241  0.00  0.00    +0.000 C 
ATOM     12  F   UNL     1       6.903   4.238  18.691  0.00  0.00    +0.000 F 
ATOM     13  F   UNL     1       5.612   4.221  16.933  0.00  0.00    +0.000 F 
ATOM     14  C   UNL     1       4.601   3.815  19.021  0.00  0.00    +0.000 C 
ATOM     15  C   UNL     1       3.364   4.719  18.893  0.00  0.00    +0.000 C 
BRANCH  15  16
ATOM     16  C   UNL     1       2.421   4.123  17.932  0.00  0.00    +0.000 C 
ATOM     17  N   UNL     1       1.716   3.645  17.138  0.00  0.00    +0.000 NA
ENDBRANCH  15  16
ENDBRANCH   4   7
BRANCH   1  23
ATOM     18  C   UNL     1      -0.742  11.535  19.576  0.00  0.00    +0.000 A 
ATOM     19  C   UNL     1      -1.207  12.750  20.129  0.00  0.00    +0.000 A 
ATOM     20  C   UNL     1      -0.470  13.387  21.107  0.00  0.00    +0.000 A 
ATOM     21  N   UNL     1       0.664  12.886  21.607  0.00  0.00    +0.000 NA
ATOM     22  C   UNL     1       1.093  11.722  21.057  0.00  0.00    +0.000 A 
ATOM     23  C   UNL     1       0.487  10.989  20.013  0.00  0.00    +0.000 A 
BRANCH  18  28
ATOM     24  C   UNL     1      -3.164  10.843  15.237  0.00  0.00    +0.000 C 
ATOM     25  C   UNL     1      -2.626  10.687  16.602  0.00  0.00    +0.000 A 
ATOM     26  C   UNL     1      -2.882   9.659  17.520  0.00  0.00    +0.000 A 
ATOM     27  N   UNL     1      -2.204   9.804  18.654  0.00  0.00    +0.000 NA
ATOM     28  N   UNL     1      -1.549  10.980  18.540  0.00  0.00    +0.000 N 
ATOM     29  C   UNL     1      -1.754  11.515  17.277  0.00  0.00    +0.000 A 
ENDBRANCH  18  28
ENDBRANCH   1  23
TORSDOF 4
ENDMDL
MODEL 6
REMARK VINA RESULT:      -6.6      0.924      1.134
REMARK  Name = 
REMARK  5 active torsions:
REMARK  status: ('A' for Active; 'I' for Inactive)
REMARK    1  A    between atoms: C_1  and  C_2
REMARK    2  A    between atoms: N_5  and  C_6
REMARK    3  A    between atoms: C_11  and  N_12
REMARK    4  A    between atoms: C_15  and  C_16
REMARK    5  A    between atoms: C_24  and  C_25
REMARK                            x       y       z     vdW  Elec       q    Type
REMARK                         _______ _______ _______ _____ _____    ______ ____
ROOT
ATOM      1  N   UNL     1       2.408   6.010  18.915  0.00  0.00    +0.000 N 
ATOM      2  C   UNL     1       2.284   6.567  17.566  0.00  0.00    +0.000 C 
ATOM      3  C   UNL     1       2.881   7.970  17.583  0.00  0.00    +0.000 C 
ATOM      4  C   UNL     1       2.250   8.879  18.646  0.00  0.00    +0.000 C 
ATOM      5  C   UNL     1       2.179   8.193  20.016  0.00  0.00    +0.000 C 
ATOM      6  C   UNL     1       1.663   6.744  19.940  0.00  0.00    +0.000 C 
ENDROOT
BRANCH   4   7
ATOM      7  C   UNL     1       0.851   9.342  18.262  0.00  0.00    +0.000 C 
ATOM      8  O   UNL     1       0.160   8.697  17.474  0.00  0.00    +0.000 OA
ATOM      9  N   UNL     1       0.327  10.442  18.904  0.00  0.00    +0.000 N 
ATOM     10  C   UNL     1      -1.095  10.737  18.802  0.00  0.00    +0.000 C 
ATOM     11  C   UNL     1      -1.163  12.244  18.876  0.00  0.00    +0.000 C 
ATOM     12  F   UNL     1      -2.350  12.683  19.332  0.00  0.00    +0.000 F 
ATOM     13  F   UNL     1      -0.955  12.788  17.658  0.00  0.00    +0.000 F 
ATOM     14  C   UNL     1      -0.038  12.621  19.821  0.00  0.00    +0.000 C 
ATOM     15  C   UNL     1       1.034  11.549  19.568  0.00  0.00    +0.000 C 
BRANCH  15  16
ATOM     16  C   UNL     1       2.129  12.132  18.773  0.00  0.00    +0.000 C 
ATOM     17  N   UNL     1       3.007  12.543  18.130  0.00  0.00    +0.000 NA
ENDBRANCH  15  16
ENDBRANCH   4   7
BRANCH   1  23
ATOM     18  C   UNL     1       4.184   4.246  19.039  0.00  0.00    +0.000 A 
ATOM     19  C   UNL     1       4.457   2.860  19.114  0.00  0.00    +0.000 A 
ATOM     20  C   UNL     1       3.416   1.961  19.240  0.00  0.00    +0.000 A 
ATOM     21  N   UNL     1       2.138   2.336  19.344  0.00  0.00    +0.000 NA
ATOM     22  C   UNL     1       1.900   3.670  19.264  0.00  0.00    +0.000 A 
ATOM     23  C   UNL     1       2.846   4.702  19.072  0.00  0.00    +0.000 A 
BRANCH  18  28
ATOM     24  C   UNL     1       7.475   7.518  17.132  0.00  0.00    +0.000 C 
ATOM     25  C   UNL     1       6.779   6.547  17.998  0.00  0.00    +0.000 A 
ATOM     26  C   UNL     1       7.208   6.019  19.223  0.00  0.00    +0.000 A 
ATOM     27  N   UNL     1       6.320   5.190  19.764  0.00  0.00    +0.000 NA
ATOM     28  N   UNL     1       5.320   5.090  18.863  0.00  0.00    +0.000 N 
ATOM     29  C   UNL     1       5.555   5.945  17.797  0.00  0.00    +0.000 A 
ENDBRANCH  18  28
ENDBRANCH   1  23
TORSDOF 4
ENDMDL
MODEL 7
REMARK VINA RESULT:      -6.6      2.034      4.052
REMARK  Name = 
REMARK  5 active torsions:
REMARK  status: ('A' for Active; 'I' for Inactive)
REMARK    1  A    between atoms: C_1  and  C_2
REMARK    2  A    between atoms: N_5  and  C_6
REMARK    3  A    between atoms: C_11  and  N_12
REMARK    4  A    between atoms: C_15  and  C_16
REMARK    5  A    between atoms: C_24  and  C_25
REMARK                            x       y       z     vdW  Elec       q    Type
REMARK                         _______ _______ _______ _____ _____    ______ ____
ROOT
ATOM      1  N   UNL     1       2.836   7.545  18.358  0.00  0.00    +0.000 N 
ATOM      2  C   UNL     1       2.540   7.386  19.784  0.00  0.00    +0.000 C 
ATOM      3  C   UNL     1       1.045   7.614  19.978  0.00  0.00    +0.000 C 
ATOM      4  C   UNL     1       0.566   8.966  19.433  0.00  0.00    +0.000 C 
ATOM      5  C   UNL     1       1.077   9.222  18.010  0.00  0.00    +0.000 C 
ATOM      6  C   UNL     1       2.569   8.885  17.833  0.00  0.00    +0.000 C 
ENDROOT
BRANCH   4   7
ATOM      7  C   UNL     1       0.987  10.133  20.316  0.00  0.00    +0.000 C 
ATOM      8  O   UNL     1       1.478   9.945  21.430  0.00  0.00    +0.000 OA
ATOM      9  N   UNL     1       0.914  11.406  19.797  0.00  0.00    +0.000 N 
ATOM     10  C   UNL     1       1.582  12.509  20.474  0.00  0.00    +0.000 C 
ATOM     11  C   UNL     1       0.708  13.705  20.176  0.00  0.00    +0.000 C 
ATOM     12  F   UNL     1       1.387  14.864  20.233  0.00  0.00    +0.000 F 
ATOM     13  F   UNL     1      -0.314  13.774  21.056  0.00  0.00    +0.000 F 
ATOM     14  C   UNL     1       0.182  13.443  18.778  0.00  0.00    +0.000 C 
ATOM     15  C   UNL     1       0.066  11.911  18.706  0.00  0.00    +0.000 C 
BRANCH  15  16
ATOM     16  C   UNL     1      -1.351  11.524  18.809  0.00  0.00    +0.000 C 
ATOM     17  N   UNL     1      -2.477  11.231  18.839  0.00  0.00    +0.000 NA
ENDBRANCH  15  16
ENDBRANCH   4   7
BRANCH   1  23
ATOM     18  C   UNL     1       3.634   5.219  17.874  0.00  0.00    +0.000 A 
ATOM     19  C   UNL     1       4.619   4.425  17.241  0.00  0.00    +0.000 A 
ATOM     20  C   UNL     1       5.593   5.026  16.468  0.00  0.00    +0.000 A 
ATOM     21  N   UNL     1       5.635   6.342  16.242  0.00  0.00    +0.000 NA
ATOM     22  C   UNL     1       4.683   7.084  16.864  0.00  0.00    +0.000 A 
ATOM     23  C   UNL     1       3.665   6.625  17.730  0.00  0.00    +0.000 A 
BRANCH  18  28
ATOM     24  C   UNL     1       1.536   2.659  21.644  0.00  0.00    +0.000 C 
ATOM     25  C   UNL     1       1.780   3.368  20.373  0.00  0.00    +0.000 A 
ATOM     26  C   UNL     1       0.898   3.545  19.299  0.00  0.00    +0.000 A 
ATOM     27  N   UNL     1       1.425   4.267  18.315  0.00  0.00    +0.000 NA
ATOM     28  N   UNL     1       2.700   4.511  18.685  0.00  0.00    +0.000 N 
ATOM     29  C   UNL     1       2.927   4.012  19.960  0.00  0.00    +0.000 A 
ENDBRANCH  18  28
ENDBRANCH   1  23
TORSDOF 4
ENDMDL
MODEL 8
REMARK VINA RESULT:      -6.5      7.353      9.381
REMARK  Name = 
REMARK  5 active torsions:
REMARK  status: ('A' for Active; 'I' for Inactive)
REMARK    1  A    between atoms: C_1  and  C_2
REMARK    2  A    between atoms: N_5  and  C_6
REMARK    3  A    between atoms: C_11  and  N_12
REMARK    4  A    between atoms: C_15  and  C_16
REMARK    5  A    between atoms: C_24  and  C_25
REMARK                            x       y       z     vdW  Elec       q    Type
REMARK                         _______ _______ _______ _____ _____    ______ ____
ROOT
ATOM      1  N   UNL     1       7.782  15.479  18.567  0.00  0.00    +0.000 N 
ATOM      2  C   UNL     1       7.318  16.391  19.614  0.00  0.00    +0.000 C 
ATOM      3  C   UNL     1       6.252  15.665  20.427  0.00  0.00    +0.000 C 
ATOM      4  C   UNL     1       5.098  15.133  19.568  0.00  0.00    +0.000 C 
ATOM      5  C   UNL     1       5.606  14.366  18.341  0.00  0.00    +0.000 C 
ATOM      6  C   UNL     1       6.749  15.089  17.605  0.00  0.00    +0.000 C 
ENDROOT
BRANCH   4   7
ATOM      7  C   UNL     1       4.164  16.239  19.096  0.00  0.00    +0.000 C 
ATOM      8  O   UNL     1       4.586  17.370  18.855  0.00  0.00    +0.000 OA
ATOM      9  N   UNL     1       2.851  15.919  18.834  0.00  0.00    +0.000 N 
ATOM     10  C   UNL     1       2.006  16.849  18.099  0.00  0.00    +0.000 C 
ATOM     11  C   UNL     1       0.625  16.615  18.664  0.00  0.00    +0.000 C 
ATOM     12  F   UNL     1      -0.348  16.951  17.798  0.00  0.00    +0.000 F 
ATOM     13  F   UNL     1       0.447  17.334  19.793  0.00  0.00    +0.000 F 
ATOM     14  C   UNL     1       0.597  15.131  18.974  0.00  0.00    +0.000 C 
ATOM     15  C   UNL     1       2.048  14.805  19.364  0.00  0.00    +0.000 C 
BRANCH  15  16
ATOM     16  C   UNL     1       2.134  14.637  20.825  0.00  0.00    +0.000 C 
ATOM     17  N   UNL     1       2.249  14.478  21.972  0.00  0.00    +0.000 NA
ENDBRANCH  15  16
ENDBRANCH   4   7
BRANCH   1  23
ATOM     18  C   UNL     1      10.030  14.410  18.866  0.00  0.00    +0.000 A 
ATOM     19  C   UNL     1      11.414  14.495  18.591  0.00  0.00    +0.000 A 
ATOM     20  C   UNL     1      11.892  15.498  17.771  0.00  0.00    +0.000 A 
ATOM     21  N   UNL     1      11.097  16.390  17.172  0.00  0.00    +0.000 NA
ATOM     22  C   UNL     1       9.772  16.292  17.456  0.00  0.00    +0.000 A 
ATOM     23  C   UNL     1       9.144  15.367  18.318  0.00  0.00    +0.000 A 
BRANCH  18  28
ATOM     24  C   UNL     1       8.475  11.914  22.931  0.00  0.00    +0.000 C 
ATOM     25  C   UNL     1       8.950  12.270  21.580  0.00  0.00    +0.000 A 
ATOM     26  C   UNL     1       9.276  11.409  20.523  0.00  0.00    +0.000 A 
ATOM     27  N   UNL     1       9.639  12.061  19.423  0.00  0.00    +0.000 NA
ATOM     28  N   UNL     1       9.641  13.369  19.759  0.00  0.00    +0.000 N 
ATOM     29  C   UNL     1       9.179  13.525  21.057  0.00  0.00    +0.000 A 
ENDBRANCH  18  28
ENDBRANCH   1  23
TORSDOF 4
ENDMDL
MODEL 9
REMARK VINA RESULT:      -6.5      6.996      9.593
REMARK  Name = 
REMARK  5 active torsions:
REMARK  status: ('A' for Active; 'I' for Inactive)
REMARK    1  A    between atoms: C_1  and  C_2
REMARK    2  A    between atoms: N_5  and  C_6
REMARK    3  A    between atoms: C_11  and  N_12
REMARK    4  A    between atoms: C_15  and  C_16
REMARK    5  A    between atoms: C_24  and  C_25
REMARK                            x       y       z     vdW  Elec       q    Type
REMARK                         _______ _______ _______ _____ _____    ______ ____
ROOT
ATOM      1  N   UNL     1       8.056  15.981  19.508  0.00  0.00    +0.000 N 
ATOM      2  C   UNL     1       7.100  16.277  20.578  0.00  0.00    +0.000 C 
ATOM      3  C   UNL     1       6.035  15.186  20.566  0.00  0.00    +0.000 C 
ATOM      4  C   UNL     1       5.349  15.029  19.203  0.00  0.00    +0.000 C 
ATOM      5  C   UNL     1       6.366  14.948  18.058  0.00  0.00    +0.000 C 
ATOM      6  C   UNL     1       7.481  16.005  18.162  0.00  0.00    +0.000 C 
ENDROOT
BRANCH   4   7
ATOM      7  C   UNL     1       4.374  16.160  18.907  0.00  0.00    +0.000 C 
ATOM      8  O   UNL     1       4.763  17.322  18.786  0.00  0.00    +0.000 OA
ATOM      9  N   UNL     1       3.057  15.842  18.663  0.00  0.00    +0.000 N 
ATOM     10  C   UNL     1       2.163  16.833  18.080  0.00  0.00    +0.000 C 
ATOM     11  C   UNL     1       0.813  16.499  18.670  0.00  0.00    +0.000 C 
ATOM     12  F   UNL     1      -0.203  16.912  17.892  0.00  0.00    +0.000 F 
ATOM     13  F   UNL     1       0.671  17.074  19.884  0.00  0.00    +0.000 F 
ATOM     14  C   UNL     1       0.827  14.989  18.801  0.00  0.00    +0.000 C 
ATOM     15  C   UNL     1       2.299  14.654  19.089  0.00  0.00    +0.000 C 
BRANCH  15  16
ATOM     16  C   UNL     1       2.453  14.315  20.513  0.00  0.00    +0.000 C 
ATOM     17  N   UNL     1       2.568  13.995  21.627  0.00  0.00    +0.000 NA
ENDBRANCH  15  16
ENDBRANCH   4   7
BRANCH   1  23
ATOM     18  C   UNL     1      10.396  15.086  19.585  0.00  0.00    +0.000 A 
ATOM     19  C   UNL     1      11.730  15.324  19.990  0.00  0.00    +0.000 A 
ATOM     20  C   UNL     1      12.074  16.543  20.539  0.00  0.00    +0.000 A 
ATOM     21  N   UNL     1      11.208  17.553  20.671  0.00  0.00    +0.000 NA
ATOM     22  C   UNL     1       9.933  17.299  20.280  0.00  0.00    +0.000 A 
ATOM     23  C   UNL     1       9.417  16.090  19.763  0.00  0.00    +0.000 A 
BRANCH  18  28
ATOM     24  C   UNL     1       9.264  10.210  19.245  0.00  0.00    +0.000 C 
ATOM     25  C   UNL     1       9.627  11.607  18.938  0.00  0.00    +0.000 A 
ATOM     26  C   UNL     1       9.936  12.166  17.690  0.00  0.00    +0.000 A 
ATOM     27  N   UNL     1      10.186  13.470  17.760  0.00  0.00    +0.000 NA
ATOM     28  N   UNL     1      10.130  13.782  19.073  0.00  0.00    +0.000 N 
ATOM     29  C   UNL     1       9.745  12.670  19.808  0.00  0.00    +0.000 A 
ENDBRANCH  18  28
ENDBRANCH   1  23
TORSDOF 4
ENDMDL
