MODEL 1
REMARK VINA RESULT:      -7.4      0.000      0.000
REMARK  Name = 
REMARK  11 active torsions:
REMARK  status: ('A' for Active; 'I' for Inactive)
REMARK    1  A    between atoms: C_1  and  C_2
REMARK    2  A    between atoms: C_2  and  C_3
REMARK    3  A    between atoms: C_3  and  C_4
REMARK    4  A    between atoms: C_4  and  N_5
REMARK    5  A    between atoms: N_12  and  S_13
REMARK    6  A    between atoms: S_13  and  C_16
REMARK    7  A    between atoms: C_16  and  C_17
REMARK    8  A    between atoms: N_23  and  C_24
REMARK    9  A    between atoms: C_24  and  C_25
REMARK   10  A    between atoms: C_25  and  C_26
REMARK   11  A    between atoms: C_26  and  C_27
REMARK                            x       y       z     vdW  Elec       q    Type
REMARK                         _______ _______ _______ _____ _____    ______ ____
ROOT
ATOM      1  N   UNL     1       2.427   7.465  19.197  0.00  0.00    +0.000 N 
ATOM      2  C   UNL     1       3.452   7.295  18.271  0.00  0.00    +0.000 A 
ATOM      3  O   UNL     1       3.781   8.145  17.461  0.00  0.00    +0.000 OA
ATOM      4  C   UNL     1       4.123   6.057  18.418  0.00  0.00    +0.000 A 
ATOM      5  C   UNL     1       3.784   5.132  19.353  0.00  0.00    +0.000 A 
ATOM      6  N   UNL     1       4.608   4.041  19.314  0.00  0.00    +0.000 NA
ATOM      7  C   UNL     1       5.459   4.305  18.335  0.00  0.00    +0.000 A 
ATOM      8  N   UNL     1       5.203   5.530  17.784  0.00  0.00    +0.000 N 
ATOM      9  N   UNL     1       2.735   5.331  20.229  0.00  0.00    +0.000 N 
ATOM     10  C   UNL     1       1.943   6.468  20.066  0.00  0.00    +0.000 A 
ATOM     11  O   UNL     1       0.881   6.616  20.674  0.00  0.00    +0.000 OA
ENDROOT
BRANCH   8  12
ATOM     12  S   UNL     1       6.056   6.219  16.493  0.00  0.00    +0.000 S 
ATOM     13  O   UNL     1       5.032   6.394  15.473  0.00  0.00    +0.000 OA
ATOM     14  O   UNL     1       6.710   7.362  17.095  0.00  0.00    +0.000 OA
BRANCH  12  15
ATOM     15  C   UNL     1       7.253   5.021  15.903  0.00  0.00    +0.000 C 
BRANCH  15  16
ATOM     16  C   UNL     1       7.011   4.686  14.448  0.00  0.00    +0.000 A 
ATOM     17  C   UNL     1       7.763   5.274  13.420  0.00  0.00    +0.000 A 
ATOM     18  C   UNL     1       7.556   4.904  12.084  0.00  0.00    +0.000 A 
ATOM     19  C   UNL     1       6.595   3.948  11.765  0.00  0.00    +0.000 A 
ATOM     20  C   UNL     1       5.837   3.363  12.775  0.00  0.00    +0.000 A 
ATOM     21  C   UNL     1       6.046   3.728  14.107  0.00  0.00    +0.000 A 
ENDBRANCH  15  16
ENDBRANCH  12  15
ENDBRANCH   8  12
BRANCH   1  22
ATOM     22  C   UNL     1       1.799   8.781  19.272  0.00  0.00    +0.000 C 
BRANCH  22  23
ATOM     23  C   UNL     1       1.049   9.126  17.977  0.00  0.00    +0.000 C 
BRANCH  23  25
ATOM     24  C   UNL     1       0.004  10.867  19.450  0.00  0.00    +0.000 C 
ATOM     25  C   UNL     1      -0.191   9.988  18.226  0.00  0.00    +0.000 C 
ENDBRANCH  23  25
ENDBRANCH  22  23
ENDBRANCH   1  22
BRANCH   9  26
ATOM     26  C   UNL     1       2.386   4.352  21.258  0.00  0.00    +0.000 C 
BRANCH  26  27
ATOM     27  C   UNL     1       1.221   3.423  20.896  0.00  0.00    +0.000 C 
BRANCH  27  28
ATOM     28  C   UNL     1       1.553   2.258  19.962  0.00  0.00    +0.000 C 
ATOM     29  C   UNL     1       0.996   2.559  18.572  0.00  0.00    +0.000 C 
ENDBRANCH  27  28
ENDBRANCH  26  27
ENDBRANCH   9  26
TORSDOF 9
ENDMDL
MODEL 2
REMARK VINA RESULT:      -7.3      0.936      1.120
REMARK  Name = 
REMARK  11 active torsions:
REMARK  status: ('A' for Active; 'I' for Inactive)
REMARK    1  A    between atoms: C_1  and  C_2
REMARK    2  A    between atoms: C_2  and  C_3
REMARK    3  A    between atoms: C_3  and  C_4
REMARK    4  A    between atoms: C_4  and  N_5
REMARK    5  A    between atoms: N_12  and  S_13
REMARK    6  A    between atoms: S_13  and  C_16
REMARK    7  A    between atoms: C_16  and  C_17
REMARK    8  A    between atoms: N_23  and  C_24
REMARK    9  A    between atoms: C_24  and  C_25
REMARK   10  A    between atoms: C_25  and  C_26
REMARK   11  A    between atoms: C_26  and  C_27
REMARK                            x       y       z     vdW  Elec       q    Type
REMARK                         _______ _______ _______ _____ _____    ______ ____
ROOT
ATOM      1  N   UNL     1       2.298   7.103  19.412  0.00  0.00    +0.000 N 
ATOM      2  C   UNL     1       3.319   7.059  18.467  0.00  0.00    +0.000 A 
ATOM      3  O   UNL     1       3.560   7.966  17.689  0.00  0.00    +0.000 OA
ATOM      4  C   UNL     1       4.095   5.878  18.554  0.00  0.00    +0.000 A 
ATOM      5  C   UNL     1       3.853   4.891  19.455  0.00  0.00    +0.000 A 
ATOM      6  N   UNL     1       4.766   3.878  19.360  0.00  0.00    +0.000 NA
ATOM      7  C   UNL     1       5.575   4.253  18.381  0.00  0.00    +0.000 A 
ATOM      8  N   UNL     1       5.206   5.473  17.885  0.00  0.00    +0.000 N 
ATOM      9  N   UNL     1       2.805   4.963  20.351  0.00  0.00    +0.000 N 
ATOM     10  C   UNL     1       1.915   6.033  20.246  0.00  0.00    +0.000 A 
ATOM     11  O   UNL     1       0.855   6.065  20.873  0.00  0.00    +0.000 OA
ENDROOT
BRANCH   8  12
ATOM     12  S   UNL     1       5.976   6.285  16.613  0.00  0.00    +0.000 S 
ATOM     13  O   UNL     1       4.940   6.364  15.594  0.00  0.00    +0.000 OA
ATOM     14  O   UNL     1       6.494   7.482  17.243  0.00  0.00    +0.000 OA
BRANCH  12  15
ATOM     15  C   UNL     1       7.304   5.246  16.002  0.00  0.00    +0.000 C 
BRANCH  15  16
ATOM     16  C   UNL     1       7.036   4.809  14.579  0.00  0.00    +0.000 A 
ATOM     17  C   UNL     1       7.763   5.330  13.497  0.00  0.00    +0.000 A 
ATOM     18  C   UNL     1       7.534   4.867  12.194  0.00  0.00    +0.000 A 
ATOM     19  C   UNL     1       6.576   3.883  11.962  0.00  0.00    +0.000 A 
ATOM     20  C   UNL     1       5.844   3.363  13.025  0.00  0.00    +0.000 A 
ATOM     21  C   UNL     1       6.075   3.822  14.324  0.00  0.00    +0.000 A 
ENDBRANCH  15  16
ENDBRANCH  12  15
ENDBRANCH   8  12
BRANCH   1  22
ATOM     22  C   UNL     1       1.560   8.355  19.550  0.00  0.00    +0.000 C 
BRANCH  22  23
ATOM     23  C   UNL     1       1.509   8.825  21.011  0.00  0.00    +0.000 C 
BRANCH  23  25
ATOM     24  C   UNL     1      -0.016   9.478  22.894  0.00  0.00    +0.000 C 
ATOM     25  C   UNL     1       0.157   9.437  21.385  0.00  0.00    +0.000 C 
ENDBRANCH  23  25
ENDBRANCH  22  23
ENDBRANCH   1  22
BRANCH   9  26
ATOM     26  C   UNL     1       2.558   3.917  21.343  0.00  0.00    +0.000 C 
BRANCH  26  27
ATOM     27  C   UNL     1       1.406   2.964  21.002  0.00  0.00    +0.000 C 
BRANCH  27  28
ATOM     28  C   UNL     1       1.611   2.070  19.778  0.00  0.00    +0.000 C 
ATOM     29  C   UNL     1       0.869   2.676  18.589  0.00  0.00    +0.000 C 
ENDBRANCH  27  28
ENDBRANCH  26  27
ENDBRANCH   9  26
TORSDOF 9
ENDMDL
MODEL 3
REMARK VINA RESULT:      -7.1      3.043      8.067
REMARK  Name = 
REMARK  11 active torsions:
REMARK  status: ('A' for Active; 'I' for Inactive)
REMARK    1  A    between atoms: C_1  and  C_2
REMARK    2  A    between atoms: C_2  and  C_3
REMARK    3  A    between atoms: C_3  and  C_4
REMARK    4  A    between atoms: C_4  and  N_5
REMARK    5  A    between atoms: N_12  and  S_13
REMARK    6  A    between atoms: S_13  and  C_16
REMARK    7  A    between atoms: C_16  and  C_17
REMARK    8  A    between atoms: N_23  and  C_24
REMARK    9  A    between atoms: C_24  and  C_25
REMARK   10  A    between atoms: C_25  and  C_26
REMARK   11  A    between atoms: C_26  and  C_27
REMARK                            x       y       z     vdW  Elec       q    Type
REMARK                         _______ _______ _______ _____ _____    ______ ____
ROOT
ATOM      1  N   UNL     1       2.572   5.840  19.871  0.00  0.00    +0.000 N 
ATOM      2  C   UNL     1       1.810   6.973  20.141  0.00  0.00    +0.000 A 
ATOM      3  O   UNL     1       1.104   7.095  21.128  0.00  0.00    +0.000 OA
ATOM      4  C   UNL     1       1.997   8.000  19.184  0.00  0.00    +0.000 A 
ATOM      5  C   UNL     1       2.821   7.878  18.111  0.00  0.00    +0.000 A 
ATOM      6  N   UNL     1       2.856   9.021  17.362  0.00  0.00    +0.000 NA
ATOM      7  C   UNL     1       2.036   9.851  17.988  0.00  0.00    +0.000 A 
ATOM      8  N   UNL     1       1.514   9.268  19.108  0.00  0.00    +0.000 N 
ATOM      9  N   UNL     1       3.531   6.719  17.866  0.00  0.00    +0.000 N 
ATOM     10  C   UNL     1       3.304   5.615  18.688  0.00  0.00    +0.000 A 
ATOM     11  O   UNL     1       3.746   4.497  18.418  0.00  0.00    +0.000 OA
ENDROOT
BRANCH   8  12
ATOM     12  S   UNL     1       0.408   9.995  20.165  0.00  0.00    +0.000 S 
ATOM     13  O   UNL     1      -0.758   9.128  20.076  0.00  0.00    +0.000 OA
ATOM     14  O   UNL     1       1.153  10.116  21.401  0.00  0.00    +0.000 OA
BRANCH  12  15
ATOM     15  C   UNL     1      -0.025  11.606  19.508  0.00  0.00    +0.000 C 
BRANCH  15  16
ATOM     16  C   UNL     1      -1.415  11.591  18.912  0.00  0.00    +0.000 A 
ATOM     17  C   UNL     1      -1.678  11.002  17.666  0.00  0.00    +0.000 A 
ATOM     18  C   UNL     1      -2.984  10.951  17.161  0.00  0.00    +0.000 A 
ATOM     19  C   UNL     1      -4.037  11.491  17.896  0.00  0.00    +0.000 A 
ATOM     20  C   UNL     1      -3.789  12.085  19.130  0.00  0.00    +0.000 A 
ATOM     21  C   UNL     1      -2.488  12.132  19.635  0.00  0.00    +0.000 A 
ENDBRANCH  15  16
ENDBRANCH  12  15
ENDBRANCH   8  12
BRANCH   1  22
ATOM     22  C   UNL     1       2.613   4.797  20.892  0.00  0.00    +0.000 C 
BRANCH  22  23
ATOM     23  C   UNL     1       1.347   3.929  20.868  0.00  0.00    +0.000 C 
BRANCH  23  25
ATOM     24  C   UNL     1       0.907   2.463  18.879  0.00  0.00    +0.000 C 
ATOM     25  C   UNL     1       1.587   2.556  20.235  0.00  0.00    +0.000 C 
ENDBRANCH  23  25
ENDBRANCH  22  23
ENDBRANCH   1  22
BRANCH   9  26
ATOM     26  C   UNL     1       4.443   6.594  16.728  0.00  0.00    +0.000 C 
BRANCH  26  27
ATOM     27  C   UNL     1       5.894   6.997  17.019  0.00  0.00    +0.000 C 
BRANCH  27  28
ATOM     28  C   UNL     1       6.884   5.849  17.222  0.00  0.00    +0.000 C 
ATOM     29  C   UNL     1       7.578   6.022  18.571  0.00  0.00    +0.000 C 
ENDBRANCH  27  28
ENDBRANCH  26  27
ENDBRANCH   9  26
TORSDOF 9
ENDMDL
MODEL 4
REMARK VINA RESULT:      -7.0      2.614      7.292
REMARK  Name = 
REMARK  11 active torsions:
REMARK  status: ('A' for Active; 'I' for Inactive)
REMARK    1  A    between atoms: C_1  and  C_2
REMARK    2  A    between atoms: C_2  and  C_3
REMARK    3  A    between atoms: C_3  and  C_4
REMARK    4  A    between atoms: C_4  and  N_5
REMARK    5  A    between atoms: N_12  and  S_13
REMARK    6  A    between atoms: S_13  and  C_16
REMARK    7  A    between atoms: C_16  and  C_17
REMARK    8  A    between atoms: N_23  and  C_24
REMARK    9  A    between atoms: C_24  and  C_25
REMARK   10  A    between atoms: C_25  and  C_26
REMARK   11  A    between atoms: C_26  and  C_27
REMARK                            x       y       z     vdW  Elec       q    Type
REMARK                         _______ _______ _______ _____ _____    ______ ____
ROOT
ATOM      1  N   UNL     1       5.424   4.592  15.715  0.00  0.00    +0.000 N 
ATOM      2  C   UNL     1       4.423   4.007  16.485  0.00  0.00    +0.000 A 
ATOM      3  O   UNL     1       3.413   3.510  16.017  0.00  0.00    +0.000 OA
ATOM      4  C   UNL     1       4.736   3.983  17.865  0.00  0.00    +0.000 A 
ATOM      5  C   UNL     1       5.885   4.496  18.378  0.00  0.00    +0.000 A 
ATOM      6  N   UNL     1       5.966   4.314  19.730  0.00  0.00    +0.000 NA
ATOM      7  C   UNL     1       4.845   3.685  20.047  0.00  0.00    +0.000 A 
ATOM      8  N   UNL     1       4.086   3.452  18.934  0.00  0.00    +0.000 N 
ATOM      9  N   UNL     1       6.835   5.099  17.577  0.00  0.00    +0.000 N 
ATOM     10  C   UNL     1       6.545   5.278  16.224  0.00  0.00    +0.000 A 
ATOM     11  O   UNL     1       7.248   5.977  15.492  0.00  0.00    +0.000 OA
ENDROOT
BRANCH   8  12
ATOM     12  S   UNL     1       2.573   2.692  18.923  0.00  0.00    +0.000 S 
ATOM     13  O   UNL     1       2.721   1.670  17.897  0.00  0.00    +0.000 OA
ATOM     14  O   UNL     1       2.369   2.330  20.311  0.00  0.00    +0.000 OA
BRANCH  12  15
ATOM     15  C   UNL     1       1.347   3.881  18.376  0.00  0.00    +0.000 C 
BRANCH  15  16
ATOM     16  C   UNL     1       1.634   5.253  18.943  0.00  0.00    +0.000 A 
ATOM     17  C   UNL     1       2.092   6.305  18.135  0.00  0.00    +0.000 A 
ATOM     18  C   UNL     1       2.297   7.582  18.674  0.00  0.00    +0.000 A 
ATOM     19  C   UNL     1       2.049   7.817  20.024  0.00  0.00    +0.000 A 
ATOM     20  C   UNL     1       1.602   6.781  20.838  0.00  0.00    +0.000 A 
ATOM     21  C   UNL     1       1.394   5.509  20.300  0.00  0.00    +0.000 A 
ENDBRANCH  15  16
ENDBRANCH  12  15
ENDBRANCH   8  12
BRANCH   1  22
ATOM     22  C   UNL     1       5.303   4.494  14.263  0.00  0.00    +0.000 C 
BRANCH  22  23
ATOM     23  C   UNL     1       6.235   3.417  13.689  0.00  0.00    +0.000 C 
BRANCH  23  25
ATOM     24  C   UNL     1       5.659   2.199  11.572  0.00  0.00    +0.000 C 
ATOM     25  C   UNL     1       6.297   3.447  12.160  0.00  0.00    +0.000 C 
ENDBRANCH  23  25
ENDBRANCH  22  23
ENDBRANCH   1  22
BRANCH   9  26
ATOM     26  C   UNL     1       8.088   5.625  18.120  0.00  0.00    +0.000 C 
BRANCH  26  27
ATOM     27  C   UNL     1       7.989   7.031  18.724  0.00  0.00    +0.000 C 
BRANCH  27  28
ATOM     28  C   UNL     1       7.843   8.183  17.729  0.00  0.00    +0.000 C 
ATOM     29  C   UNL     1       8.550   9.416  18.287  0.00  0.00    +0.000 C 
ENDBRANCH  27  28
ENDBRANCH  26  27
ENDBRANCH   9  26
TORSDOF 9
ENDMDL
MODEL 5
REMARK VINA RESULT:      -7.0      0.950      1.375
REMARK  Name = 
REMARK  11 active torsions:
REMARK  status: ('A' for Active; 'I' for Inactive)
REMARK    1  A    between atoms: C_1  and  C_2
REMARK    2  A    between atoms: C_2  and  C_3
REMARK    3  A    between atoms: C_3  and  C_4
REMARK    4  A    between atoms: C_4  and  N_5
REMARK    5  A    between atoms: N_12  and  S_13
REMARK    6  A    between atoms: S_13  and  C_16
REMARK    7  A    between atoms: C_16  and  C_17
REMARK    8  A    between atoms: N_23  and  C_24
REMARK    9  A    between atoms: C_24  and  C_25
REMARK   10  A    between atoms: C_25  and  C_26
REMARK   11  A    between atoms: C_26  and  C_27
REMARK                            x       y       z     vdW  Elec       q    Type
REMARK                         _______ _______ _______ _____ _____    ______ ____
ROOT
ATOM      1  N   UNL     1       2.767   7.069  19.117  0.00  0.00    +0.000 N 
ATOM      2  C   UNL     1       3.840   6.768  18.283  0.00  0.00    +0.000 A 
ATOM      3  O   UNL     1       4.270   7.528  17.432  0.00  0.00    +0.000 OA
ATOM      4  C   UNL     1       4.428   5.514  18.578  0.00  0.00    +0.000 A 
ATOM      5  C   UNL     1       3.975   4.691  19.559  0.00  0.00    +0.000 A 
ATOM      6  N   UNL     1       4.736   3.560  19.667  0.00  0.00    +0.000 NA
ATOM      7  C   UNL     1       5.664   3.695  18.733  0.00  0.00    +0.000 A 
ATOM      8  N   UNL     1       5.516   4.880  18.067  0.00  0.00    +0.000 N 
ATOM      9  N   UNL     1       2.884   5.017  20.338  0.00  0.00    +0.000 N 
ATOM     10  C   UNL     1       2.169   6.175  20.028  0.00  0.00    +0.000 A 
ATOM     11  O   UNL     1       1.080   6.429  20.545  0.00  0.00    +0.000 OA
ENDROOT
BRANCH   8  12
ATOM     12  S   UNL     1       6.491   5.413  16.788  0.00  0.00    +0.000 S 
ATOM     13  O   UNL     1       6.959   6.713  17.246  0.00  0.00    +0.000 OA
ATOM     14  O   UNL     1       7.416   4.316  16.592  0.00  0.00    +0.000 OA
BRANCH  12  15
ATOM     15  C   UNL     1       5.452   5.653  15.347  0.00  0.00    +0.000 C 
BRANCH  15  16
ATOM     16  C   UNL     1       6.012   4.919  14.149  0.00  0.00    +0.000 A 
ATOM     17  C   UNL     1       5.335   3.839  13.561  0.00  0.00    +0.000 A 
ATOM     18  C   UNL     1       5.848   3.213  12.417  0.00  0.00    +0.000 A 
ATOM     19  C   UNL     1       7.041   3.658  11.854  0.00  0.00    +0.000 A 
ATOM     20  C   UNL     1       7.726   4.723  12.431  0.00  0.00    +0.000 A 
ATOM     21  C   UNL     1       7.213   5.350  13.569  0.00  0.00    +0.000 A 
ENDBRANCH  15  16
ENDBRANCH  12  15
ENDBRANCH   8  12
BRANCH   1  22
ATOM     22  C   UNL     1       2.211   8.416  19.040  0.00  0.00    +0.000 C 
BRANCH  22  23
ATOM     23  C   UNL     1       1.323   8.593  17.799  0.00  0.00    +0.000 C 
BRANCH  23  25
ATOM     24  C   UNL     1       0.060  10.019  19.433  0.00  0.00    +0.000 C 
ATOM     25  C   UNL     1       0.300   9.720  17.963  0.00  0.00    +0.000 C 
ENDBRANCH  23  25
ENDBRANCH  22  23
ENDBRANCH   1  22
BRANCH   9  26
ATOM     26  C   UNL     1       2.411   4.148  21.417  0.00  0.00    +0.000 C 
BRANCH  26  27
ATOM     27  C   UNL     1       1.758   2.841  20.952  0.00  0.00    +0.000 C 
BRANCH  27  28
ATOM     28  C   UNL     1       0.693   2.971  19.861  0.00  0.00    +0.000 C 
ATOM     29  C   UNL     1       1.218   2.337  18.575  0.00  0.00    +0.000 C 
ENDBRANCH  27  28
ENDBRANCH  26  27
ENDBRANCH   9  26
TORSDOF 9
ENDMDL
MODEL 6
REMARK VINA RESULT:      -6.9      1.584      4.231
REMARK  Name = 
REMARK  11 active torsions:
REMARK  status: ('A' for Active; 'I' for Inactive)
REMARK    1  A    between atoms: C_1  and  C_2
REMARK    2  A    between atoms: C_2  and  C_3
REMARK    3  A    between atoms: C_3  and  C_4
REMARK    4  A    between atoms: C_4  and  N_5
REMARK    5  A    between atoms: N_12  and  S_13
REMARK    6  A    between atoms: S_13  and  C_16
REMARK    7  A    between atoms: C_16  and  C_17
REMARK    8  A    between atoms: N_23  and  C_24
REMARK    9  A    between atoms: C_24  and  C_25
REMARK   10  A    between atoms: C_25  and  C_26
REMARK   11  A    between atoms: C_26  and  C_27
REMARK                            x       y       z     vdW  Elec       q    Type
REMARK                         _______ _______ _______ _____ _____    ______ ____
ROOT
ATOM      1  N   UNL     1       2.732   5.877  19.904  0.00  0.00    +0.000 N 
ATOM      2  C   UNL     1       3.751   5.295  19.156  0.00  0.00    +0.000 A 
ATOM      3  O   UNL     1       4.212   4.190  19.385  0.00  0.00    +0.000 OA
ATOM      4  C   UNL     1       4.145   6.093  18.055  0.00  0.00    +0.000 A 
ATOM      5  C   UNL     1       3.596   7.303  17.776  0.00  0.00    +0.000 A 
ATOM      6  N   UNL     1       4.122   7.853  16.640  0.00  0.00    +0.000 NA
ATOM      7  C   UNL     1       5.010   6.964  16.224  0.00  0.00    +0.000 A 
ATOM      8  N   UNL     1       5.034   5.876  17.050  0.00  0.00    +0.000 N 
ATOM      9  N   UNL     1       2.610   7.856  18.569  0.00  0.00    +0.000 N 
ATOM     10  C   UNL     1       2.256   7.194  19.745  0.00  0.00    +0.000 A 
ATOM     11  O   UNL     1       1.534   7.716  20.597  0.00  0.00    +0.000 OA
ENDROOT
BRANCH   8  12
ATOM     12  S   UNL     1       6.051   4.533  16.870  0.00  0.00    +0.000 S 
ATOM     13  O   UNL     1       6.774   4.491  18.132  0.00  0.00    +0.000 OA
ATOM     14  O   UNL     1       5.140   3.470  16.498  0.00  0.00    +0.000 OA
BRANCH  12  15
ATOM     15  C   UNL     1       7.217   4.880  15.552  0.00  0.00    +0.000 C 
BRANCH  15  16
ATOM     16  C   UNL     1       6.679   4.413  14.218  0.00  0.00    +0.000 A 
ATOM     17  C   UNL     1       7.496   4.335  13.079  0.00  0.00    +0.000 A 
ATOM     18  C   UNL     1       6.987   3.846  11.869  0.00  0.00    +0.000 A 
ATOM     19  C   UNL     1       5.660   3.434  11.785  0.00  0.00    +0.000 A 
ATOM     20  C   UNL     1       4.837   3.513  12.905  0.00  0.00    +0.000 A 
ATOM     21  C   UNL     1       5.345   3.996  14.113  0.00  0.00    +0.000 A 
ENDBRANCH  15  16
ENDBRANCH  12  15
ENDBRANCH   8  12
BRANCH   1  22
ATOM     22  C   UNL     1       2.107   5.061  20.942  0.00  0.00    +0.000 C 
BRANCH  22  23
ATOM     23  C   UNL     1       1.007   4.158  20.367  0.00  0.00    +0.000 C 
BRANCH  23  25
ATOM     24  C   UNL     1       2.351   2.498  21.684  0.00  0.00    +0.000 C 
ATOM     25  C   UNL     1       1.045   2.742  20.947  0.00  0.00    +0.000 C 
ENDBRANCH  23  25
ENDBRANCH  22  23
ENDBRANCH   1  22
BRANCH   9  26
ATOM     26  C   UNL     1       1.993   9.146  18.256  0.00  0.00    +0.000 C 
BRANCH  26  27
ATOM     27  C   UNL     1       0.555   9.060  17.729  0.00  0.00    +0.000 C 
BRANCH  27  28
ATOM     28  C   UNL     1      -0.406  10.147  18.216  0.00  0.00    +0.000 C 
ATOM     29  C   UNL     1      -1.682  10.094  17.378  0.00  0.00    +0.000 C 
ENDBRANCH  27  28
ENDBRANCH  26  27
ENDBRANCH   9  26
TORSDOF 9
ENDMDL
MODEL 7
REMARK VINA RESULT:      -6.9      1.587      4.222
REMARK  Name = 
REMARK  11 active torsions:
REMARK  status: ('A' for Active; 'I' for Inactive)
REMARK    1  A    between atoms: C_1  and  C_2
REMARK    2  A    between atoms: C_2  and  C_3
REMARK    3  A    between atoms: C_3  and  C_4
REMARK    4  A    between atoms: C_4  and  N_5
REMARK    5  A    between atoms: N_12  and  S_13
REMARK    6  A    between atoms: S_13  and  C_16
REMARK    7  A    between atoms: C_16  and  C_17
REMARK    8  A    between atoms: N_23  and  C_24
REMARK    9  A    between atoms: C_24  and  C_25
REMARK   10  A    between atoms: C_25  and  C_26
REMARK   11  A    between atoms: C_26  and  C_27
REMARK                            x       y       z     vdW  Elec       q    Type
REMARK                         _______ _______ _______ _____ _____    ______ ____
ROOT
ATOM      1  N   UNL     1       3.607   4.069  19.826  0.00  0.00    +0.000 N 
ATOM      2  C   UNL     1       4.311   4.564  18.731  0.00  0.00    +0.000 A 
ATOM      3  O   UNL     1       5.169   3.933  18.137  0.00  0.00    +0.000 OA
ATOM      4  C   UNL     1       3.873   5.850  18.335  0.00  0.00    +0.000 A 
ATOM      5  C   UNL     1       2.884   6.530  18.971  0.00  0.00    +0.000 A 
ATOM      6  N   UNL     1       2.622   7.730  18.372  0.00  0.00    +0.000 NA
ATOM      7  C   UNL     1       3.471   7.785  17.358  0.00  0.00    +0.000 A 
ATOM      8  N   UNL     1       4.230   6.650  17.296  0.00  0.00    +0.000 N 
ATOM      9  N   UNL     1       2.237   6.012  20.076  0.00  0.00    +0.000 N 
ATOM     10  C   UNL     1       2.697   4.806  20.608  0.00  0.00    +0.000 A 
ATOM     11  O   UNL     1       2.306   4.382  21.697  0.00  0.00    +0.000 OA
ENDROOT
BRANCH   8  12
ATOM     12  S   UNL     1       5.444   6.345  16.155  0.00  0.00    +0.000 S 
ATOM     13  O   UNL     1       5.045   7.163  15.018  0.00  0.00    +0.000 OA
ATOM     14  O   UNL     1       6.666   6.626  16.880  0.00  0.00    +0.000 OA
BRANCH  12  15
ATOM     15  C   UNL     1       5.353   4.619  15.679  0.00  0.00    +0.000 C 
BRANCH  15  16
ATOM     16  C   UNL     1       5.998   4.395  14.330  0.00  0.00    +0.000 A 
ATOM     17  C   UNL     1       5.401   3.584  13.352  0.00  0.00    +0.000 A 
ATOM     18  C   UNL     1       5.992   3.438  12.089  0.00  0.00    +0.000 A 
ATOM     19  C   UNL     1       7.182   4.098  11.795  0.00  0.00    +0.000 A 
ATOM     20  C   UNL     1       7.788   4.899  12.758  0.00  0.00    +0.000 A 
ATOM     21  C   UNL     1       7.197   5.048  14.015  0.00  0.00    +0.000 A 
ENDBRANCH  15  16
ENDBRANCH  12  15
ENDBRANCH   8  12
BRANCH   1  22
ATOM     22  C   UNL     1       3.833   2.675  20.198  0.00  0.00    +0.000 C 
BRANCH  22  23
ATOM     23  C   UNL     1       3.037   1.713  19.304  0.00  0.00    +0.000 C 
BRANCH  23  25
ATOM     24  C   UNL     1       0.772   2.500  18.563  0.00  0.00    +0.000 C 
ATOM     25  C   UNL     1       1.539   1.722  19.619  0.00  0.00    +0.000 C 
ENDBRANCH  23  25
ENDBRANCH  22  23
ENDBRANCH   1  22
BRANCH   9  26
ATOM     26  C   UNL     1       1.150   6.726  20.746  0.00  0.00    +0.000 C 
BRANCH  26  27
ATOM     27  C   UNL     1       1.538   8.089  21.330  0.00  0.00    +0.000 C 
BRANCH  27  28
ATOM     28  C   UNL     1       0.446   9.160  21.326  0.00  0.00    +0.000 C 
ATOM     29  C   UNL     1      -0.096   9.324  22.744  0.00  0.00    +0.000 C 
ENDBRANCH  27  28
ENDBRANCH  26  27
ENDBRANCH   9  26
TORSDOF 9
ENDMDL
MODEL 8
REMARK VINA RESULT:      -6.8      3.006      7.845
REMARK  Name = 
REMARK  11 active torsions:
REMARK  status: ('A' for Active; 'I' for Inactive)
REMARK    1  A    between atoms: C_1  and  C_2
REMARK    2  A    between atoms: C_2  and  C_3
REMARK    3  A    between atoms: C_3  and  C_4
REMARK    4  A    between atoms: C_4  and  N_5
REMARK    5  A    between atoms: N_12  and  S_13
REMARK    6  A    between atoms: S_13  and  C_16
REMARK    7  A    between atoms: C_16  and  C_17
REMARK    8  A    between atoms: N_23  and  C_24
REMARK    9  A    between atoms: C_24  and  C_25
REMARK   10  A    between atoms: C_25  and  C_26
REMARK   11  A    between atoms: C_26  and  C_27
REMARK                            x       y       z     vdW  Elec       q    Type
REMARK                         _______ _______ _______ _____ _____    ______ ____
ROOT
ATOM      1  N   UNL     1       2.741   5.615  19.783  0.00  0.00    +0.000 N 
ATOM      2  C   UNL     1       1.978   6.740  20.084  0.00  0.00    +0.000 A 
ATOM      3  O   UNL     1       1.300   6.848  21.091  0.00  0.00    +0.000 OA
ATOM      4  C   UNL     1       2.131   7.776  19.131  0.00  0.00    +0.000 A 
ATOM      5  C   UNL     1       2.925   7.669  18.034  0.00  0.00    +0.000 A 
ATOM      6  N   UNL     1       2.930   8.819  17.294  0.00  0.00    +0.000 NA
ATOM      7  C   UNL     1       2.121   9.637  17.949  0.00  0.00    +0.000 A 
ATOM      8  N   UNL     1       1.636   9.040  19.079  0.00  0.00    +0.000 N 
ATOM      9  N   UNL     1       3.637   6.519  17.759  0.00  0.00    +0.000 N 
ATOM     10  C   UNL     1       3.441   5.406  18.578  0.00  0.00    +0.000 A 
ATOM     11  O   UNL     1       3.884   4.294  18.286  0.00  0.00    +0.000 OA
ENDROOT
BRANCH   8  12
ATOM     12  S   UNL     1       0.554   9.750  20.173  0.00  0.00    +0.000 S 
ATOM     13  O   UNL     1      -0.540   8.792  20.228  0.00  0.00    +0.000 OA
ATOM     14  O   UNL     1       1.376  10.010  21.337  0.00  0.00    +0.000 OA
BRANCH  12  15
ATOM     15  C   UNL     1      -0.056  11.276  19.454  0.00  0.00    +0.000 C 
BRANCH  15  16
ATOM     16  C   UNL     1      -1.348  11.041  18.704  0.00  0.00    +0.000 A 
ATOM     17  C   UNL     1      -2.537  11.696  19.060  0.00  0.00    +0.000 A 
ATOM     18  C   UNL     1      -3.708  11.504  18.314  0.00  0.00    +0.000 A 
ATOM     19  C   UNL     1      -3.701  10.654  17.210  0.00  0.00    +0.000 A 
ATOM     20  C   UNL     1      -2.530   9.993  16.852  0.00  0.00    +0.000 A 
ATOM     21  C   UNL     1      -1.362  10.188  17.593  0.00  0.00    +0.000 A 
ENDBRANCH  15  16
ENDBRANCH  12  15
ENDBRANCH   8  12
BRANCH   1  22
ATOM     22  C   UNL     1       2.820   4.564  20.793  0.00  0.00    +0.000 C 
BRANCH  22  23
ATOM     23  C   UNL     1       1.452   3.911  21.039  0.00  0.00    +0.000 C 
BRANCH  23  25
ATOM     24  C   UNL     1       1.835   1.982  19.481  0.00  0.00    +0.000 C 
ATOM     25  C   UNL     1       0.931   3.157  19.814  0.00  0.00    +0.000 C 
ENDBRANCH  23  25
ENDBRANCH  22  23
ENDBRANCH   1  22
BRANCH   9  26
ATOM     26  C   UNL     1       4.518   6.410  16.595  0.00  0.00    +0.000 C 
BRANCH  26  27
ATOM     27  C   UNL     1       6.002   6.218  16.928  0.00  0.00    +0.000 C 
BRANCH  27  28
ATOM     28  C   UNL     1       6.759   7.470  17.376  0.00  0.00    +0.000 C 
ATOM     29  C   UNL     1       7.904   7.055  18.299  0.00  0.00    +0.000 C 
ENDBRANCH  27  28
ENDBRANCH  26  27
ENDBRANCH   9  26
TORSDOF 9
ENDMDL
MODEL 9
REMARK VINA RESULT:      -6.8      2.730      7.287
REMARK  Name = 
REMARK  11 active torsions:
REMARK  status: ('A' for Active; 'I' for Inactive)
REMARK    1  A    between atoms: C_1  and  C_2
REMARK    2  A    between atoms: C_2  and  C_3
REMARK    3  A    between atoms: C_3  and  C_4
REMARK    4  A    between atoms: C_4  and  N_5
REMARK    5  A    between atoms: N_12  and  S_13
REMARK    6  A    between atoms: S_13  and  C_16
REMARK    7  A    between atoms: C_16  and  C_17
REMARK    8  A    between atoms: N_23  and  C_24
REMARK    9  A    between atoms: C_24  and  C_25
REMARK   10  A    between atoms: C_25  and  C_26
REMARK   11  A    between atoms: C_26  and  C_27
REMARK                            x       y       z     vdW  Elec       q    Type
REMARK                         _______ _______ _______ _____ _____    ______ ____
ROOT
ATOM      1  N   UNL     1       5.365   4.709  15.736  0.00  0.00    +0.000 N 
ATOM      2  C   UNL     1       4.524   4.020  16.606  0.00  0.00    +0.000 A 
ATOM      3  O   UNL     1       3.601   3.313  16.238  0.00  0.00    +0.000 OA
ATOM      4  C   UNL     1       4.900   4.168  17.963  0.00  0.00    +0.000 A 
ATOM      5  C   UNL     1       5.958   4.918  18.366  0.00  0.00    +0.000 A 
ATOM      6  N   UNL     1       6.133   4.867  19.721  0.00  0.00    +0.000 NA
ATOM      7  C   UNL     1       5.162   4.076  20.150  0.00  0.00    +0.000 A 
ATOM      8  N   UNL     1       4.408   3.620  19.105  0.00  0.00    +0.000 N 
ATOM      9  N   UNL     1       6.743   5.612  17.468  0.00  0.00    +0.000 N 
ATOM     10  C   UNL     1       6.363   5.624  16.125  0.00  0.00    +0.000 A 
ATOM     11  O   UNL     1       6.893   6.373  15.303  0.00  0.00    +0.000 OA
ENDROOT
BRANCH   8  12
ATOM     12  S   UNL     1       3.060   2.603  19.242  0.00  0.00    +0.000 S 
ATOM     13  O   UNL     1       3.331   1.558  18.265  0.00  0.00    +0.000 OA
ATOM     14  O   UNL     1       3.007   2.303  20.658  0.00  0.00    +0.000 OA
BRANCH  12  15
ATOM     15  C   UNL     1       1.608   3.515  18.716  0.00  0.00    +0.000 C 
BRANCH  15  16
ATOM     16  C   UNL     1       1.717   4.973  19.103  0.00  0.00    +0.000 A 
ATOM     17  C   UNL     1       1.558   5.399  20.431  0.00  0.00    +0.000 A 
ATOM     18  C   UNL     1       1.720   6.749  20.772  0.00  0.00    +0.000 A 
ATOM     19  C   UNL     1       2.038   7.683  19.789  0.00  0.00    +0.000 A 
ATOM     20  C   UNL     1       2.191   7.276  18.468  0.00  0.00    +0.000 A 
ATOM     21  C   UNL     1       2.034   5.930  18.129  0.00  0.00    +0.000 A 
ENDBRANCH  15  16
ENDBRANCH  12  15
ENDBRANCH   8  12
BRANCH   1  22
ATOM     22  C   UNL     1       5.197   4.469  14.306  0.00  0.00    +0.000 C 
BRANCH  22  23
ATOM     23  C   UNL     1       6.334   3.607  13.738  0.00  0.00    +0.000 C 
BRANCH  23  25
ATOM     24  C   UNL     1       4.733   3.318  11.827  0.00  0.00    +0.000 C 
ATOM     25  C   UNL     1       6.197   3.369  12.233  0.00  0.00    +0.000 C 
ENDBRANCH  23  25
ENDBRANCH  22  23
ENDBRANCH   1  22
BRANCH   9  26
ATOM     26  C   UNL     1       7.903   6.397  17.894  0.00  0.00    +0.000 C 
BRANCH  26  27
ATOM     27  C   UNL     1       7.746   7.914  17.741  0.00  0.00    +0.000 C 
BRANCH  27  28
ATOM     28  C   UNL     1       8.652   8.778  18.620  0.00  0.00    +0.000 C 
ATOM     29  C   UNL     1       8.606  10.219  18.118  0.00  0.00    +0.000 C 
ENDBRANCH  27  28
ENDBRANCH  26  27
ENDBRANCH   9  26
TORSDOF 9
ENDMDL
