MODEL 1
REMARK VINA RESULT:      -7.3      0.000      0.000
REMARK  Name = 
REMARK  13 active torsions:
REMARK  status: ('A' for Active; 'I' for Inactive)
REMARK    1  A    between atoms: C_1  and  C_2
REMARK    2  A    between atoms: C_2  and  C_3
REMARK    3  A    between atoms: C_3  and  C_4
REMARK    4  A    between atoms: C_3  and  C_6
REMARK    5  A    between atoms: C_3  and  C_18
REMARK    6  A    between atoms: C_4  and  C_5
REMARK    7  A    between atoms: C_9  and  O_10
REMARK    8  A    between atoms: O_10  and  C_11
REMARK    9  A    between atoms: N_13  and  C_14
REMARK   10  A    between atoms: N_13  and  C_15
REMARK   11  A    between atoms: C_21  and  N_22
REMARK   12  A    between atoms: N_22  and  C_23
REMARK   13  A    between atoms: C_24  and  C_25
REMARK                            x       y       z     vdW  Elec       q    Type
REMARK                         _______ _______ _______ _____ _____    ______ ____
ROOT
ATOM      1  C   UNL     1       0.719  10.870  19.448  0.00  0.00    +0.000 C 
ENDROOT
BRANCH   1   2
ATOM      2  C   UNL     1      -0.734  10.911  18.854  0.00  0.00    +0.000 A 
ATOM      3  C   UNL     1      -1.209   9.938  17.946  0.00  0.00    +0.000 A 
ATOM      4  C   UNL     1      -2.529   9.944  17.477  0.00  0.00    +0.000 A 
ATOM      5  C   UNL     1      -3.410  10.931  17.902  0.00  0.00    +0.000 A 
ATOM      6  C   UNL     1      -2.967  11.927  18.763  0.00  0.00    +0.000 A 
ATOM      7  C   UNL     1      -1.657  11.893  19.261  0.00  0.00    +0.000 A 
BRANCH   5   8
ATOM      8  O   UNL     1      -4.720  10.874  17.380  0.00  0.00    +0.000 OA
BRANCH   8   9
ATOM      9  C   UNL     1      -5.839  11.015  18.210  0.00  0.00    +0.000 C 
ATOM     10  O   UNL     1      -6.201  10.174  19.027  0.00  0.00    +0.000 OA
ATOM     11  N   UNL     1      -6.516  12.211  18.016  0.00  0.00    +0.000 N 
ATOM     12  C   UNL     1      -6.177  13.183  16.993  0.00  0.00    +0.000 C 
ATOM     13  C   UNL     1      -7.699  12.486  18.812  0.00  0.00    +0.000 C 
ENDBRANCH   8   9
ENDBRANCH   5   8
ENDBRANCH   1   2
BRANCH   1  14
ATOM     14  C   UNL     1       1.320   9.453  19.161  0.00  0.00    +0.000 A 
ATOM     15  C   UNL     1       1.856   9.083  17.925  0.00  0.00    +0.000 A 
ATOM     16  C   UNL     1       2.444   7.818  17.716  0.00  0.00    +0.000 A 
ATOM     17  C   UNL     1       2.535   6.848  18.721  0.00  0.00    +0.000 A 
ATOM     18  C   UNL     1       1.956   7.216  19.945  0.00  0.00    +0.000 A 
ATOM     19  C   UNL     1       1.369   8.481  20.160  0.00  0.00    +0.000 A 
BRANCH  17  20
ATOM     20  N   UNL     1       3.193   5.563  18.518  0.00  0.00    +0.000 N 
ATOM     21  C   UNL     1       4.575   5.390  18.965  0.00  0.00    +0.000 C 
ATOM     22  C   UNL     1       2.568   4.475  17.866  0.00  0.00    +0.000 C 
ATOM     23  C   UNL     1       3.386   3.210  17.671  0.00  0.00    +0.000 C 
ATOM     24  O   UNL     1       1.406   4.440  17.458  0.00  0.00    +0.000 OA
ENDBRANCH  17  20
ENDBRANCH   1  14
BRANCH   1  26
ATOM     25  C   UNL     1       1.879  13.241  19.557  0.00  0.00    +0.000 C 
ATOM     26  C   UNL     1       1.620  11.964  18.760  0.00  0.00    +0.000 C 
ENDBRANCH   1  26
BRANCH   1  27
ATOM     27  C   UNL     1       0.700  11.156  21.002  0.00  0.00    +0.000 C 
ATOM     28  C   UNL     1      -0.400  10.488  21.820  0.00  0.00    +0.000 C 
ENDBRANCH   1  27
TORSDOF 7
ENDMDL
MODEL 2
REMARK VINA RESULT:      -7.3      0.652      1.633
REMARK  Name = 
REMARK  13 active torsions:
REMARK  status: ('A' for Active; 'I' for Inactive)
REMARK    1  A    between atoms: C_1  and  C_2
REMARK    2  A    between atoms: C_2  and  C_3
REMARK    3  A    between atoms: C_3  and  C_4
REMARK    4  A    between atoms: C_3  and  C_6
REMARK    5  A    between atoms: C_3  and  C_18
REMARK    6  A    between atoms: C_4  and  C_5
REMARK    7  A    between atoms: C_9  and  O_10
REMARK    8  A    between atoms: O_10  and  C_11
REMARK    9  A    between atoms: N_13  and  C_14
REMARK   10  A    between atoms: N_13  and  C_15
REMARK   11  A    between atoms: C_21  and  N_22
REMARK   12  A    between atoms: N_22  and  C_23
REMARK   13  A    between atoms: C_24  and  C_25
REMARK                            x       y       z     vdW  Elec       q    Type
REMARK                         _______ _______ _______ _____ _____    ______ ____
ROOT
ATOM      1  C   UNL     1       0.567  11.040  19.453  0.00  0.00    +0.000 C 
ENDROOT
BRANCH   1   2
ATOM      2  C   UNL     1      -0.888  10.908  18.877  0.00  0.00    +0.000 A 
ATOM      3  C   UNL     1      -1.933  11.784  19.248  0.00  0.00    +0.000 A 
ATOM      4  C   UNL     1      -3.208  11.702  18.675  0.00  0.00    +0.000 A 
ATOM      5  C   UNL     1      -3.474  10.734  17.715  0.00  0.00    +0.000 A 
ATOM      6  C   UNL     1      -2.483   9.829  17.354  0.00  0.00    +0.000 A 
ATOM      7  C   UNL     1      -1.197   9.941  17.901  0.00  0.00    +0.000 A 
BRANCH   5   8
ATOM      8  O   UNL     1      -4.784  10.710  17.190  0.00  0.00    +0.000 OA
BRANCH   8   9
ATOM      9  C   UNL     1      -5.670  11.773  17.403  0.00  0.00    +0.000 C 
ATOM     10  O   UNL     1      -5.601  12.854  16.827  0.00  0.00    +0.000 OA
ATOM     11  N   UNL     1      -6.648  11.489  18.348  0.00  0.00    +0.000 N 
ATOM     12  C   UNL     1      -6.702  10.262  19.121  0.00  0.00    +0.000 C 
ATOM     13  C   UNL     1      -7.632  12.508  18.668  0.00  0.00    +0.000 C 
ENDBRANCH   8   9
ENDBRANCH   5   8
ENDBRANCH   1   2
BRANCH   1  14
ATOM     14  C   UNL     1       1.291   9.665  19.265  0.00  0.00    +0.000 A 
ATOM     15  C   UNL     1       1.325   8.674  20.250  0.00  0.00    +0.000 A 
ATOM     16  C   UNL     1       1.935   7.423  20.028  0.00  0.00    +0.000 A 
ATOM     17  C   UNL     1       2.546   7.081  18.816  0.00  0.00    +0.000 A 
ATOM     18  C   UNL     1       2.543   8.099  17.850  0.00  0.00    +0.000 A 
ATOM     19  C   UNL     1       1.931   9.352  18.066  0.00  0.00    +0.000 A 
BRANCH  17  20
ATOM     20  N   UNL     1       3.127   5.766  18.570  0.00  0.00    +0.000 N 
ATOM     21  C   UNL     1       4.509   5.510  18.973  0.00  0.00    +0.000 C 
ATOM     22  C   UNL     1       2.425   4.728  17.916  0.00  0.00    +0.000 C 
ATOM     23  C   UNL     1       3.166   3.424  17.674  0.00  0.00    +0.000 C 
ATOM     24  O   UNL     1       1.252   4.764  17.542  0.00  0.00    +0.000 OA
ENDBRANCH  17  20
ENDBRANCH   1  14
BRANCH   1  26
ATOM     25  C   UNL     1       1.424  13.536  19.326  0.00  0.00    +0.000 C 
ATOM     26  C   UNL     1       1.362  12.156  18.675  0.00  0.00    +0.000 C 
ENDBRANCH   1  26
BRANCH   1  27
ATOM     27  C   UNL     1       0.531  11.438  20.982  0.00  0.00    +0.000 C 
ATOM     28  C   UNL     1      -0.491  10.729  21.865  0.00  0.00    +0.000 C 
ENDBRANCH   1  27
TORSDOF 7
ENDMDL
MODEL 3
REMARK VINA RESULT:      -7.2      3.457      9.760
REMARK  Name = 
REMARK  13 active torsions:
REMARK  status: ('A' for Active; 'I' for Inactive)
REMARK    1  A    between atoms: C_1  and  C_2
REMARK    2  A    between atoms: C_2  and  C_3
REMARK    3  A    between atoms: C_3  and  C_4
REMARK    4  A    between atoms: C_3  and  C_6
REMARK    5  A    between atoms: C_3  and  C_18
REMARK    6  A    between atoms: C_4  and  C_5
REMARK    7  A    between atoms: C_9  and  O_10
REMARK    8  A    between atoms: O_10  and  C_11
REMARK    9  A    between atoms: N_13  and  C_14
REMARK   10  A    between atoms: N_13  and  C_15
REMARK   11  A    between atoms: C_21  and  N_22
REMARK   12  A    between atoms: N_22  and  C_23
REMARK   13  A    between atoms: C_24  and  C_25
REMARK                            x       y       z     vdW  Elec       q    Type
REMARK                         _______ _______ _______ _____ _____    ______ ____
ROOT
ATOM      1  C   UNL     1       2.397   4.754  19.665  0.00  0.00    +0.000 C 
ENDROOT
BRANCH   1   2
ATOM      2  C   UNL     1       3.513   4.535  18.582  0.00  0.00    +0.000 A 
ATOM      3  C   UNL     1       4.890   4.523  18.905  0.00  0.00    +0.000 A 
ATOM      4  C   UNL     1       5.873   4.256  17.944  0.00  0.00    +0.000 A 
ATOM      5  C   UNL     1       5.506   3.999  16.630  0.00  0.00    +0.000 A 
ATOM      6  C   UNL     1       4.165   4.043  16.267  0.00  0.00    +0.000 A 
ATOM      7  C   UNL     1       3.182   4.270  17.240  0.00  0.00    +0.000 A 
BRANCH   5   8
ATOM      8  O   UNL     1       6.555   3.747  15.720  0.00  0.00    +0.000 OA
BRANCH   8   9
ATOM      9  C   UNL     1       7.142   4.784  14.984  0.00  0.00    +0.000 C 
ATOM     10  O   UNL     1       7.687   5.762  15.486  0.00  0.00    +0.000 OA
ATOM     11  N   UNL     1       7.043   4.605  13.611  0.00  0.00    +0.000 N 
ATOM     12  C   UNL     1       6.320   3.514  12.982  0.00  0.00    +0.000 C 
ATOM     13  C   UNL     1       7.609   5.609  12.728  0.00  0.00    +0.000 C 
ENDBRANCH   8   9
ENDBRANCH   5   8
ENDBRANCH   1   2
BRANCH   1  14
ATOM     14  C   UNL     1       2.030   6.275  19.683  0.00  0.00    +0.000 A 
ATOM     15  C   UNL     1       2.270   7.136  18.608  0.00  0.00    +0.000 A 
ATOM     16  C   UNL     1       1.875   8.488  18.633  0.00  0.00    +0.000 A 
ATOM     17  C   UNL     1       1.218   9.067  19.725  0.00  0.00    +0.000 A 
ATOM     18  C   UNL     1       1.020   8.204  20.814  0.00  0.00    +0.000 A 
ATOM     19  C   UNL     1       1.411   6.849  20.793  0.00  0.00    +0.000 A 
BRANCH  17  20
ATOM     20  N   UNL     1       0.759  10.451  19.726  0.00  0.00    +0.000 N 
ATOM     21  C   UNL     1       1.292  11.379  20.724  0.00  0.00    +0.000 C 
ATOM     22  C   UNL     1      -0.216  10.937  18.826  0.00  0.00    +0.000 C 
ATOM     23  C   UNL     1      -0.644  12.388  18.970  0.00  0.00    +0.000 C 
ATOM     24  O   UNL     1      -0.742  10.304  17.909  0.00  0.00    +0.000 OA
ENDBRANCH  17  20
ENDBRANCH   1  14
BRANCH   1  26
ATOM     25  C   UNL     1       1.335   2.457  18.906  0.00  0.00    +0.000 C 
ATOM     26  C   UNL     1       1.114   3.915  19.300  0.00  0.00    +0.000 C 
ENDBRANCH   1  26
BRANCH   1  27
ATOM     27  C   UNL     1       2.898   4.291  21.090  0.00  0.00    +0.000 C 
ATOM     28  C   UNL     1       2.023   3.297  21.848  0.00  0.00    +0.000 C 
ENDBRANCH   1  27
TORSDOF 7
ENDMDL
MODEL 4
REMARK VINA RESULT:      -7.2      3.454      9.798
REMARK  Name = 
REMARK  13 active torsions:
REMARK  status: ('A' for Active; 'I' for Inactive)
REMARK    1  A    between atoms: C_1  and  C_2
REMARK    2  A    between atoms: C_2  and  C_3
REMARK    3  A    between atoms: C_3  and  C_4
REMARK    4  A    between atoms: C_3  and  C_6
REMARK    5  A    between atoms: C_3  and  C_18
REMARK    6  A    between atoms: C_4  and  C_5
REMARK    7  A    between atoms: C_9  and  O_10
REMARK    8  A    between atoms: O_10  and  C_11
REMARK    9  A    between atoms: N_13  and  C_14
REMARK   10  A    between atoms: N_13  and  C_15
REMARK   11  A    between atoms: C_21  and  N_22
REMARK   12  A    between atoms: N_22  and  C_23
REMARK   13  A    between atoms: C_24  and  C_25
REMARK                            x       y       z     vdW  Elec       q    Type
REMARK                         _______ _______ _______ _____ _____    ______ ____
ROOT
ATOM      1  C   UNL     1       2.499   4.919  19.337  0.00  0.00    +0.000 C 
ENDROOT
BRANCH   1   2
ATOM      2  C   UNL     1       3.653   4.555  18.337  0.00  0.00    +0.000 A 
ATOM      3  C   UNL     1       3.401   4.092  17.025  0.00  0.00    +0.000 A 
ATOM      4  C   UNL     1       4.436   3.838  16.117  0.00  0.00    +0.000 A 
ATOM      5  C   UNL     1       5.757   4.034  16.501  0.00  0.00    +0.000 A 
ATOM      6  C   UNL     1       6.045   4.449  17.795  0.00  0.00    +0.000 A 
ATOM      7  C   UNL     1       5.004   4.742  18.687  0.00  0.00    +0.000 A 
BRANCH   5   8
ATOM      8  O   UNL     1       6.743   3.749  15.533  0.00  0.00    +0.000 OA
BRANCH   8   9
ATOM      9  C   UNL     1       7.232   4.746  14.679  0.00  0.00    +0.000 C 
ATOM     10  O   UNL     1       7.772   5.778  15.064  0.00  0.00    +0.000 OA
ATOM     11  N   UNL     1       7.040   4.458  13.335  0.00  0.00    +0.000 N 
ATOM     12  C   UNL     1       6.317   3.297  12.846  0.00  0.00    +0.000 C 
ATOM     13  C   UNL     1       7.498   5.411  12.339  0.00  0.00    +0.000 C 
ENDBRANCH   8   9
ENDBRANCH   5   8
ENDBRANCH   1   2
BRANCH   1  14
ATOM     14  C   UNL     1       2.185   6.445  19.182  0.00  0.00    +0.000 A 
ATOM     15  C   UNL     1       2.262   7.124  17.962  0.00  0.00    +0.000 A 
ATOM     16  C   UNL     1       1.917   8.485  17.845  0.00  0.00    +0.000 A 
ATOM     17  C   UNL     1       1.475   9.253  18.929  0.00  0.00    +0.000 A 
ATOM     18  C   UNL     1       1.442   8.571  20.155  0.00  0.00    +0.000 A 
ATOM     19  C   UNL     1       1.784   7.208  20.278  0.00  0.00    +0.000 A 
BRANCH  17  20
ATOM     20  N   UNL     1       1.064  10.646  18.793  0.00  0.00    +0.000 N 
ATOM     21  C   UNL     1       2.086  11.677  18.619  0.00  0.00    +0.000 C 
ATOM     22  C   UNL     1      -0.287  11.058  18.862  0.00  0.00    +0.000 C 
ATOM     23  C   UNL     1      -0.572  12.546  18.760  0.00  0.00    +0.000 C 
ATOM     24  O   UNL     1      -1.268  10.322  18.972  0.00  0.00    +0.000 OA
ENDBRANCH  17  20
ENDBRANCH   1  14
BRANCH   1  26
ATOM     25  C   UNL     1       1.346   2.567  18.999  0.00  0.00    +0.000 C 
ATOM     26  C   UNL     1       1.204   4.087  19.002  0.00  0.00    +0.000 C 
ENDBRANCH   1  26
BRANCH   1  27
ATOM     27  C   UNL     1       2.920   4.592  20.825  0.00  0.00    +0.000 C 
ATOM     28  C   UNL     1       2.021   3.646  21.614  0.00  0.00    +0.000 C 
ENDBRANCH   1  27
TORSDOF 7
ENDMDL
MODEL 5
REMARK VINA RESULT:      -7.2      0.724      1.395
REMARK  Name = 
REMARK  13 active torsions:
REMARK  status: ('A' for Active; 'I' for Inactive)
REMARK    1  A    between atoms: C_1  and  C_2
REMARK    2  A    between atoms: C_2  and  C_3
REMARK    3  A    between atoms: C_3  and  C_4
REMARK    4  A    between atoms: C_3  and  C_6
REMARK    5  A    between atoms: C_3  and  C_18
REMARK    6  A    between atoms: C_4  and  C_5
REMARK    7  A    between atoms: C_9  and  O_10
REMARK    8  A    between atoms: O_10  and  C_11
REMARK    9  A    between atoms: N_13  and  C_14
REMARK   10  A    between atoms: N_13  and  C_15
REMARK   11  A    between atoms: C_21  and  N_22
REMARK   12  A    between atoms: N_22  and  C_23
REMARK   13  A    between atoms: C_24  and  C_25
REMARK                            x       y       z     vdW  Elec       q    Type
REMARK                         _______ _______ _______ _____ _____    ______ ____
ROOT
ATOM      1  C   UNL     1       0.591  11.023  19.699  0.00  0.00    +0.000 C 
ENDROOT
BRANCH   1   2
ATOM      2  C   UNL     1      -0.852  10.974  19.081  0.00  0.00    +0.000 A 
ATOM      3  C   UNL     1      -1.291   9.905  18.266  0.00  0.00    +0.000 A 
ATOM      4  C   UNL     1      -2.602   9.835  17.778  0.00  0.00    +0.000 A 
ATOM      5  C   UNL     1      -3.510  10.840  18.088  0.00  0.00    +0.000 A 
ATOM      6  C   UNL     1      -3.103  11.926  18.853  0.00  0.00    +0.000 A 
ATOM      7  C   UNL     1      -1.802  11.971  19.373  0.00  0.00    +0.000 A 
BRANCH   5   8
ATOM      8  O   UNL     1      -4.809  10.702  17.553  0.00  0.00    +0.000 OA
BRANCH   8   9
ATOM      9  C   UNL     1      -5.687  11.791  17.491  0.00  0.00    +0.000 C 
ATOM     10  O   UNL     1      -5.565  12.731  16.710  0.00  0.00    +0.000 OA
ATOM     11  N   UNL     1      -6.722  11.714  18.413  0.00  0.00    +0.000 N 
ATOM     12  C   UNL     1      -6.842  10.672  19.416  0.00  0.00    +0.000 C 
ATOM     13  C   UNL     1      -7.704  12.782  18.458  0.00  0.00    +0.000 C 
ENDBRANCH   8   9
ENDBRANCH   5   8
ENDBRANCH   1   2
BRANCH   1  14
ATOM     14  C   UNL     1       1.338   9.710  19.293  0.00  0.00    +0.000 A 
ATOM     15  C   UNL     1       1.485   8.614  20.149  0.00  0.00    +0.000 A 
ATOM     16  C   UNL     1       2.113   7.423  19.733  0.00  0.00    +0.000 A 
ATOM     17  C   UNL     1       2.631   7.247  18.445  0.00  0.00    +0.000 A 
ATOM     18  C   UNL     1       2.516   8.369  17.608  0.00  0.00    +0.000 A 
ATOM     19  C   UNL     1       1.886   9.562  18.019  0.00  0.00    +0.000 A 
BRANCH  17  20
ATOM     20  N   UNL     1       3.230   5.994  18.000  0.00  0.00    +0.000 N 
ATOM     21  C   UNL     1       4.662   5.951  17.707  0.00  0.00    +0.000 C 
ATOM     22  C   UNL     1       2.477   4.815  17.795  0.00  0.00    +0.000 C 
ATOM     23  C   UNL     1       3.216   3.592  17.278  0.00  0.00    +0.000 C 
ATOM     24  O   UNL     1       1.275   4.668  18.022  0.00  0.00    +0.000 OA
ENDBRANCH  17  20
ENDBRANCH   1  14
BRANCH   1  26
ATOM     25  C   UNL     1       2.055  13.172  20.165  0.00  0.00    +0.000 C 
ATOM     26  C   UNL     1       1.381  12.265  19.138  0.00  0.00    +0.000 C 
ENDBRANCH   1  26
BRANCH   1  27
ATOM     27  C   UNL     1       0.523  11.154  21.272  0.00  0.00    +0.000 C 
ATOM     28  C   UNL     1      -0.534  10.329  21.997  0.00  0.00    +0.000 C 
ENDBRANCH   1  27
TORSDOF 7
ENDMDL
MODEL 6
REMARK VINA RESULT:      -7.2      0.329      1.312
REMARK  Name = 
REMARK  13 active torsions:
REMARK  status: ('A' for Active; 'I' for Inactive)
REMARK    1  A    between atoms: C_1  and  C_2
REMARK    2  A    between atoms: C_2  and  C_3
REMARK    3  A    between atoms: C_3  and  C_4
REMARK    4  A    between atoms: C_3  and  C_6
REMARK    5  A    between atoms: C_3  and  C_18
REMARK    6  A    between atoms: C_4  and  C_5
REMARK    7  A    between atoms: C_9  and  O_10
REMARK    8  A    between atoms: O_10  and  C_11
REMARK    9  A    between atoms: N_13  and  C_14
REMARK   10  A    between atoms: N_13  and  C_15
REMARK   11  A    between atoms: C_21  and  N_22
REMARK   12  A    between atoms: N_22  and  C_23
REMARK   13  A    between atoms: C_24  and  C_25
REMARK                            x       y       z     vdW  Elec       q    Type
REMARK                         _______ _______ _______ _____ _____    ______ ____
ROOT
ATOM      1  C   UNL     1       0.754  10.969  19.347  0.00  0.00    +0.000 C 
ENDROOT
BRANCH   1   2
ATOM      2  C   UNL     1      -0.722  10.906  18.816  0.00  0.00    +0.000 A 
ATOM      3  C   UNL     1      -1.726  11.795  19.262  0.00  0.00    +0.000 A 
ATOM      4  C   UNL     1      -3.022  11.777  18.730  0.00  0.00    +0.000 A 
ATOM      5  C   UNL     1      -3.350  10.862  17.738  0.00  0.00    +0.000 A 
ATOM      6  C   UNL     1      -2.401   9.945  17.304  0.00  0.00    +0.000 A 
ATOM      7  C   UNL     1      -1.094   9.994  17.809  0.00  0.00    +0.000 A 
BRANCH   5   8
ATOM      8  O   UNL     1      -4.677  10.901  17.259  0.00  0.00    +0.000 OA
BRANCH   8   9
ATOM      9  C   UNL     1      -5.764  10.973  18.138  0.00  0.00    +0.000 C 
ATOM     10  O   UNL     1      -6.065  10.091  18.936  0.00  0.00    +0.000 OA
ATOM     11  N   UNL     1      -6.488  12.152  18.018  0.00  0.00    +0.000 N 
ATOM     12  C   UNL     1      -6.223  13.171  17.019  0.00  0.00    +0.000 C 
ATOM     13  C   UNL     1      -7.645  12.356  18.871  0.00  0.00    +0.000 C 
ENDBRANCH   8   9
ENDBRANCH   5   8
ENDBRANCH   1   2
BRANCH   1  14
ATOM     14  C   UNL     1       1.392   9.550  19.177  0.00  0.00    +0.000 A 
ATOM     15  C   UNL     1       1.365   8.571  20.175  0.00  0.00    +0.000 A 
ATOM     16  C   UNL     1       1.897   7.282  19.970  0.00  0.00    +0.000 A 
ATOM     17  C   UNL     1       2.486   6.887  18.763  0.00  0.00    +0.000 A 
ATOM     18  C   UNL     1       2.545   7.891  17.783  0.00  0.00    +0.000 A 
ATOM     19  C   UNL     1       2.012   9.181  17.983  0.00  0.00    +0.000 A 
BRANCH  17  20
ATOM     20  N   UNL     1       2.984   5.536  18.535  0.00  0.00    +0.000 N 
ATOM     21  C   UNL     1       4.327   5.183  18.995  0.00  0.00    +0.000 C 
ATOM     22  C   UNL     1       2.240   4.550  17.846  0.00  0.00    +0.000 C 
ATOM     23  C   UNL     1       2.899   3.199  17.628  0.00  0.00    +0.000 C 
ATOM     24  O   UNL     1       1.090   4.669  17.422  0.00  0.00    +0.000 OA
ENDBRANCH  17  20
ENDBRANCH   1  14
BRANCH   1  26
ATOM     25  C   UNL     1       1.093  13.459  18.533  0.00  0.00    +0.000 C 
ATOM     26  C   UNL     1       1.588  12.015  18.515  0.00  0.00    +0.000 C 
ENDBRANCH   1  26
BRANCH   1  27
ATOM     27  C   UNL     1       0.788  11.409  20.864  0.00  0.00    +0.000 C 
ATOM     28  C   UNL     1      -0.290  10.840  21.780  0.00  0.00    +0.000 C 
ENDBRANCH   1  27
TORSDOF 7
ENDMDL
MODEL 7
REMARK VINA RESULT:      -7.2      3.850      8.163
REMARK  Name = 
REMARK  13 active torsions:
REMARK  status: ('A' for Active; 'I' for Inactive)
REMARK    1  A    between atoms: C_1  and  C_2
REMARK    2  A    between atoms: C_2  and  C_3
REMARK    3  A    between atoms: C_3  and  C_4
REMARK    4  A    between atoms: C_3  and  C_6
REMARK    5  A    between atoms: C_3  and  C_18
REMARK    6  A    between atoms: C_4  and  C_5
REMARK    7  A    between atoms: C_9  and  O_10
REMARK    8  A    between atoms: O_10  and  C_11
REMARK    9  A    between atoms: N_13  and  C_14
REMARK   10  A    between atoms: N_13  and  C_15
REMARK   11  A    between atoms: C_21  and  N_22
REMARK   12  A    between atoms: N_22  and  C_23
REMARK   13  A    between atoms: C_24  and  C_25
REMARK                            x       y       z     vdW  Elec       q    Type
REMARK                         _______ _______ _______ _____ _____    ______ ____
ROOT
ATOM      1  C   UNL     1      -0.055  11.175  19.488  0.00  0.00    +0.000 C 
ENDROOT
BRANCH   1   2
ATOM      2  C   UNL     1       0.746   9.826  19.435  0.00  0.00    +0.000 A 
ATOM      3  C   UNL     1       1.432   9.396  18.276  0.00  0.00    +0.000 A 
ATOM      4  C   UNL     1       2.203   8.227  18.262  0.00  0.00    +0.000 A 
ATOM      5  C   UNL     1       2.303   7.450  19.409  0.00  0.00    +0.000 A 
ATOM      6  C   UNL     1       1.610   7.819  20.555  0.00  0.00    +0.000 A 
ATOM      7  C   UNL     1       0.874   9.012  20.577  0.00  0.00    +0.000 A 
BRANCH   5   8
ATOM      8  O   UNL     1       3.091   6.283  19.313  0.00  0.00    +0.000 OA
BRANCH   8   9
ATOM      9  C   UNL     1       2.545   5.074  18.865  0.00  0.00    +0.000 C 
ATOM     10  O   UNL     1       1.581   4.520  19.384  0.00  0.00    +0.000 OA
ATOM     11  N   UNL     1       3.211   4.545  17.767  0.00  0.00    +0.000 N 
ATOM     12  C   UNL     1       4.414   5.119  17.191  0.00  0.00    +0.000 C 
ATOM     13  C   UNL     1       2.749   3.290  17.203  0.00  0.00    +0.000 C 
ENDBRANCH   8   9
ENDBRANCH   5   8
ENDBRANCH   1   2
BRANCH   1  14
ATOM     14  C   UNL     1       0.976  12.352  19.526  0.00  0.00    +0.000 A 
ATOM     15  C   UNL     1       1.766  12.644  20.642  0.00  0.00    +0.000 A 
ATOM     16  C   UNL     1       2.728  13.674  20.625  0.00  0.00    +0.000 A 
ATOM     17  C   UNL     1       2.964  14.473  19.501  0.00  0.00    +0.000 A 
ATOM     18  C   UNL     1       2.137  14.198  18.401  0.00  0.00    +0.000 A 
ATOM     19  C   UNL     1       1.174  13.167  18.412  0.00  0.00    +0.000 A 
BRANCH  17  20
ATOM     20  N   UNL     1       3.999  15.501  19.468  0.00  0.00    +0.000 N 
ATOM     21  C   UNL     1       3.838  16.702  20.286  0.00  0.00    +0.000 C 
ATOM     22  C   UNL     1       5.144  15.410  18.644  0.00  0.00    +0.000 C 
ATOM     23  C   UNL     1       6.118  16.576  18.664  0.00  0.00    +0.000 C 
ATOM     24  O   UNL     1       5.449  14.459  17.922  0.00  0.00    +0.000 OA
ENDBRANCH  17  20
ENDBRANCH   1  14
BRANCH   1  26
ATOM     25  C   UNL     1      -1.934  10.180  17.919  0.00  0.00    +0.000 C 
ATOM     26  C   UNL     1      -0.961  11.321  18.206  0.00  0.00    +0.000 C 
ENDBRANCH   1  26
BRANCH   1  27
ATOM     27  C   UNL     1      -0.992  11.223  20.759  0.00  0.00    +0.000 C 
ATOM     28  C   UNL     1      -1.951  12.403  20.875  0.00  0.00    +0.000 C 
ENDBRANCH   1  27
TORSDOF 7
ENDMDL
MODEL 8
REMARK VINA RESULT:      -7.1      3.753      8.393
REMARK  Name = 
REMARK  13 active torsions:
REMARK  status: ('A' for Active; 'I' for Inactive)
REMARK    1  A    between atoms: C_1  and  C_2
REMARK    2  A    between atoms: C_2  and  C_3
REMARK    3  A    between atoms: C_3  and  C_4
REMARK    4  A    between atoms: C_3  and  C_6
REMARK    5  A    between atoms: C_3  and  C_18
REMARK    6  A    between atoms: C_4  and  C_5
REMARK    7  A    between atoms: C_9  and  O_10
REMARK    8  A    between atoms: O_10  and  C_11
REMARK    9  A    between atoms: N_13  and  C_14
REMARK   10  A    between atoms: N_13  and  C_15
REMARK   11  A    between atoms: C_21  and  N_22
REMARK   12  A    between atoms: N_22  and  C_23
REMARK   13  A    between atoms: C_24  and  C_25
REMARK                            x       y       z     vdW  Elec       q    Type
REMARK                         _______ _______ _______ _____ _____    ______ ____
ROOT
ATOM      1  C   UNL     1       0.108  11.063  19.469  0.00  0.00    +0.000 C 
ENDROOT
BRANCH   1   2
ATOM      2  C   UNL     1       0.940   9.757  19.208  0.00  0.00    +0.000 A 
ATOM      3  C   UNL     1       1.579   9.500  17.974  0.00  0.00    +0.000 A 
ATOM      4  C   UNL     1       2.377   8.366  17.774  0.00  0.00    +0.000 A 
ATOM      5  C   UNL     1       2.554   7.454  18.807  0.00  0.00    +0.000 A 
ATOM      6  C   UNL     1       1.909   7.653  20.021  0.00  0.00    +0.000 A 
ATOM      7  C   UNL     1       1.145   8.809  20.229  0.00  0.00    +0.000 A 
BRANCH   5   8
ATOM      8  O   UNL     1       3.366   6.334  18.526  0.00  0.00    +0.000 OA
BRANCH   8   9
ATOM      9  C   UNL     1       2.804   5.092  18.208  0.00  0.00    +0.000 C 
ATOM     10  O   UNL     1       1.673   4.944  17.754  0.00  0.00    +0.000 OA
ATOM     11  N   UNL     1       3.654   4.025  18.463  0.00  0.00    +0.000 N 
ATOM     12  C   UNL     1       4.957   4.153  19.091  0.00  0.00    +0.000 C 
ATOM     13  C   UNL     1       3.195   2.677  18.180  0.00  0.00    +0.000 C 
ENDBRANCH   8   9
ENDBRANCH   5   8
ENDBRANCH   1   2
BRANCH   1  14
ATOM     14  C   UNL     1       1.095  12.277  19.461  0.00  0.00    +0.000 A 
ATOM     15  C   UNL     1       1.233  13.147  18.375  0.00  0.00    +0.000 A 
ATOM     16  C   UNL     1       2.088  14.267  18.422  0.00  0.00    +0.000 A 
ATOM     17  C   UNL     1       2.856  14.590  19.546  0.00  0.00    +0.000 A 
ATOM     18  C   UNL     1       2.741  13.686  20.614  0.00  0.00    +0.000 A 
ATOM     19  C   UNL     1       1.884  12.566  20.574  0.00  0.00    +0.000 A 
BRANCH  17  20
ATOM     20  N   UNL     1       3.696  15.780  19.612  0.00  0.00    +0.000 N 
ATOM     21  C   UNL     1       3.162  16.999  20.219  0.00  0.00    +0.000 C 
ATOM     22  C   UNL     1       5.003  15.827  19.074  0.00  0.00    +0.000 C 
ATOM     23  C   UNL     1       5.751  17.146  19.160  0.00  0.00    +0.000 C 
ATOM     24  O   UNL     1       5.614  14.888  18.560  0.00  0.00    +0.000 OA
ENDBRANCH  17  20
ENDBRANCH   1  14
BRANCH   1  26
ATOM     25  C   UNL     1      -1.956  10.117  18.119  0.00  0.00    +0.000 C 
ATOM     26  C   UNL     1      -0.967  11.260  18.334  0.00  0.00    +0.000 C 
ENDBRANCH   1  26
BRANCH   1  27
ATOM     27  C   UNL     1      -0.650  10.979  20.853  0.00  0.00    +0.000 C 
ATOM     28  C   UNL     1      -1.621  12.106  21.187  0.00  0.00    +0.000 C 
ENDBRANCH   1  27
TORSDOF 7
ENDMDL
MODEL 9
REMARK VINA RESULT:      -7.1      3.728      8.413
REMARK  Name = 
REMARK  13 active torsions:
REMARK  status: ('A' for Active; 'I' for Inactive)
REMARK    1  A    between atoms: C_1  and  C_2
REMARK    2  A    between atoms: C_2  and  C_3
REMARK    3  A    between atoms: C_3  and  C_4
REMARK    4  A    between atoms: C_3  and  C_6
REMARK    5  A    between atoms: C_3  and  C_18
REMARK    6  A    between atoms: C_4  and  C_5
REMARK    7  A    between atoms: C_9  and  O_10
REMARK    8  A    between atoms: O_10  and  C_11
REMARK    9  A    between atoms: N_13  and  C_14
REMARK   10  A    between atoms: N_13  and  C_15
REMARK   11  A    between atoms: C_21  and  N_22
REMARK   12  A    between atoms: N_22  and  C_23
REMARK   13  A    between atoms: C_24  and  C_25
REMARK                            x       y       z     vdW  Elec       q    Type
REMARK                         _______ _______ _______ _____ _____    ______ ____
ROOT
ATOM      1  C   UNL     1       0.058  11.046  19.500  0.00  0.00    +0.000 C 
ENDROOT
BRANCH   1   2
ATOM      2  C   UNL     1       0.987   9.804  19.254  0.00  0.00    +0.000 A 
ATOM      3  C   UNL     1       1.198   8.809  20.236  0.00  0.00    +0.000 A 
ATOM      4  C   UNL     1       1.971   7.669  19.982  0.00  0.00    +0.000 A 
ATOM      5  C   UNL     1       2.562   7.497  18.737  0.00  0.00    +0.000 A 
ATOM      6  C   UNL     1       2.410   8.473  17.760  0.00  0.00    +0.000 A 
ATOM      7  C   UNL     1       1.602   9.592  18.005  0.00  0.00    +0.000 A 
BRANCH   5   8
ATOM      8  O   UNL     1       3.332   6.327  18.561  0.00  0.00    +0.000 OA
BRANCH   8   9
ATOM      9  C   UNL     1       2.735   5.114  18.196  0.00  0.00    +0.000 C 
ATOM     10  O   UNL     1       1.615   5.017  17.705  0.00  0.00    +0.000 OA
ATOM     11  N   UNL     1       3.538   4.010  18.452  0.00  0.00    +0.000 N 
ATOM     12  C   UNL     1       4.824   4.077  19.122  0.00  0.00    +0.000 C 
ATOM     13  C   UNL     1       3.039   2.687  18.123  0.00  0.00    +0.000 C 
ENDBRANCH   8   9
ENDBRANCH   5   8
ENDBRANCH   1   2
BRANCH   1  14
ATOM     14  C   UNL     1       0.960  12.324  19.553  0.00  0.00    +0.000 A 
ATOM     15  C   UNL     1       1.862  12.584  20.588  0.00  0.00    +0.000 A 
ATOM     16  C   UNL     1       2.703  13.716  20.577  0.00  0.00    +0.000 A 
ATOM     17  C   UNL     1       2.699  14.654  19.539  0.00  0.00    +0.000 A 
ATOM     18  C   UNL     1       1.760  14.404  18.526  0.00  0.00    +0.000 A 
ATOM     19  C   UNL     1       0.918  13.272  18.531  0.00  0.00    +0.000 A 
BRANCH  17  20
ATOM     20  N   UNL     1       3.610  15.793  19.503  0.00  0.00    +0.000 N 
ATOM     21  C   UNL     1       3.180  17.069  20.075  0.00  0.00    +0.000 C 
ATOM     22  C   UNL     1       4.886  15.736  18.898  0.00  0.00    +0.000 C 
ATOM     23  C   UNL     1       5.713  17.010  18.882  0.00  0.00    +0.000 C 
ATOM     24  O   UNL     1       5.413  14.739  18.401  0.00  0.00    +0.000 OA
ENDBRANCH  17  20
ENDBRANCH   1  14
BRANCH   1  26
ATOM     25  C   UNL     1      -2.019  10.082  18.182  0.00  0.00    +0.000 C 
ATOM     26  C   UNL     1      -0.979  11.191  18.322  0.00  0.00    +0.000 C 
ENDBRANCH   1  26
BRANCH   1  27
ATOM     27  C   UNL     1      -0.749  10.886  20.848  0.00  0.00    +0.000 C 
ATOM     28  C   UNL     1      -1.638  12.050  21.272  0.00  0.00    +0.000 C 
ENDBRANCH   1  27
TORSDOF 7
ENDMDL
