MODEL 1
REMARK VINA RESULT:      -7.7      0.000      0.000
REMARK  Name = 
REMARK  5 active torsions:
REMARK  status: ('A' for Active; 'I' for Inactive)
REMARK    1  A    between atoms: C_1  and  C_2
REMARK    2  A    between atoms: C_2  and  C_3
REMARK    3  A    between atoms: C_3  and  N_4
REMARK    4  A    between atoms: C_3  and  C_15
REMARK    5  A    between atoms: N_4  and  C_5
REMARK                            x       y       z     vdW  Elec       q    Type
REMARK                         _______ _______ _______ _____ _____    ______ ____
ROOT
ATOM      1  N   UNL     1       4.789   3.593  18.022  0.00  0.00    +0.000 N 
ATOM      2  H   UNL     1       5.007   2.639  17.746  0.00  0.00    +0.000 HD
ENDROOT
BRANCH   1   3
ATOM      3  C   UNL     1       5.719   4.470  17.457  0.00  0.00    +0.000 A 
ATOM      4  N   UNL     1       6.388   5.358  18.224  0.00  0.00    +0.000 NA
ATOM      5  C   UNL     1       7.305   6.161  17.661  0.00  0.00    +0.000 A 
ATOM      6  N   UNL     1       7.661   6.212  16.377  0.00  0.00    +0.000 NA
ATOM      7  C   UNL     1       6.985   5.326  15.630  0.00  0.00    +0.000 A 
ATOM      8  S   UNL     1       7.291   5.191  13.958  0.00  0.00    +0.000 S 
ATOM      9  C   UNL     1       6.146   3.962  13.801  0.00  0.00    +0.000 A 
ATOM     10 BR   UNL     1       5.772   3.111  12.173  0.00  0.00    +0.000 Br
ATOM     11  C   UNL     1       5.521   3.642  14.982  0.00  0.00    +0.000 A 
ATOM     12  C   UNL     1       6.011   4.441  16.076  0.00  0.00    +0.000 A 
ENDBRANCH   1   3
BRANCH   1  13
ATOM     13  C   UNL     1       3.364   3.915  17.899  0.00  0.00    +0.000 C 
BRANCH  13  14
ATOM     14  C   UNL     1       2.665   3.497  19.199  0.00  0.00    +0.000 A 
ATOM     15  C   UNL     1       3.409   2.995  20.279  0.00  0.00    +0.000 A 
ATOM     16  C   UNL     1       2.772   2.587  21.454  0.00  0.00    +0.000 A 
ATOM     17  C   UNL     1       1.385   2.676  21.568  0.00  0.00    +0.000 A 
ATOM     18  C   UNL     1       0.632   3.176  20.509  0.00  0.00    +0.000 A 
ATOM     19  C   UNL     1       1.266   3.585  19.335  0.00  0.00    +0.000 A 
ENDBRANCH  13  14
BRANCH  13  21
ATOM     20  C   UNL     1       3.052   6.282  18.934  0.00  0.00    +0.000 C 
ATOM     21  C   UNL     1       3.123   5.427  17.679  0.00  0.00    +0.000 C 
ENDBRANCH  13  21
ENDBRANCH   1  13
TORSDOF 4
ENDMDL
MODEL 2
REMARK VINA RESULT:      -7.5      0.183      1.089
REMARK  Name = 
REMARK  5 active torsions:
REMARK  status: ('A' for Active; 'I' for Inactive)
REMARK    1  A    between atoms: C_1  and  C_2
REMARK    2  A    between atoms: C_2  and  C_3
REMARK    3  A    between atoms: C_3  and  N_4
REMARK    4  A    between atoms: C_3  and  C_15
REMARK    5  A    between atoms: N_4  and  C_5
REMARK                            x       y       z     vdW  Elec       q    Type
REMARK                         _______ _______ _______ _____ _____    ______ ____
ROOT
ATOM      1  N   UNL     1       4.571   3.550  17.861  0.00  0.00    +0.000 N 
ATOM      2  H   UNL     1       4.678   2.622  17.459  0.00  0.00    +0.000 HD
ENDROOT
BRANCH   1   3
ATOM      3  C   UNL     1       5.557   4.400  17.352  0.00  0.00    +0.000 A 
ATOM      4  N   UNL     1       6.230   5.243  18.164  0.00  0.00    +0.000 NA
ATOM      5  C   UNL     1       7.199   6.020  17.655  0.00  0.00    +0.000 A 
ATOM      6  N   UNL     1       7.607   6.084  16.386  0.00  0.00    +0.000 NA
ATOM      7  C   UNL     1       6.925   5.242  15.595  0.00  0.00    +0.000 A 
ATOM      8  S   UNL     1       7.291   5.131  13.933  0.00  0.00    +0.000 S 
ATOM      9  C   UNL     1       6.104   3.952  13.704  0.00  0.00    +0.000 A 
ATOM     10 BR   UNL     1       5.760   3.152  12.044  0.00  0.00    +0.000 Br
ATOM     11  C   UNL     1       5.422   3.633  14.853  0.00  0.00    +0.000 A 
ATOM     12  C   UNL     1       5.901   4.388  15.982  0.00  0.00    +0.000 A 
ENDBRANCH   1   3
BRANCH   1  13
ATOM     13  C   UNL     1       3.181   4.017  17.865  0.00  0.00    +0.000 C 
BRANCH  13  14
ATOM     14  C   UNL     1       2.519   3.543  19.165  0.00  0.00    +0.000 A 
ATOM     15  C   UNL     1       1.121   3.462  19.263  0.00  0.00    +0.000 A 
ATOM     16  C   UNL     1       0.514   3.057  20.456  0.00  0.00    +0.000 A 
ATOM     17  C   UNL     1       1.294   2.727  21.564  0.00  0.00    +0.000 A 
ATOM     18  C   UNL     1       2.683   2.796  21.481  0.00  0.00    +0.000 A 
ATOM     19  C   UNL     1       3.290   3.199  20.291  0.00  0.00    +0.000 A 
ENDBRANCH  13  14
BRANCH  13  21
ATOM     20  C   UNL     1       2.867   6.272  19.126  0.00  0.00    +0.000 C 
ATOM     21  C   UNL     1       3.083   5.559  17.799  0.00  0.00    +0.000 C 
ENDBRANCH  13  21
ENDBRANCH   1  13
TORSDOF 4
ENDMDL
MODEL 3
REMARK VINA RESULT:      -7.5      3.404      6.774
REMARK  Name = 
REMARK  5 active torsions:
REMARK  status: ('A' for Active; 'I' for Inactive)
REMARK    1  A    between atoms: C_1  and  C_2
REMARK    2  A    between atoms: C_2  and  C_3
REMARK    3  A    between atoms: C_3  and  N_4
REMARK    4  A    between atoms: C_3  and  C_15
REMARK    5  A    between atoms: N_4  and  C_5
REMARK                            x       y       z     vdW  Elec       q    Type
REMARK                         _______ _______ _______ _____ _____    ______ ____
ROOT
ATOM      1  N   UNL     1       4.519   4.474  16.297  0.00  0.00    +0.000 N 
ATOM      2  H   UNL     1       4.078   4.151  15.439  0.00  0.00    +0.000 HD
ENDROOT
BRANCH   1   3
ATOM      3  C   UNL     1       3.941   3.829  17.393  0.00  0.00    +0.000 A 
ATOM      4  N   UNL     1       4.042   2.490  17.541  0.00  0.00    +0.000 NA
ATOM      5  C   UNL     1       3.512   1.901  18.625  0.00  0.00    +0.000 A 
ATOM      6  N   UNL     1       2.856   2.486  19.628  0.00  0.00    +0.000 NA
ATOM      7  C   UNL     1       2.763   3.814  19.463  0.00  0.00    +0.000 A 
ATOM      8  S   UNL     1       1.986   4.779  20.635  0.00  0.00    +0.000 S 
ATOM      9  C   UNL     1       2.296   6.183  19.751  0.00  0.00    +0.000 A 
ATOM     10 BR   UNL     1       1.776   7.891  20.323  0.00  0.00    +0.000 Br
ATOM     11  C   UNL     1       2.972   5.952  18.577  0.00  0.00    +0.000 A 
ATOM     12  C   UNL     1       3.258   4.553  18.395  0.00  0.00    +0.000 A 
ENDBRANCH   1   3
BRANCH   1  13
ATOM     13  C   UNL     1       5.982   4.523  16.208  0.00  0.00    +0.000 C 
BRANCH  13  14
ATOM     14  C   UNL     1       6.376   4.412  14.729  0.00  0.00    +0.000 A 
ATOM     15  C   UNL     1       7.427   5.186  14.213  0.00  0.00    +0.000 A 
ATOM     16  C   UNL     1       7.770   5.108  12.860  0.00  0.00    +0.000 A 
ATOM     17  C   UNL     1       7.071   4.254  12.006  0.00  0.00    +0.000 A 
ATOM     18  C   UNL     1       6.030   3.475  12.505  0.00  0.00    +0.000 A 
ATOM     19  C   UNL     1       5.686   3.551  13.854  0.00  0.00    +0.000 A 
ENDBRANCH  13  14
BRANCH  13  21
ATOM     20  C   UNL     1       7.367   5.729  18.051  0.00  0.00    +0.000 C 
ATOM     21  C   UNL     1       6.557   5.844  16.769  0.00  0.00    +0.000 C 
ENDBRANCH  13  21
ENDBRANCH   1  13
TORSDOF 4
ENDMDL
MODEL 4
REMARK VINA RESULT:      -7.5      2.080      3.761
REMARK  Name = 
REMARK  5 active torsions:
REMARK  status: ('A' for Active; 'I' for Inactive)
REMARK    1  A    between atoms: C_1  and  C_2
REMARK    2  A    between atoms: C_2  and  C_3
REMARK    3  A    between atoms: C_3  and  N_4
REMARK    4  A    between atoms: C_3  and  C_15
REMARK    5  A    between atoms: N_4  and  C_5
REMARK                            x       y       z     vdW  Elec       q    Type
REMARK                         _______ _______ _______ _____ _____    ______ ____
ROOT
ATOM      1  N   UNL     1       3.285   5.296  18.695  0.00  0.00    +0.000 N 
ATOM      2  H   UNL     1       2.873   5.654  17.836  0.00  0.00    +0.000 HD
ENDROOT
BRANCH   1   3
ATOM      3  C   UNL     1       4.674   5.225  18.557  0.00  0.00    +0.000 A 
ATOM      4  N   UNL     1       5.486   5.438  19.615  0.00  0.00    +0.000 NA
ATOM      5  C   UNL     1       6.815   5.324  19.463  0.00  0.00    +0.000 A 
ATOM      6  N   UNL     1       7.482   5.020  18.348  0.00  0.00    +0.000 NA
ATOM      7  C   UNL     1       6.660   4.815  17.308  0.00  0.00    +0.000 A 
ATOM      8  S   UNL     1       7.287   4.387  15.781  0.00  0.00    +0.000 S 
ATOM      9  C   UNL     1       5.738   4.309  15.117  0.00  0.00    +0.000 A 
ATOM     10 BR   UNL     1       5.411   3.855  13.327  0.00  0.00    +0.000 Br
ATOM     11  C   UNL     1       4.741   4.604  16.016  0.00  0.00    +0.000 A 
ATOM     12  C   UNL     1       5.273   4.902  17.320  0.00  0.00    +0.000 A 
ENDBRANCH   1   3
BRANCH   1  13
ATOM     13  C   UNL     1       2.735   5.925  19.900  0.00  0.00    +0.000 C 
BRANCH  13  14
ATOM     14  C   UNL     1       2.185   7.303  19.514  0.00  0.00    +0.000 A 
ATOM     15  C   UNL     1       1.496   8.084  20.455  0.00  0.00    +0.000 A 
ATOM     16  C   UNL     1       0.969   9.329  20.098  0.00  0.00    +0.000 A 
ATOM     17  C   UNL     1       1.126   9.811  18.798  0.00  0.00    +0.000 A 
ATOM     18  C   UNL     1       1.812   9.052  17.855  0.00  0.00    +0.000 A 
ATOM     19  C   UNL     1       2.339   7.809  18.209  0.00  0.00    +0.000 A 
ENDBRANCH  13  14
BRANCH  13  21
ATOM     20  C   UNL     1       1.244   3.793  19.809  0.00  0.00    +0.000 C 
ATOM     21  C   UNL     1       1.585   5.095  20.518  0.00  0.00    +0.000 C 
ENDBRANCH  13  21
ENDBRANCH   1  13
TORSDOF 4
ENDMDL
MODEL 5
REMARK VINA RESULT:      -7.4      3.293      6.638
REMARK  Name = 
REMARK  5 active torsions:
REMARK  status: ('A' for Active; 'I' for Inactive)
REMARK    1  A    between atoms: C_1  and  C_2
REMARK    2  A    between atoms: C_2  and  C_3
REMARK    3  A    between atoms: C_3  and  N_4
REMARK    4  A    between atoms: C_3  and  C_15
REMARK    5  A    between atoms: N_4  and  C_5
REMARK                            x       y       z     vdW  Elec       q    Type
REMARK                         _______ _______ _______ _____ _____    ______ ____
ROOT
ATOM      1  N   UNL     1       4.665   4.534  16.284  0.00  0.00    +0.000 N 
ATOM      2  H   UNL     1       4.250   3.777  15.746  0.00  0.00    +0.000 HD
ENDROOT
BRANCH   1   3
ATOM      3  C   UNL     1       4.127   4.545  17.574  0.00  0.00    +0.000 A 
ATOM      4  N   UNL     1       4.282   3.486  18.397  0.00  0.00    +0.000 NA
ATOM      5  C   UNL     1       3.789   3.539  19.645  0.00  0.00    +0.000 A 
ATOM      6  N   UNL     1       3.124   4.546  20.213  0.00  0.00    +0.000 NA
ATOM      7  C   UNL     1       2.977   5.587  19.380  0.00  0.00    +0.000 A 
ATOM      8  S   UNL     1       2.178   7.002  19.898  0.00  0.00    +0.000 S 
ATOM      9  C   UNL     1       2.422   7.741  18.400  0.00  0.00    +0.000 A 
ATOM     10 BR   UNL     1       1.842   9.481  18.009  0.00  0.00    +0.000 Br
ATOM     11  C   UNL     1       3.091   6.947  17.500  0.00  0.00    +0.000 A 
ATOM     12  C   UNL     1       3.429   5.669  18.069  0.00  0.00    +0.000 A 
ENDBRANCH   1   3
BRANCH   1  13
ATOM     13  C   UNL     1       6.121   4.613  16.135  0.00  0.00    +0.000 C 
BRANCH  13  14
ATOM     14  C   UNL     1       6.458   4.495  14.643  0.00  0.00    +0.000 A 
ATOM     15  C   UNL     1       5.735   3.619  13.818  0.00  0.00    +0.000 A 
ATOM     16  C   UNL     1       6.058   3.488  12.464  0.00  0.00    +0.000 A 
ATOM     17  C   UNL     1       7.104   4.232  11.916  0.00  0.00    +0.000 A 
ATOM     18  C   UNL     1       7.826   5.109  12.720  0.00  0.00    +0.000 A 
ATOM     19  C   UNL     1       7.506   5.241  14.072  0.00  0.00    +0.000 A 
ENDBRANCH  13  14
BRANCH  13  21
ATOM     20  C   UNL     1       7.485   5.877  17.956  0.00  0.00    +0.000 C 
ATOM     21  C   UNL     1       6.691   5.951  16.661  0.00  0.00    +0.000 C 
ENDBRANCH  13  21
ENDBRANCH   1  13
TORSDOF 4
ENDMDL
MODEL 6
REMARK VINA RESULT:      -7.4      3.411      6.785
REMARK  Name = 
REMARK  5 active torsions:
REMARK  status: ('A' for Active; 'I' for Inactive)
REMARK    1  A    between atoms: C_1  and  C_2
REMARK    2  A    between atoms: C_2  and  C_3
REMARK    3  A    between atoms: C_3  and  N_4
REMARK    4  A    between atoms: C_3  and  C_15
REMARK    5  A    between atoms: N_4  and  C_5
REMARK                            x       y       z     vdW  Elec       q    Type
REMARK                         _______ _______ _______ _____ _____    ______ ____
ROOT
ATOM      1  N   UNL     1       4.328   4.257  16.219  0.00  0.00    +0.000 N 
ATOM      2  H   UNL     1       4.001   3.738  15.407  0.00  0.00    +0.000 HD
ENDROOT
BRANCH   1   3
ATOM      3  C   UNL     1       3.827   3.671  17.384  0.00  0.00    +0.000 A 
ATOM      4  N   UNL     1       3.952   2.344  17.601  0.00  0.00    +0.000 NA
ATOM      5  C   UNL     1       3.497   1.814  18.747  0.00  0.00    +0.000 A 
ATOM      6  N   UNL     1       2.898   2.451  19.756  0.00  0.00    +0.000 NA
ATOM      7  C   UNL     1       2.781   3.767  19.522  0.00  0.00    +0.000 A 
ATOM      8  S   UNL     1       2.069   4.791  20.684  0.00  0.00    +0.000 S 
ATOM      9  C   UNL     1       2.308   6.144  19.704  0.00  0.00    +0.000 A 
ATOM     10 BR   UNL     1       1.807   7.878  20.211  0.00  0.00    +0.000 Br
ATOM     11  C   UNL     1       2.912   5.852  18.505  0.00  0.00    +0.000 A 
ATOM     12  C   UNL     1       3.201   4.446  18.385  0.00  0.00    +0.000 A 
ENDBRANCH   1   3
BRANCH   1  13
ATOM     13  C   UNL     1       5.758   4.576  16.158  0.00  0.00    +0.000 C 
BRANCH  13  14
ATOM     14  C   UNL     1       6.213   4.461  14.697  0.00  0.00    +0.000 A 
ATOM     15  C   UNL     1       5.540   3.609  13.807  0.00  0.00    +0.000 A 
ATOM     16  C   UNL     1       5.970   3.481  12.483  0.00  0.00    +0.000 A 
ATOM     17  C   UNL     1       7.073   4.204  12.030  0.00  0.00    +0.000 A 
ATOM     18  C   UNL     1       7.748   5.058  12.898  0.00  0.00    +0.000 A 
ATOM     19  C   UNL     1       7.321   5.187  14.220  0.00  0.00    +0.000 A 
ENDBRANCH  13  14
BRANCH  13  21
ATOM     20  C   UNL     1       7.042   6.127  17.807  0.00  0.00    +0.000 C 
ATOM     21  C   UNL     1       6.058   6.010  16.653  0.00  0.00    +0.000 C 
ENDBRANCH  13  21
ENDBRANCH   1  13
TORSDOF 4
ENDMDL
MODEL 7
REMARK VINA RESULT:      -7.4      5.143      6.982
REMARK  Name = 
REMARK  5 active torsions:
REMARK  status: ('A' for Active; 'I' for Inactive)
REMARK    1  A    between atoms: C_1  and  C_2
REMARK    2  A    between atoms: C_2  and  C_3
REMARK    3  A    between atoms: C_3  and  N_4
REMARK    4  A    between atoms: C_3  and  C_15
REMARK    5  A    between atoms: N_4  and  C_5
REMARK                            x       y       z     vdW  Elec       q    Type
REMARK                         _______ _______ _______ _____ _____    ______ ____
ROOT
ATOM      1  N   UNL     1       2.507   6.461  20.524  0.00  0.00    +0.000 N 
ATOM      2  H   UNL     1       3.516   6.464  20.653  0.00  0.00    +0.000 HD
ENDROOT
BRANCH   1   3
ATOM      3  C   UNL     1       2.130   7.556  19.742  0.00  0.00    +0.000 A 
ATOM      4  N   UNL     1       2.515   7.649  18.451  0.00  0.00    +0.000 NA
ATOM      5  C   UNL     1       2.104   8.692  17.711  0.00  0.00    +0.000 A 
ATOM      6  N   UNL     1       1.333   9.710  18.099  0.00  0.00    +0.000 NA
ATOM      7  C   UNL     1       0.964   9.601  19.384  0.00  0.00    +0.000 A 
ATOM      8  S   UNL     1      -0.048  10.776  20.095  0.00  0.00    +0.000 S 
ATOM      9  C   UNL     1      -0.038   9.956  21.570  0.00  0.00    +0.000 A 
ATOM     10 BR   UNL     1      -0.977  10.552  23.080  0.00  0.00    +0.000 Br
ATOM     11  C   UNL     1       0.717   8.809  21.554  0.00  0.00    +0.000 A 
ATOM     12  C   UNL     1       1.314   8.584  20.263  0.00  0.00    +0.000 A 
ENDBRANCH   1   3
BRANCH   1  13
ATOM     13  C   UNL     1       1.977   5.139  20.175  0.00  0.00    +0.000 C 
BRANCH  13  14
ATOM     14  C   UNL     1       2.838   4.560  19.045  0.00  0.00    +0.000 A 
ATOM     15  C   UNL     1       4.239   4.567  19.142  0.00  0.00    +0.000 A 
ATOM     16  C   UNL     1       5.027   4.066  18.102  0.00  0.00    +0.000 A 
ATOM     17  C   UNL     1       4.428   3.550  16.953  0.00  0.00    +0.000 A 
ATOM     18  C   UNL     1       3.040   3.530  16.844  0.00  0.00    +0.000 A 
ATOM     19  C   UNL     1       2.251   4.029  17.881  0.00  0.00    +0.000 A 
ENDBRANCH  13  14
BRANCH  13  21
ATOM     20  C   UNL     1       1.322   2.822  21.164  0.00  0.00    +0.000 C 
ATOM     21  C   UNL     1       2.017   4.160  21.371  0.00  0.00    +0.000 C 
ENDBRANCH  13  21
ENDBRANCH   1  13
TORSDOF 4
ENDMDL
MODEL 8
REMARK VINA RESULT:      -7.4      5.151      7.058
REMARK  Name = 
REMARK  5 active torsions:
REMARK  status: ('A' for Active; 'I' for Inactive)
REMARK    1  A    between atoms: C_1  and  C_2
REMARK    2  A    between atoms: C_2  and  C_3
REMARK    3  A    between atoms: C_3  and  N_4
REMARK    4  A    between atoms: C_3  and  C_15
REMARK    5  A    between atoms: N_4  and  C_5
REMARK                            x       y       z     vdW  Elec       q    Type
REMARK                         _______ _______ _______ _____ _____    ______ ____
ROOT
ATOM      1  N   UNL     1       2.433   6.444  20.577  0.00  0.00    +0.000 N 
ATOM      2  H   UNL     1       3.436   6.446  20.745  0.00  0.00    +0.000 HD
ENDROOT
BRANCH   1   3
ATOM      3  C   UNL     1       2.088   7.540  19.781  0.00  0.00    +0.000 A 
ATOM      4  N   UNL     1       2.486   7.612  18.493  0.00  0.00    +0.000 NA
ATOM      5  C   UNL     1       2.107   8.657  17.740  0.00  0.00    +0.000 A 
ATOM      6  N   UNL     1       1.355   9.695  18.111  0.00  0.00    +0.000 NA
ATOM      7  C   UNL     1       0.972   9.608  19.393  0.00  0.00    +0.000 A 
ATOM      8  S   UNL     1      -0.019  10.812  20.084  0.00  0.00    +0.000 S 
ATOM      9  C   UNL     1      -0.041  10.007  21.567  0.00  0.00    +0.000 A 
ATOM     10 BR   UNL     1      -0.979  10.638  23.062  0.00  0.00    +0.000 Br
ATOM     11  C   UNL     1       0.688   8.842  21.568  0.00  0.00    +0.000 A 
ATOM     12  C   UNL     1       1.292   8.592  20.285  0.00  0.00    +0.000 A 
ENDBRANCH   1   3
BRANCH   1  13
ATOM     13  C   UNL     1       1.916   5.123  20.207  0.00  0.00    +0.000 C 
BRANCH  13  14
ATOM     14  C   UNL     1       2.801   4.557  19.089  0.00  0.00    +0.000 A 
ATOM     15  C   UNL     1       2.226   4.072  17.903  0.00  0.00    +0.000 A 
ATOM     16  C   UNL     1       3.028   3.530  16.895  0.00  0.00    +0.000 A 
ATOM     17  C   UNL     1       4.412   3.467  17.055  0.00  0.00    +0.000 A 
ATOM     18  C   UNL     1       4.998   3.949  18.223  0.00  0.00    +0.000 A 
ATOM     19  C   UNL     1       4.200   4.491  19.231  0.00  0.00    +0.000 A 
ENDBRANCH  13  14
BRANCH  13  21
ATOM     20  C   UNL     1       1.359   2.753  21.127  0.00  0.00    +0.000 C 
ATOM     21  C   UNL     1       1.937   4.134  21.396  0.00  0.00    +0.000 C 
ENDBRANCH  13  21
ENDBRANCH   1  13
TORSDOF 4
ENDMDL
MODEL 9
REMARK VINA RESULT:      -7.4      3.280      6.560
REMARK  Name = 
REMARK  5 active torsions:
REMARK  status: ('A' for Active; 'I' for Inactive)
REMARK    1  A    between atoms: C_1  and  C_2
REMARK    2  A    between atoms: C_2  and  C_3
REMARK    3  A    between atoms: C_3  and  N_4
REMARK    4  A    between atoms: C_3  and  C_15
REMARK    5  A    between atoms: N_4  and  C_5
REMARK                            x       y       z     vdW  Elec       q    Type
REMARK                         _______ _______ _______ _____ _____    ______ ____
ROOT
ATOM      1  N   UNL     1       4.653   4.359  16.335  0.00  0.00    +0.000 N 
ATOM      2  H   UNL     1       4.333   3.528  15.843  0.00  0.00    +0.000 HD
ENDROOT
BRANCH   1   3
ATOM      3  C   UNL     1       4.126   4.372  17.629  0.00  0.00    +0.000 A 
ATOM      4  N   UNL     1       4.294   3.317  18.455  0.00  0.00    +0.000 NA
ATOM      5  C   UNL     1       3.811   3.372  19.707  0.00  0.00    +0.000 A 
ATOM      6  N   UNL     1       3.144   4.377  20.277  0.00  0.00    +0.000 NA
ATOM      7  C   UNL     1       2.984   5.414  19.441  0.00  0.00    +0.000 A 
ATOM      8  S   UNL     1       2.181   6.826  19.959  0.00  0.00    +0.000 S 
ATOM      9  C   UNL     1       2.408   7.561  18.456  0.00  0.00    +0.000 A 
ATOM     10 BR   UNL     1       1.815   9.295  18.063  0.00  0.00    +0.000 Br
ATOM     11  C   UNL     1       3.075   6.767  17.554  0.00  0.00    +0.000 A 
ATOM     12  C   UNL     1       3.425   5.493  18.126  0.00  0.00    +0.000 A 
ENDBRANCH   1   3
BRANCH   1  13
ATOM     13  C   UNL     1       6.088   4.610  16.164  0.00  0.00    +0.000 C 
BRANCH  13  14
ATOM     14  C   UNL     1       6.429   4.447  14.678  0.00  0.00    +0.000 A 
ATOM     15  C   UNL     1       7.482   5.179  14.105  0.00  0.00    +0.000 A 
ATOM     16  C   UNL     1       7.777   5.053  12.744  0.00  0.00    +0.000 A 
ATOM     17  C   UNL     1       7.028   4.195  11.939  0.00  0.00    +0.000 A 
ATOM     18  C   UNL     1       5.985   3.458  12.493  0.00  0.00    +0.000 A 
ATOM     19  C   UNL     1       5.689   3.581  13.851  0.00  0.00    +0.000 A 
ENDBRANCH  13  14
BRANCH  13  21
ATOM     20  C   UNL     1       7.459   6.131  17.770  0.00  0.00    +0.000 C 
ATOM     21  C   UNL     1       6.487   6.038  16.604  0.00  0.00    +0.000 C 
ENDBRANCH  13  21
ENDBRANCH   1  13
TORSDOF 4
ENDMDL
