MODEL 1
REMARK VINA RESULT:      -8.2      0.000      0.000
REMARK  Name = 
REMARK  10 active torsions:
REMARK  status: ('A' for Active; 'I' for Inactive)
REMARK    1  A    between atoms: CG1_1  and  CB_2
REMARK    2  A    between atoms: CB_2  and  CG2_3
REMARK    3  A    between atoms: CB_2  and  CA_4
REMARK    4  A    between atoms: CA_4  and  N_5
REMARK    5  A    between atoms: CA_4  and  C_30
REMARK    6  A    between atoms: C_6  and  C_8
REMARK    7  A    between atoms: C_11  and  C_12
REMARK    8  A    between atoms: C_15  and  N_16
REMARK    9  A    between atoms: N_19  and  C_20
REMARK   10  A    between atoms: C_30  and  OXT_32
REMARK                            x       y       z     vdW  Elec       q    Type
REMARK                         _______ _______ _______ _____ _____    ______ ____
ROOT
ATOM      1  C   UNK A   0       0.620   9.991  20.348  0.00  0.00    +0.000 A 
ATOM      2  C   UNK A   0       0.447  11.379  20.373  0.00  0.00    +0.000 A 
ATOM      3  C   UNK A   0      -0.324  11.994  21.369  0.00  0.00    +0.000 A 
ATOM      4  C   UNK A   0      -0.953  11.239  22.362  0.00  0.00    +0.000 A 
ATOM      5  C   UNK A   0      -0.728   9.862  22.389  0.00  0.00    +0.000 A 
ATOM      6  C   UNK A   0       0.040   9.243  21.385  0.00  0.00    +0.000 A 
ENDROOT
BRANCH   4   7
ATOM      7  N   UNK A   0      -1.800  11.821  23.339  0.00  0.00    +0.000 N 
ATOM      8  C   UNK A   0      -3.082  12.286  23.073  0.00  0.00    +0.000 C 
ATOM      9  O   UNK A   0      -3.668  12.153  22.004  0.00  0.00    +0.000 OA
ATOM     10  N   UNK A   0      -3.622  12.952  24.167  0.00  0.00    +0.000 N 
ATOM     11  H   UNK A   0      -1.607  11.604  24.305  0.00  0.00    +0.000 HD
ATOM     12  H   UNK A   0      -2.945  13.474  24.705  0.00  0.00    +0.000 HD
BRANCH  10  13
ATOM     13  C   UNK A   0      -4.936  13.481  24.119  0.00  0.00    +0.000 A 
ATOM     14  C   UNK A   0      -6.062  12.659  24.266  0.00  0.00    +0.000 A 
ATOM     15  C   UNK A   0      -7.349  13.190  24.158  0.00  0.00    +0.000 A 
ATOM     16  C   UNK A   0      -7.518  14.546  23.887  0.00  0.00    +0.000 A 
ATOM     17  C   UNK A   0      -6.398  15.365  23.754  0.00  0.00    +0.000 A 
ATOM     18 CL   UNK A   0      -6.606  17.032  23.373  0.00  0.00    +0.000 Cl
ATOM     19  C   UNK A   0      -5.108  14.848  23.896  0.00  0.00    +0.000 A 
ENDBRANCH  10  13
ENDBRANCH   4   7
BRANCH   1  23
ATOM     20  C   UNK A   0       2.496   7.777  18.302  0.00  0.00    +0.000 A 
ATOM     21  N   UNK A   0       2.434   8.712  17.365  0.00  0.00    +0.000 NA
ATOM     22  C   UNK A   0       1.700   9.710  17.967  0.00  0.00    +0.000 A 
ATOM     23  C   UNK A   0       1.369   9.365  19.262  0.00  0.00    +0.000 A 
ATOM     24  O   UNK A   0       1.884   8.112  19.482  0.00  0.00    +0.000 OA
BRANCH  20  26
ATOM     25  N   VAL A   1       2.615   5.479  18.971  0.00  0.00    +0.000 N 
ATOM     26  C   UNK A   0       3.151   6.484  18.159  0.00  0.00    +0.000 C 
ATOM     27  O   UNK A   0       4.077   6.260  17.381  0.00  0.00    +0.000 OA
ATOM     28  H   VAL A   1       1.669   5.712  19.269  0.00  0.00    +0.000 HD
BRANCH  25  29
ATOM     29  CA  VAL A   1       3.018   4.074  18.769  0.00  0.00    +0.000 C 
BRANCH  29  31
ATOM     30  CG1 VAL A   1       4.282   2.285  20.097  0.00  0.00    +0.000 C 
ATOM     31  CB  VAL A   1       3.140   3.306  20.116  0.00  0.00    +0.000 C 
ATOM     32  CG2 VAL A   1       1.842   2.630  20.567  0.00  0.00    +0.000 C 
ENDBRANCH  29  31
BRANCH  29  33
ATOM     33  C   VAL A   1       2.110   3.338  17.764  0.00  0.00    +0.000 C 
ATOM     34  O   VAL A   1       2.370   2.239  17.281  0.00  0.00    +0.000 OA
BRANCH  33  35
ATOM     35  OXT VAL A   1       0.952   3.979  17.474  0.00  0.00    +0.000 OA
ATOM     36  HXT VAL A   1       0.253   3.387  17.146  0.00  0.00    +0.000 HD
ENDBRANCH  33  35
ENDBRANCH  29  33
ENDBRANCH  25  29
ENDBRANCH  20  26
ENDBRANCH   1  23
TORSDOF 8
ENDMDL
MODEL 2
REMARK VINA RESULT:      -8.1      4.671      5.878
REMARK  Name = 
REMARK  10 active torsions:
REMARK  status: ('A' for Active; 'I' for Inactive)
REMARK    1  A    between atoms: CG1_1  and  CB_2
REMARK    2  A    between atoms: CB_2  and  CG2_3
REMARK    3  A    between atoms: CB_2  and  CA_4
REMARK    4  A    between atoms: CA_4  and  N_5
REMARK    5  A    between atoms: CA_4  and  C_30
REMARK    6  A    between atoms: C_6  and  C_8
REMARK    7  A    between atoms: C_11  and  C_12
REMARK    8  A    between atoms: C_15  and  N_16
REMARK    9  A    between atoms: N_19  and  C_20
REMARK   10  A    between atoms: C_30  and  OXT_32
REMARK                            x       y       z     vdW  Elec       q    Type
REMARK                         _______ _______ _______ _____ _____    ______ ____
ROOT
ATOM      1  C   UNK A   0       1.709   8.037  19.886  0.00  0.00    +0.000 A 
ATOM      2  C   UNK A   0       1.762   8.727  18.670  0.00  0.00    +0.000 A 
ATOM      3  C   UNK A   0       1.216  10.011  18.542  0.00  0.00    +0.000 A 
ATOM      4  C   UNK A   0       0.592  10.639  19.623  0.00  0.00    +0.000 A 
ATOM      5  C   UNK A   0       0.596   9.991  20.859  0.00  0.00    +0.000 A 
ATOM      6  C   UNK A   0       1.138   8.697  20.986  0.00  0.00    +0.000 A 
ENDROOT
BRANCH   4   7
ATOM      7  N   UNK A   0      -0.037  11.905  19.508  0.00  0.00    +0.000 N 
ATOM      8  C   UNK A   0       0.644  13.115  19.562  0.00  0.00    +0.000 C 
ATOM      9  O   UNK A   0       1.864  13.230  19.605  0.00  0.00    +0.000 OA
ATOM     10  N   UNK A   0      -0.231  14.194  19.588  0.00  0.00    +0.000 N 
ATOM     11  H   UNK A   0      -0.940  11.933  19.058  0.00  0.00    +0.000 HD
ATOM     12  H   UNK A   0      -1.086  14.017  20.097  0.00  0.00    +0.000 HD
BRANCH  10  13
ATOM     13  C   UNK A   0       0.257  15.524  19.613  0.00  0.00    +0.000 A 
ATOM     14  C   UNK A   0       0.611  16.152  20.815  0.00  0.00    +0.000 A 
ATOM     15  C   UNK A   0       1.036  17.482  20.825  0.00  0.00    +0.000 A 
ATOM     16  C   UNK A   0       1.096  18.198  19.631  0.00  0.00    +0.000 A 
ATOM     17  C   UNK A   0       0.757  17.569  18.434  0.00  0.00    +0.000 A 
ATOM     18 CL   UNK A   0       0.786  18.468  16.965  0.00  0.00    +0.000 Cl
ATOM     19  C   UNK A   0       0.365  16.229  18.413  0.00  0.00    +0.000 A 
ENDBRANCH  10  13
ENDBRANCH   4   7
BRANCH   1  23
ATOM     20  C   UNK A   0       3.541   5.023  19.479  0.00  0.00    +0.000 A 
ATOM     21  N   UNK A   0       2.756   4.509  20.415  0.00  0.00    +0.000 NA
ATOM     22  C   UNK A   0       1.933   5.562  20.747  0.00  0.00    +0.000 A 
ATOM     23  C   UNK A   0       2.221   6.672  19.978  0.00  0.00    +0.000 A 
ATOM     24  O   UNK A   0       3.262   6.326  19.156  0.00  0.00    +0.000 OA
BRANCH  20  26
ATOM     25  N   VAL A   1       5.050   4.925  17.620  0.00  0.00    +0.000 N 
ATOM     26  C   UNK A   0       4.621   4.316  18.804  0.00  0.00    +0.000 C 
ATOM     27  O   UNK A   0       5.147   3.288  19.229  0.00  0.00    +0.000 OA
ATOM     28  H   VAL A   1       4.786   5.909  17.595  0.00  0.00    +0.000 HD
BRANCH  25  29
ATOM     29  CA  VAL A   1       6.280   4.456  16.954  0.00  0.00    +0.000 C 
BRANCH  29  31
ATOM     30  CG1 VAL A   1       5.382   6.081  15.189  0.00  0.00    +0.000 C 
ATOM     31  CB  VAL A   1       6.359   4.936  15.476  0.00  0.00    +0.000 C 
ATOM     32  CG2 VAL A   1       6.170   3.818  14.447  0.00  0.00    +0.000 C 
ENDBRANCH  29  31
BRANCH  29  33
ATOM     33  C   VAL A   1       7.554   4.815  17.746  0.00  0.00    +0.000 C 
ATOM     34  O   VAL A   1       8.517   4.064  17.873  0.00  0.00    +0.000 OA
BRANCH  33  35
ATOM     35  OXT VAL A   1       7.560   6.064  18.270  0.00  0.00    +0.000 OA
ATOM     36  HXT VAL A   1       7.549   6.766  17.598  0.00  0.00    +0.000 HD
ENDBRANCH  33  35
ENDBRANCH  29  33
ENDBRANCH  25  29
ENDBRANCH  20  26
ENDBRANCH   1  23
TORSDOF 8
ENDMDL
MODEL 3
REMARK VINA RESULT:      -8.0      1.863      2.526
REMARK  Name = 
REMARK  10 active torsions:
REMARK  status: ('A' for Active; 'I' for Inactive)
REMARK    1  A    between atoms: CG1_1  and  CB_2
REMARK    2  A    between atoms: CB_2  and  CG2_3
REMARK    3  A    between atoms: CB_2  and  CA_4
REMARK    4  A    between atoms: CA_4  and  N_5
REMARK    5  A    between atoms: CA_4  and  C_30
REMARK    6  A    between atoms: C_6  and  C_8
REMARK    7  A    between atoms: C_11  and  C_12
REMARK    8  A    between atoms: C_15  and  N_16
REMARK    9  A    between atoms: N_19  and  C_20
REMARK   10  A    between atoms: C_30  and  OXT_32
REMARK                            x       y       z     vdW  Elec       q    Type
REMARK                         _______ _______ _______ _____ _____    ______ ____
ROOT
ATOM      1  C   UNK A   0       0.681   9.794  20.379  0.00  0.00    +0.000 A 
ATOM      2  C   UNK A   0       0.581  11.185  20.485  0.00  0.00    +0.000 A 
ATOM      3  C   UNK A   0      -0.198  11.780  21.486  0.00  0.00    +0.000 A 
ATOM      4  C   UNK A   0      -0.908  11.002  22.404  0.00  0.00    +0.000 A 
ATOM      5  C   UNK A   0      -0.759   9.615  22.353  0.00  0.00    +0.000 A 
ATOM      6  C   UNK A   0       0.018   9.017  21.342  0.00  0.00    +0.000 A 
ENDROOT
BRANCH   4   7
ATOM      7  N   UNK A   0      -1.764  11.570  23.381  0.00  0.00    +0.000 N 
ATOM      8  C   UNK A   0      -2.974  12.187  23.087  0.00  0.00    +0.000 C 
ATOM      9  O   UNK A   0      -3.490  12.220  21.975  0.00  0.00    +0.000 OA
ATOM     10  N   UNK A   0      -3.525  12.795  24.209  0.00  0.00    +0.000 N 
ATOM     11  H   UNK A   0      -1.664  11.241  24.330  0.00  0.00    +0.000 HD
ATOM     12  H   UNK A   0      -2.842  13.189  24.839  0.00  0.00    +0.000 HD
BRANCH  10  13
ATOM     13  C   UNK A   0      -4.775  13.458  24.134  0.00  0.00    +0.000 A 
ATOM     14  C   UNK A   0      -5.984  12.754  24.229  0.00  0.00    +0.000 A 
ATOM     15  C   UNK A   0      -7.205  13.418  24.095  0.00  0.00    +0.000 A 
ATOM     16  C   UNK A   0      -7.225  14.790  23.852  0.00  0.00    +0.000 A 
ATOM     17  C   UNK A   0      -6.023  15.491  23.772  0.00  0.00    +0.000 A 
ATOM     18 CL   UNK A   0      -6.046  17.178  23.425  0.00  0.00    +0.000 Cl
ATOM     19  C   UNK A   0      -4.798  14.839  23.939  0.00  0.00    +0.000 A 
ENDBRANCH  10  13
ENDBRANCH   4   7
BRANCH   1  23
ATOM     20  C   UNK A   0       2.587   7.635  18.302  0.00  0.00    +0.000 A 
ATOM     21  N   UNK A   0       2.522   8.587  17.382  0.00  0.00    +0.000 NA
ATOM     22  C   UNK A   0       1.776   9.567  17.999  0.00  0.00    +0.000 A 
ATOM     23  C   UNK A   0       1.441   9.194  19.285  0.00  0.00    +0.000 A 
ATOM     24  O   UNK A   0       1.966   7.943  19.484  0.00  0.00    +0.000 OA
BRANCH  20  26
ATOM     25  N   VAL A   1       4.540   6.440  17.594  0.00  0.00    +0.000 N 
ATOM     26  C   UNK A   0       3.255   6.350  18.138  0.00  0.00    +0.000 C 
ATOM     27  O   UNK A   0       2.766   5.270  18.466  0.00  0.00    +0.000 OA
ATOM     28  H   VAL A   1       4.926   7.375  17.712  0.00  0.00    +0.000 HD
BRANCH  25  29
ATOM     29  CA  VAL A   1       5.421   5.256  17.584  0.00  0.00    +0.000 C 
BRANCH  29  31
ATOM     30  CG1 VAL A   1       7.790   4.428  17.069  0.00  0.00    +0.000 C 
ATOM     31  CB  VAL A   1       6.753   5.530  16.828  0.00  0.00    +0.000 C 
ATOM     32  CG2 VAL A   1       7.367   6.901  17.127  0.00  0.00    +0.000 C 
ENDBRANCH  29  31
BRANCH  29  33
ATOM     33  C   VAL A   1       5.664   4.689  18.997  0.00  0.00    +0.000 C 
ATOM     34  O   VAL A   1       6.233   5.304  19.894  0.00  0.00    +0.000 OA
BRANCH  33  35
ATOM     35  OXT VAL A   1       5.156   3.450  19.204  0.00  0.00    +0.000 OA
ATOM     36  HXT VAL A   1       4.227   3.456  19.493  0.00  0.00    +0.000 HD
ENDBRANCH  33  35
ENDBRANCH  29  33
ENDBRANCH  25  29
ENDBRANCH  20  26
ENDBRANCH   1  23
TORSDOF 8
ENDMDL
MODEL 4
REMARK VINA RESULT:      -7.9      2.966      4.380
REMARK  Name = 
REMARK  10 active torsions:
REMARK  status: ('A' for Active; 'I' for Inactive)
REMARK    1  A    between atoms: CG1_1  and  CB_2
REMARK    2  A    between atoms: CB_2  and  CG2_3
REMARK    3  A    between atoms: CB_2  and  CA_4
REMARK    4  A    between atoms: CA_4  and  N_5
REMARK    5  A    between atoms: CA_4  and  C_30
REMARK    6  A    between atoms: C_6  and  C_8
REMARK    7  A    between atoms: C_11  and  C_12
REMARK    8  A    between atoms: C_15  and  N_16
REMARK    9  A    between atoms: N_19  and  C_20
REMARK   10  A    between atoms: C_30  and  OXT_32
REMARK                            x       y       z     vdW  Elec       q    Type
REMARK                         _______ _______ _______ _____ _____    ______ ____
ROOT
ATOM      1  C   UNK A   0       1.641   7.627  20.504  0.00  0.00    +0.000 A 
ATOM      2  C   UNK A   0       1.242   8.026  21.785  0.00  0.00    +0.000 A 
ATOM      3  C   UNK A   0       0.762   9.322  22.022  0.00  0.00    +0.000 A 
ATOM      4  C   UNK A   0       0.677  10.259  20.990  0.00  0.00    +0.000 A 
ATOM      5  C   UNK A   0       1.003   9.850  19.695  0.00  0.00    +0.000 A 
ATOM      6  C   UNK A   0       1.492   8.551  19.458  0.00  0.00    +0.000 A 
ENDROOT
BRANCH   4   7
ATOM      7  N   UNK A   0       0.267  11.598  21.209  0.00  0.00    +0.000 N 
ATOM      8  C   UNK A   0      -0.546  11.997  22.262  0.00  0.00    +0.000 C 
ATOM      9  O   UNK A   0      -0.914  11.268  23.177  0.00  0.00    +0.000 OA
ATOM     10  N   UNK A   0      -0.922  13.329  22.144  0.00  0.00    +0.000 N 
ATOM     11  H   UNK A   0       0.829  12.326  20.793  0.00  0.00    +0.000 HD
ATOM     12  H   UNK A   0      -1.063  13.633  21.190  0.00  0.00    +0.000 HD
BRANCH  10  13
ATOM     13  C   UNK A   0      -1.729  13.947  23.131  0.00  0.00    +0.000 A 
ATOM     14  C   UNK A   0      -3.128  13.859  23.093  0.00  0.00    +0.000 A 
ATOM     15  C   UNK A   0      -3.908  14.522  24.042  0.00  0.00    +0.000 A 
ATOM     16  C   UNK A   0      -3.293  15.290  25.029  0.00  0.00    +0.000 A 
ATOM     17  C   UNK A   0      -1.902  15.366  25.074  0.00  0.00    +0.000 A 
ATOM     18 CL   UNK A   0      -1.145  16.354  26.265  0.00  0.00    +0.000 Cl
ATOM     19  C   UNK A   0      -1.115  14.677  24.149  0.00  0.00    +0.000 A 
ENDBRANCH  10  13
ENDBRANCH   4   7
BRANCH   1  23
ATOM     20  C   UNK A   0       3.652   4.864  19.544  0.00  0.00    +0.000 A 
ATOM     21  N   UNK A   0       2.789   4.104  20.202  0.00  0.00    +0.000 NA
ATOM     22  C   UNK A   0       1.882   5.016  20.696  0.00  0.00    +0.000 A 
ATOM     23  C   UNK A   0       2.204   6.296  20.293  0.00  0.00    +0.000 A 
ATOM     24  O   UNK A   0       3.351   6.201  19.546  0.00  0.00    +0.000 OA
BRANCH  20  26
ATOM     25  N   VAL A   1       4.915   4.780  17.508  0.00  0.00    +0.000 N 
ATOM     26  C   UNK A   0       4.838   4.382  18.847  0.00  0.00    +0.000 C 
ATOM     27  O   UNK A   0       5.722   3.706  19.371  0.00  0.00    +0.000 OA
ATOM     28  H   VAL A   1       4.330   5.595  17.332  0.00  0.00    +0.000 HD
BRANCH  25  29
ATOM     29  CA  VAL A   1       6.160   4.565  16.746  0.00  0.00    +0.000 C 
BRANCH  29  31
ATOM     30  CG1 VAL A   1       5.149   6.409  15.282  0.00  0.00    +0.000 C 
ATOM     31  CB  VAL A   1       6.087   5.198  15.326  0.00  0.00    +0.000 C 
ATOM     32  CG2 VAL A   1       5.713   4.207  14.221  0.00  0.00    +0.000 C 
ENDBRANCH  29  31
BRANCH  29  33
ATOM     33  C   VAL A   1       7.412   5.024  17.519  0.00  0.00    +0.000 C 
ATOM     34  O   VAL A   1       7.604   6.177  17.893  0.00  0.00    +0.000 OA
BRANCH  33  35
ATOM     35  OXT VAL A   1       8.293   4.034  17.806  0.00  0.00    +0.000 OA
ATOM     36  HXT VAL A   1       8.499   3.466  17.044  0.00  0.00    +0.000 HD
ENDBRANCH  33  35
ENDBRANCH  29  33
ENDBRANCH  25  29
ENDBRANCH  20  26
ENDBRANCH   1  23
TORSDOF 8
ENDMDL
MODEL 5
REMARK VINA RESULT:      -7.9      3.771      5.628
REMARK  Name = 
REMARK  10 active torsions:
REMARK  status: ('A' for Active; 'I' for Inactive)
REMARK    1  A    between atoms: CG1_1  and  CB_2
REMARK    2  A    between atoms: CB_2  and  CG2_3
REMARK    3  A    between atoms: CB_2  and  CA_4
REMARK    4  A    between atoms: CA_4  and  N_5
REMARK    5  A    between atoms: CA_4  and  C_30
REMARK    6  A    between atoms: C_6  and  C_8
REMARK    7  A    between atoms: C_11  and  C_12
REMARK    8  A    between atoms: C_15  and  N_16
REMARK    9  A    between atoms: N_19  and  C_20
REMARK   10  A    between atoms: C_30  and  OXT_32
REMARK                            x       y       z     vdW  Elec       q    Type
REMARK                         _______ _______ _______ _____ _____    ______ ____
ROOT
ATOM      1  C   UNK A   0       2.555   6.554  18.343  0.00  0.00    +0.000 A 
ATOM      2  C   UNK A   0       2.285   6.635  19.713  0.00  0.00    +0.000 A 
ATOM      3  C   UNK A   0       1.797   7.817  20.286  0.00  0.00    +0.000 A 
ATOM      4  C   UNK A   0       1.576   8.956  19.508  0.00  0.00    +0.000 A 
ATOM      5  C   UNK A   0       1.774   8.866  18.129  0.00  0.00    +0.000 A 
ATOM      6  C   UNK A   0       2.270   7.680  17.555  0.00  0.00    +0.000 A 
ENDROOT
BRANCH   4   7
ATOM      7  N   UNK A   0       1.156  10.190  20.066  0.00  0.00    +0.000 N 
ATOM      8  C   UNK A   0      -0.106  10.405  20.608  0.00  0.00    +0.000 C 
ATOM      9  O   UNK A   0      -0.957   9.536  20.766  0.00  0.00    +0.000 OA
ATOM     10  N   UNK A   0      -0.303  11.742  20.932  0.00  0.00    +0.000 N 
ATOM     11  H   UNK A   0       1.876  10.827  20.374  0.00  0.00    +0.000 HD
ATOM     12  H   UNK A   0       0.144  12.388  20.297  0.00  0.00    +0.000 HD
BRANCH  10  13
ATOM     13  C   UNK A   0      -1.514  12.173  21.527  0.00  0.00    +0.000 A 
ATOM     14  C   UNK A   0      -1.710  12.116  22.914  0.00  0.00    +0.000 A 
ATOM     15  C   UNK A   0      -2.932  12.492  23.476  0.00  0.00    +0.000 A 
ATOM     16  C   UNK A   0      -3.972  12.915  22.651  0.00  0.00    +0.000 A 
ATOM     17  C   UNK A   0      -3.772  12.984  21.273  0.00  0.00    +0.000 A 
ATOM     18 CL   UNK A   0      -5.073  13.462  20.250  0.00  0.00    +0.000 Cl
ATOM     19  C   UNK A   0      -2.541  12.643  20.707  0.00  0.00    +0.000 A 
ENDBRANCH  10  13
ENDBRANCH   4   7
BRANCH   1  23
ATOM     20  C   UNK A   0       4.590   4.171  16.673  0.00  0.00    +0.000 A 
ATOM     21  N   UNK A   0       3.731   3.255  17.097  0.00  0.00    +0.000 NA
ATOM     22  C   UNK A   0       2.817   3.991  17.817  0.00  0.00    +0.000 A 
ATOM     23  C   UNK A   0       3.129   5.335  17.779  0.00  0.00    +0.000 A 
ATOM     24  O   UNK A   0       4.278   5.455  17.039  0.00  0.00    +0.000 OA
BRANCH  20  26
ATOM     25  N   VAL A   1       5.568   3.971  14.494  0.00  0.00    +0.000 N 
ATOM     26  C   UNK A   0       5.780   3.905  15.876  0.00  0.00    +0.000 C 
ATOM     27  O   UNK A   0       6.891   3.669  16.348  0.00  0.00    +0.000 OA
ATOM     28  H   VAL A   1       4.732   4.509  14.275  0.00  0.00    +0.000 HD
BRANCH  25  29
ATOM     29  CA  VAL A   1       6.718   3.953  13.571  0.00  0.00    +0.000 C 
BRANCH  29  31
ATOM     30  CG1 VAL A   1       4.784   3.341  12.007  0.00  0.00    +0.000 C 
ATOM     31  CB  VAL A   1       6.291   3.595  12.118  0.00  0.00    +0.000 C 
ATOM     32  CG2 VAL A   1       7.065   2.420  11.513  0.00  0.00    +0.000 C 
ENDBRANCH  29  31
BRANCH  29  33
ATOM     33  C   VAL A   1       7.539   5.257  13.626  0.00  0.00    +0.000 C 
ATOM     34  O   VAL A   1       7.932   5.864  12.633  0.00  0.00    +0.000 OA
BRANCH  33  35
ATOM     35  OXT VAL A   1       7.769   5.728  14.875  0.00  0.00    +0.000 OA
ATOM     36  HXT VAL A   1       8.694   5.637  15.160  0.00  0.00    +0.000 HD
ENDBRANCH  33  35
ENDBRANCH  29  33
ENDBRANCH  25  29
ENDBRANCH  20  26
ENDBRANCH   1  23
TORSDOF 8
ENDMDL
MODEL 6
REMARK VINA RESULT:      -7.9      2.814      4.317
REMARK  Name = 
REMARK  10 active torsions:
REMARK  status: ('A' for Active; 'I' for Inactive)
REMARK    1  A    between atoms: CG1_1  and  CB_2
REMARK    2  A    between atoms: CB_2  and  CG2_3
REMARK    3  A    between atoms: CB_2  and  CA_4
REMARK    4  A    between atoms: CA_4  and  N_5
REMARK    5  A    between atoms: CA_4  and  C_30
REMARK    6  A    between atoms: C_6  and  C_8
REMARK    7  A    between atoms: C_11  and  C_12
REMARK    8  A    between atoms: C_15  and  N_16
REMARK    9  A    between atoms: N_19  and  C_20
REMARK   10  A    between atoms: C_30  and  OXT_32
REMARK                            x       y       z     vdW  Elec       q    Type
REMARK                         _______ _______ _______ _____ _____    ______ ____
ROOT
ATOM      1  C   UNK A   0       1.568   7.681  20.479  0.00  0.00    +0.000 A 
ATOM      2  C   UNK A   0       1.178   8.093  21.758  0.00  0.00    +0.000 A 
ATOM      3  C   UNK A   0       0.760   9.409  21.998  0.00  0.00    +0.000 A 
ATOM      4  C   UNK A   0       0.730  10.355  20.970  0.00  0.00    +0.000 A 
ATOM      5  C   UNK A   0       1.048   9.937  19.676  0.00  0.00    +0.000 A 
ATOM      6  C   UNK A   0       1.475   8.617  19.436  0.00  0.00    +0.000 A 
ENDROOT
BRANCH   4   7
ATOM      7  N   UNK A   0       0.385  11.712  21.192  0.00  0.00    +0.000 N 
ATOM      8  C   UNK A   0      -0.458  12.139  22.210  0.00  0.00    +0.000 C 
ATOM      9  O   UNK A   0      -0.912  11.418  23.092  0.00  0.00    +0.000 OA
ATOM     10  N   UNK A   0      -0.752  13.493  22.097  0.00  0.00    +0.000 N 
ATOM     11  H   UNK A   0       1.008  12.413  20.819  0.00  0.00    +0.000 HD
ATOM     12  H   UNK A   0      -0.827  13.818  21.143  0.00  0.00    +0.000 HD
BRANCH  10  13
ATOM     13  C   UNK A   0      -1.574  14.139  23.053  0.00  0.00    +0.000 A 
ATOM     14  C   UNK A   0      -1.026  14.820  24.149  0.00  0.00    +0.000 A 
ATOM     15  C   UNK A   0      -1.854  15.402  25.111  0.00  0.00    +0.000 A 
ATOM     16  C   UNK A   0      -3.238  15.293  24.990  0.00  0.00    +0.000 A 
ATOM     17  C   UNK A   0      -3.783  14.628  23.893  0.00  0.00    +0.000 A 
ATOM     18 CL   UNK A   0      -5.492  14.454  23.769  0.00  0.00    +0.000 Cl
ATOM     19  C   UNK A   0      -2.961  14.074  22.909  0.00  0.00    +0.000 A 
ENDBRANCH  10  13
ENDBRANCH   4   7
BRANCH   1  23
ATOM     20  C   UNK A   0       3.454   4.827  19.529  0.00  0.00    +0.000 A 
ATOM     21  N   UNK A   0       2.542   4.107  20.166  0.00  0.00    +0.000 NA
ATOM     22  C   UNK A   0       1.674   5.060  20.652  0.00  0.00    +0.000 A 
ATOM     23  C   UNK A   0       2.067   6.325  20.266  0.00  0.00    +0.000 A 
ATOM     24  O   UNK A   0       3.220   6.178  19.538  0.00  0.00    +0.000 OA
BRANCH  20  26
ATOM     25  N   VAL A   1       4.873   4.868  17.598  0.00  0.00    +0.000 N 
ATOM     26  C   UNK A   0       4.626   4.291  18.848  0.00  0.00    +0.000 C 
ATOM     27  O   UNK A   0       5.364   3.428  19.318  0.00  0.00    +0.000 OA
ATOM     28  H   VAL A   1       4.416   5.775  17.513  0.00  0.00    +0.000 HD
BRANCH  25  29
ATOM     29  CA  VAL A   1       6.143   4.595  16.899  0.00  0.00    +0.000 C 
BRANCH  29  31
ATOM     30  CG1 VAL A   1       5.241   6.440  15.367  0.00  0.00    +0.000 C 
ATOM     31  CB  VAL A   1       6.170   5.227  15.477  0.00  0.00    +0.000 C 
ATOM     32  CG2 VAL A   1       5.871   4.234  14.350  0.00  0.00    +0.000 C 
ENDBRANCH  29  31
BRANCH  29  33
ATOM     33  C   VAL A   1       7.375   4.999  17.734  0.00  0.00    +0.000 C 
ATOM     34  O   VAL A   1       7.477   6.064  18.336  0.00  0.00    +0.000 OA
BRANCH  33  35
ATOM     35  OXT VAL A   1       8.348   4.058  17.798  0.00  0.00    +0.000 OA
ATOM     36  HXT VAL A   1       8.880   4.105  18.611  0.00  0.00    +0.000 HD
ENDBRANCH  33  35
ENDBRANCH  29  33
ENDBRANCH  25  29
ENDBRANCH  20  26
ENDBRANCH   1  23
TORSDOF 8
ENDMDL
MODEL 7
REMARK VINA RESULT:      -7.8      2.729      3.339
REMARK  Name = 
REMARK  10 active torsions:
REMARK  status: ('A' for Active; 'I' for Inactive)
REMARK    1  A    between atoms: CG1_1  and  CB_2
REMARK    2  A    between atoms: CB_2  and  CG2_3
REMARK    3  A    between atoms: CB_2  and  CA_4
REMARK    4  A    between atoms: CA_4  and  N_5
REMARK    5  A    between atoms: CA_4  and  C_30
REMARK    6  A    between atoms: C_6  and  C_8
REMARK    7  A    between atoms: C_11  and  C_12
REMARK    8  A    between atoms: C_15  and  N_16
REMARK    9  A    between atoms: N_19  and  C_20
REMARK   10  A    between atoms: C_30  and  OXT_32
REMARK                            x       y       z     vdW  Elec       q    Type
REMARK                         _______ _______ _______ _____ _____    ______ ____
ROOT
ATOM      1  C   UNK A   0       0.367   9.992  20.340  0.00  0.00    +0.000 A 
ATOM      2  C   UNK A   0       0.376   9.728  21.714  0.00  0.00    +0.000 A 
ATOM      3  C   UNK A   0      -0.388  10.496  22.604  0.00  0.00    +0.000 A 
ATOM      4  C   UNK A   0      -1.174  11.557  22.147  0.00  0.00    +0.000 A 
ATOM      5  C   UNK A   0      -1.247  11.784  20.772  0.00  0.00    +0.000 A 
ATOM      6  C   UNK A   0      -0.474  11.017  19.879  0.00  0.00    +0.000 A 
ENDROOT
BRANCH   4   7
ATOM      7  N   UNK A   0      -1.899  12.400  23.026  0.00  0.00    +0.000 N 
ATOM      8  C   UNK A   0      -1.446  13.640  23.460  0.00  0.00    +0.000 C 
ATOM      9  O   UNK A   0      -0.429  14.194  23.055  0.00  0.00    +0.000 OA
ATOM     10  N   UNK A   0      -2.276  14.176  24.437  0.00  0.00    +0.000 N 
ATOM     11  H   UNK A   0      -2.897  12.257  23.086  0.00  0.00    +0.000 HD
ATOM     12  H   UNK A   0      -2.678  13.487  25.057  0.00  0.00    +0.000 HD
BRANCH  10  13
ATOM     13  C   UNK A   0      -2.010  15.451  24.995  0.00  0.00    +0.000 A 
ATOM     14  C   UNK A   0      -2.504  16.624  24.409  0.00  0.00    +0.000 A 
ATOM     15  C   UNK A   0      -2.184  17.875  24.942  0.00  0.00    +0.000 A 
ATOM     16  C   UNK A   0      -1.354  17.960  26.058  0.00  0.00    +0.000 A 
ATOM     17  C   UNK A   0      -0.874  16.792  26.648  0.00  0.00    +0.000 A 
ATOM     18 CL   UNK A   0       0.190  16.900  27.999  0.00  0.00    +0.000 Cl
ATOM     19  C   UNK A   0      -1.219  15.537  26.142  0.00  0.00    +0.000 A 
ENDBRANCH  10  13
ENDBRANCH   4   7
BRANCH   1  23
ATOM     20  C   UNK A   0       2.485   7.555  18.864  0.00  0.00    +0.000 A 
ATOM     21  N   UNK A   0       2.465   8.308  17.774  0.00  0.00    +0.000 NA
ATOM     22  C   UNK A   0       1.648   9.357  18.133  0.00  0.00    +0.000 A 
ATOM     23  C   UNK A   0       1.225   9.226  19.441  0.00  0.00    +0.000 A 
ATOM     24  O   UNK A   0       1.766   8.058  19.917  0.00  0.00    +0.000 OA
BRANCH  20  26
ATOM     25  N   VAL A   1       2.376   5.205  19.327  0.00  0.00    +0.000 N 
ATOM     26  C   UNK A   0       3.197   6.291  19.002  0.00  0.00    +0.000 C 
ATOM     27  O   UNK A   0       4.407   6.156  18.828  0.00  0.00    +0.000 OA
ATOM     28  H   VAL A   1       1.404   5.394  19.088  0.00  0.00    +0.000 HD
BRANCH  25  29
ATOM     29  CA  VAL A   1       2.914   3.833  19.273  0.00  0.00    +0.000 C 
BRANCH  29  31
ATOM     30  CG1 VAL A   1       0.541   3.016  19.785  0.00  0.00    +0.000 C 
ATOM     31  CB  VAL A   1       2.034   2.833  20.076  0.00  0.00    +0.000 C 
ATOM     32  CG2 VAL A   1       2.279   2.862  21.587  0.00  0.00    +0.000 C 
ENDBRANCH  29  31
BRANCH  29  33
ATOM     33  C   VAL A   1       3.162   3.353  17.829  0.00  0.00    +0.000 C 
ATOM     34  O   VAL A   1       2.276   3.205  16.993  0.00  0.00    +0.000 OA
BRANCH  33  35
ATOM     35  OXT VAL A   1       4.464   3.140  17.520  0.00  0.00    +0.000 OA
ATOM     36  HXT VAL A   1       5.057   3.185  18.290  0.00  0.00    +0.000 HD
ENDBRANCH  33  35
ENDBRANCH  29  33
ENDBRANCH  25  29
ENDBRANCH  20  26
ENDBRANCH   1  23
TORSDOF 8
ENDMDL
MODEL 8
REMARK VINA RESULT:      -7.7      3.077      4.400
REMARK  Name = 
REMARK  10 active torsions:
REMARK  status: ('A' for Active; 'I' for Inactive)
REMARK    1  A    between atoms: CG1_1  and  CB_2
REMARK    2  A    between atoms: CB_2  and  CG2_3
REMARK    3  A    between atoms: CB_2  and  CA_4
REMARK    4  A    between atoms: CA_4  and  N_5
REMARK    5  A    between atoms: CA_4  and  C_30
REMARK    6  A    between atoms: C_6  and  C_8
REMARK    7  A    between atoms: C_11  and  C_12
REMARK    8  A    between atoms: C_15  and  N_16
REMARK    9  A    between atoms: N_19  and  C_20
REMARK   10  A    between atoms: C_30  and  OXT_32
REMARK                            x       y       z     vdW  Elec       q    Type
REMARK                         _______ _______ _______ _____ _____    ______ ____
ROOT
ATOM      1  C   UNK A   0       1.792   7.751  20.202  0.00  0.00    +0.000 A 
ATOM      2  C   UNK A   0       1.630   8.664  19.154  0.00  0.00    +0.000 A 
ATOM      3  C   UNK A   0       1.132   9.953  19.387  0.00  0.00    +0.000 A 
ATOM      4  C   UNK A   0       0.771  10.364  20.673  0.00  0.00    +0.000 A 
ATOM      5  C   UNK A   0       0.996   9.488  21.736  0.00  0.00    +0.000 A 
ATOM      6  C   UNK A   0       1.490   8.190  21.501  0.00  0.00    +0.000 A 
ENDROOT
BRANCH   4   7
ATOM      7  N   UNK A   0       0.194  11.632  20.933  0.00  0.00    +0.000 N 
ATOM      8  C   UNK A   0      -0.459  11.958  22.116  0.00  0.00    +0.000 C 
ATOM      9  O   UNK A   0      -0.519  11.235  23.104  0.00  0.00    +0.000 OA
ATOM     10  N   UNK A   0      -1.066  13.206  22.039  0.00  0.00    +0.000 N 
ATOM     11  H   UNK A   0       0.537  12.415  20.396  0.00  0.00    +0.000 HD
ATOM     12  H   UNK A   0      -1.435  13.426  21.124  0.00  0.00    +0.000 HD
BRANCH  10  13
ATOM     13  C   UNK A   0      -1.762  13.744  23.149  0.00  0.00    +0.000 A 
ATOM     14  C   UNK A   0      -3.111  13.443  23.384  0.00  0.00    +0.000 A 
ATOM     15  C   UNK A   0      -3.795  14.029  24.452  0.00  0.00    +0.000 A 
ATOM     16  C   UNK A   0      -3.136  14.932  25.284  0.00  0.00    +0.000 A 
ATOM     17  C   UNK A   0      -1.791  15.221  25.057  0.00  0.00    +0.000 A 
ATOM     18 CL   UNK A   0      -0.991  16.372  26.057  0.00  0.00    +0.000 Cl
ATOM     19  C   UNK A   0      -1.092  14.612  24.013  0.00  0.00    +0.000 A 
ENDBRANCH  10  13
ENDBRANCH   4   7
BRANCH   1  23
ATOM     20  C   UNK A   0       3.608   4.883  19.162  0.00  0.00    +0.000 A 
ATOM     21  N   UNK A   0       2.635   4.165  19.705  0.00  0.00    +0.000 NA
ATOM     22  C   UNK A   0       1.783   5.122  20.208  0.00  0.00    +0.000 A 
ATOM     23  C   UNK A   0       2.246   6.391  19.926  0.00  0.00    +0.000 A 
ATOM     24  O   UNK A   0       3.429   6.239  19.248  0.00  0.00    +0.000 OA
BRANCH  20  26
ATOM     25  N   VAL A   1       4.909   4.694  17.158  0.00  0.00    +0.000 N 
ATOM     26  C   UNK A   0       4.791   4.341  18.507  0.00  0.00    +0.000 C 
ATOM     27  O   UNK A   0       5.640   3.653  19.071  0.00  0.00    +0.000 OA
ATOM     28  H   VAL A   1       4.356   5.522  16.945  0.00  0.00    +0.000 HD
BRANCH  25  29
ATOM     29  CA  VAL A   1       6.162   4.414  16.431  0.00  0.00    +0.000 C 
BRANCH  29  31
ATOM     30  CG1 VAL A   1       5.173   3.952  14.113  0.00  0.00    +0.000 C 
ATOM     31  CB  VAL A   1       6.081   4.864  14.944  0.00  0.00    +0.000 C 
ATOM     32  CG2 VAL A   1       7.445   5.006  14.262  0.00  0.00    +0.000 C 
ENDBRANCH  29  31
BRANCH  29  33
ATOM     33  C   VAL A   1       7.401   4.992  17.143  0.00  0.00    +0.000 C 
ATOM     34  O   VAL A   1       7.611   6.193  17.288  0.00  0.00    +0.000 OA
BRANCH  33  35
ATOM     35  OXT VAL A   1       8.245   4.062  17.653  0.00  0.00    +0.000 OA
ATOM     36  HXT VAL A   1       8.172   3.195  17.220  0.00  0.00    +0.000 HD
ENDBRANCH  33  35
ENDBRANCH  29  33
ENDBRANCH  25  29
ENDBRANCH  20  26
ENDBRANCH   1  23
TORSDOF 8
ENDMDL
MODEL 9
REMARK VINA RESULT:      -7.7      3.052      3.745
REMARK  Name = 
REMARK  10 active torsions:
REMARK  status: ('A' for Active; 'I' for Inactive)
REMARK    1  A    between atoms: CG1_1  and  CB_2
REMARK    2  A    between atoms: CB_2  and  CG2_3
REMARK    3  A    between atoms: CB_2  and  CA_4
REMARK    4  A    between atoms: CA_4  and  N_5
REMARK    5  A    between atoms: CA_4  and  C_30
REMARK    6  A    between atoms: C_6  and  C_8
REMARK    7  A    between atoms: C_11  and  C_12
REMARK    8  A    between atoms: C_15  and  N_16
REMARK    9  A    between atoms: N_19  and  C_20
REMARK   10  A    between atoms: C_30  and  OXT_32
REMARK                            x       y       z     vdW  Elec       q    Type
REMARK                         _______ _______ _______ _____ _____    ______ ____
ROOT
ATOM      1  C   UNK A   0       0.513  10.064  20.575  0.00  0.00    +0.000 A 
ATOM      2  C   UNK A   0      -0.019  11.225  20.005  0.00  0.00    +0.000 A 
ATOM      3  C   UNK A   0      -0.772  12.127  20.770  0.00  0.00    +0.000 A 
ATOM      4  C   UNK A   0      -1.022  11.890  22.124  0.00  0.00    +0.000 A 
ATOM      5  C   UNK A   0      -0.435  10.772  22.720  0.00  0.00    +0.000 A 
ATOM      6  C   UNK A   0       0.314   9.862  21.950  0.00  0.00    +0.000 A 
ENDROOT
BRANCH   4   7
ATOM      7  N   UNK A   0      -1.841  12.742  22.908  0.00  0.00    +0.000 N 
ATOM      8  C   UNK A   0      -1.406  13.941  23.458  0.00  0.00    +0.000 C 
ATOM      9  O   UNK A   0      -0.312  14.453  23.245  0.00  0.00    +0.000 OA
ATOM     10  N   UNK A   0      -2.358  14.488  24.310  0.00  0.00    +0.000 N 
ATOM     11  H   UNK A   0      -2.840  12.648  22.800  0.00  0.00    +0.000 HD
ATOM     12  H   UNK A   0      -2.888  13.802  24.828  0.00  0.00    +0.000 HD
BRANCH  10  13
ATOM     13  C   UNK A   0      -2.128  15.729  24.954  0.00  0.00    +0.000 A 
ATOM     14  C   UNK A   0      -2.666  16.924  24.457  0.00  0.00    +0.000 A 
ATOM     15  C   UNK A   0      -2.381  18.144  25.073  0.00  0.00    +0.000 A 
ATOM     16  C   UNK A   0      -1.541  18.178  26.185  0.00  0.00    +0.000 A 
ATOM     17  C   UNK A   0      -1.017  16.988  26.687  0.00  0.00    +0.000 A 
ATOM     18 CL   UNK A   0       0.057  17.035  28.033  0.00  0.00    +0.000 Cl
ATOM     19  C   UNK A   0      -1.327  15.760  26.097  0.00  0.00    +0.000 A 
ENDBRANCH  10  13
ENDBRANCH   4   7
BRANCH   1  23
ATOM     20  C   UNK A   0       2.271   7.242  19.329  0.00  0.00    +0.000 A 
ATOM     21  N   UNK A   0       2.276   7.859  18.156  0.00  0.00    +0.000 NA
ATOM     22  C   UNK A   0       1.599   9.030  18.415  0.00  0.00    +0.000 A 
ATOM     23  C   UNK A   0       1.233   9.103  19.744  0.00  0.00    +0.000 A 
ATOM     24  O   UNK A   0       1.667   7.945  20.339  0.00  0.00    +0.000 OA
BRANCH  20  26
ATOM     25  N   VAL A   1       3.902   5.587  18.741  0.00  0.00    +0.000 N 
ATOM     26  C   UNK A   0       2.846   5.929  19.593  0.00  0.00    +0.000 C 
ATOM     27  O   UNK A   0       2.475   5.180  20.495  0.00  0.00    +0.000 OA
ATOM     28  H   VAL A   1       4.311   6.415  18.311  0.00  0.00    +0.000 HD
BRANCH  25  29
ATOM     29  CA  VAL A   1       4.728   4.400  19.032  0.00  0.00    +0.000 C 
BRANCH  29  31
ATOM     30  CG1 VAL A   1       3.504   3.629  16.917  0.00  0.00    +0.000 C 
ATOM     31  CB  VAL A   1       4.363   3.200  18.111  0.00  0.00    +0.000 C 
ATOM     32  CG2 VAL A   1       3.694   2.034  18.844  0.00  0.00    +0.000 C 
ENDBRANCH  29  31
BRANCH  29  33
ATOM     33  C   VAL A   1       6.238   4.710  19.005  0.00  0.00    +0.000 C 
ATOM     34  O   VAL A   1       6.808   5.417  19.830  0.00  0.00    +0.000 OA
BRANCH  33  35
ATOM     35  OXT VAL A   1       6.923   4.099  18.008  0.00  0.00    +0.000 OA
ATOM     36  HXT VAL A   1       7.090   4.676  17.242  0.00  0.00    +0.000 HD
ENDBRANCH  33  35
ENDBRANCH  29  33
ENDBRANCH  25  29
ENDBRANCH  20  26
ENDBRANCH   1  23
TORSDOF 8
ENDMDL
