MODEL 1
REMARK VINA RESULT:      -7.9      0.000      0.000
REMARK  Name = 
REMARK  5 active torsions:
REMARK  status: ('A' for Active; 'I' for Inactive)
REMARK    1  A    between atoms: C_1  and  C_2
REMARK    2  A    between atoms: C_3  and  C_4
REMARK    3  A    between atoms: C_13  and  C_14
REMARK    4  A    between atoms: C_14  and  N_15
REMARK    5  A    between atoms: N_29  and  C_30
REMARK                            x       y       z     vdW  Elec       q    Type
REMARK                         _______ _______ _______ _____ _____    ______ ____
ROOT
ATOM      1  C   UNL     1       0.328  13.423  18.804  0.00  0.00    +0.000 C 
ATOM      2  O   UNL     1      -0.515  13.788  17.985  0.00  0.00    +0.000 OA
ATOM      3  N   UNL     1       0.012  12.486  19.791  0.00  0.00    +0.000 N 
ATOM      4  C   UNL     1      -1.231  11.727  19.687  0.00  0.00    +0.000 C 
ATOM      5  C   UNL     1      -0.919  10.227  19.632  0.00  0.00    +0.000 C 
ATOM      6  C   UNL     1      -0.014   9.782  20.779  0.00  0.00    +0.000 C 
ATOM      7  C   UNL     1       1.173  10.703  21.030  0.00  0.00    +0.000 C 
ATOM      8  C   UNL     1       0.773  12.183  21.000  0.00  0.00    +0.000 C 
ATOM      9  C   UNL     1      -0.636   9.068  21.960  0.00  0.00    +0.000 C 
ATOM     10  C   UNL     1       0.164   8.271  20.960  0.00  0.00    +0.000 C 
ENDROOT
BRANCH   1  13
ATOM     11  C   UNL     1       1.440  16.366  19.705  0.00  0.00    +0.000 C 
ATOM     12  C   UNL     1       2.142  15.204  19.098  0.00  0.00    +0.000 A 
ATOM     13  C   UNL     1       1.694  13.939  18.725  0.00  0.00    +0.000 A 
ATOM     14  C   UNL     1       2.836  13.350  18.135  0.00  0.00    +0.000 A 
ATOM     15  N   UNL     1       3.922  14.119  18.197  0.00  0.00    +0.000 NA
ATOM     16  N   UNL     1       3.472  15.252  18.757  0.00  0.00    +0.000 N 
ATOM     17  C   UNL     1       4.372  16.376  18.877  0.00  0.00    +0.000 C 
ENDBRANCH   1  13
BRANCH  10  18
ATOM     18  C   UNL     1       1.446   7.614  21.389  0.00  0.00    +0.000 C 
BRANCH  18  19
ATOM     19  N   UNL     1       2.232   7.260  20.222  0.00  0.00    +0.000 N 
ATOM     20  C   UNL     1       2.631   5.960  20.027  0.00  0.00    +0.000 C 
ATOM     21  O   UNL     1       2.387   5.056  20.821  0.00  0.00    +0.000 OA
ATOM     22  N   UNL     1       3.323   5.761  18.856  0.00  0.00    +0.000 N 
ATOM     23  C   UNL     1       3.756   4.423  18.445  0.00  0.00    +0.000 C 
ATOM     24  C   UNL     1       4.478   4.678  17.157  0.00  0.00    +0.000 A 
ATOM     25  C   UNL     1       5.010   3.790  16.244  0.00  0.00    +0.000 A 
ATOM     26  C   UNL     1       5.632   4.344  15.132  0.00  0.00    +0.000 A 
ATOM     27  N   UNL     1       5.750   5.679  14.898  0.00  0.00    +0.000 NA
ATOM     28  C   UNL     1       5.222   6.517  15.816  0.00  0.00    +0.000 A 
ATOM     29  C   UNL     1       4.582   6.053  16.938  0.00  0.00    +0.000 A 
ATOM     30  C   UNL     1       3.931   6.811  18.036  0.00  0.00    +0.000 C 
ATOM     31  H   UNL     1       1.943   7.709  19.367  0.00  0.00    +0.000 HD
ENDBRANCH  18  19
ENDBRANCH  10  18
TORSDOF 3
ENDMDL
MODEL 2
REMARK VINA RESULT:      -7.8      3.835      5.829
REMARK  Name = 
REMARK  5 active torsions:
REMARK  status: ('A' for Active; 'I' for Inactive)
REMARK    1  A    between atoms: C_1  and  C_2
REMARK    2  A    between atoms: C_3  and  C_4
REMARK    3  A    between atoms: C_13  and  C_14
REMARK    4  A    between atoms: C_14  and  N_15
REMARK    5  A    between atoms: N_29  and  C_30
REMARK                            x       y       z     vdW  Elec       q    Type
REMARK                         _______ _______ _______ _____ _____    ______ ____
ROOT
ATOM      1  C   UNL     1      -4.805  12.749  21.878  0.00  0.00    +0.000 C 
ATOM      2  O   UNL     1      -5.268  12.632  23.012  0.00  0.00    +0.000 OA
ATOM      3  N   UNL     1      -3.434  12.925  21.676  0.00  0.00    +0.000 N 
ATOM      4  C   UNL     1      -2.510  12.693  22.784  0.00  0.00    +0.000 C 
ATOM      5  C   UNL     1      -1.512  11.593  22.404  0.00  0.00    +0.000 C 
ATOM      6  C   UNL     1      -0.822  11.875  21.070  0.00  0.00    +0.000 C 
ATOM      7  C   UNL     1      -1.766  12.332  19.965  0.00  0.00    +0.000 C 
ATOM      8  C   UNL     1      -2.769  13.382  20.458  0.00  0.00    +0.000 C 
ATOM      9  C   UNL     1       0.591  12.417  21.083  0.00  0.00    +0.000 C 
ATOM     10  C   UNL     1       0.363  10.973  20.712  0.00  0.00    +0.000 C 
ENDROOT
BRANCH   1  13
ATOM     11  C   UNL     1      -6.084  15.189  20.111  0.00  0.00    +0.000 C 
ATOM     12  C   UNL     1      -6.236  13.715  19.989  0.00  0.00    +0.000 A 
ATOM     13  C   UNL     1      -5.688  12.660  20.715  0.00  0.00    +0.000 A 
ATOM     14  C   UNL     1      -6.300  11.520  20.146  0.00  0.00    +0.000 A 
ATOM     15  N   UNL     1      -7.091  11.801  19.113  0.00  0.00    +0.000 NA
ATOM     16  N   UNL     1      -7.063  13.142  19.053  0.00  0.00    +0.000 N 
ATOM     17  C   UNL     1      -7.915  13.816  18.100  0.00  0.00    +0.000 C 
ENDBRANCH   1  13
BRANCH  10  18
ATOM     18  C   UNL     1       0.681  10.504  19.320  0.00  0.00    +0.000 C 
BRANCH  18  19
ATOM     19  N   UNL     1       1.309   9.197  19.372  0.00  0.00    +0.000 N 
ATOM     20  C   UNL     1       2.039   8.739  18.302  0.00  0.00    +0.000 C 
ATOM     21  O   UNL     1       2.171   9.372  17.258  0.00  0.00    +0.000 OA
ATOM     22  N   UNL     1       2.620   7.510  18.511  0.00  0.00    +0.000 N 
ATOM     23  C   UNL     1       3.501   6.904  17.509  0.00  0.00    +0.000 C 
ATOM     24  C   UNL     1       3.871   5.591  18.129  0.00  0.00    +0.000 A 
ATOM     25  C   UNL     1       4.768   4.630  17.709  0.00  0.00    +0.000 A 
ATOM     26  C   UNL     1       4.886   3.502  18.511  0.00  0.00    +0.000 A 
ATOM     27  N   UNL     1       4.184   3.291  19.657  0.00  0.00    +0.000 NA
ATOM     28  C   UNL     1       3.312   4.252  20.034  0.00  0.00    +0.000 A 
ATOM     29  C   UNL     1       3.141   5.401  19.304  0.00  0.00    +0.000 A 
ATOM     30  C   UNL     1       2.254   6.563  19.565  0.00  0.00    +0.000 C 
ATOM     31  H   UNL     1       1.732   8.968  20.257  0.00  0.00    +0.000 HD
ENDBRANCH  18  19
ENDBRANCH  10  18
TORSDOF 3
ENDMDL
MODEL 3
REMARK VINA RESULT:      -7.7      2.120      2.879
REMARK  Name = 
REMARK  5 active torsions:
REMARK  status: ('A' for Active; 'I' for Inactive)
REMARK    1  A    between atoms: C_1  and  C_2
REMARK    2  A    between atoms: C_3  and  C_4
REMARK    3  A    between atoms: C_13  and  C_14
REMARK    4  A    between atoms: C_14  and  N_15
REMARK    5  A    between atoms: N_29  and  C_30
REMARK                            x       y       z     vdW  Elec       q    Type
REMARK                         _______ _______ _______ _____ _____    ______ ____
ROOT
ATOM      1  C   UNL     1       0.195  14.741  19.027  0.00  0.00    +0.000 C 
ATOM      2  O   UNL     1      -0.697  15.045  18.235  0.00  0.00    +0.000 OA
ATOM      3  N   UNL     1      -0.060  13.886  20.101  0.00  0.00    +0.000 N 
ATOM      4  C   UNL     1      -1.308  13.128  20.135  0.00  0.00    +0.000 C 
ATOM      5  C   UNL     1      -1.001  11.627  20.178  0.00  0.00    +0.000 C 
ATOM      6  C   UNL     1      -0.027  11.268  21.299  0.00  0.00    +0.000 C 
ATOM      7  C   UNL     1       1.174  12.199  21.402  0.00  0.00    +0.000 C 
ATOM      8  C   UNL     1       0.775  13.674  21.281  0.00  0.00    +0.000 C 
ATOM      9  C   UNL     1      -0.575  10.653  22.569  0.00  0.00    +0.000 C 
ATOM     10  C   UNL     1       0.160   9.775  21.587  0.00  0.00    +0.000 C 
ENDROOT
BRANCH   1  13
ATOM     11  C   UNL     1       2.847  13.072  18.084  0.00  0.00    +0.000 C 
ATOM     12  C   UNL     1       2.674  14.506  18.438  0.00  0.00    +0.000 A 
ATOM     13  C   UNL     1       1.554  15.241  18.822  0.00  0.00    +0.000 A 
ATOM     14  C   UNL     1       2.083  16.523  19.094  0.00  0.00    +0.000 A 
ATOM     15  N   UNL     1       3.385  16.627  18.833  0.00  0.00    +0.000 NA
ATOM     16  N   UNL     1       3.731  15.383  18.465  0.00  0.00    +0.000 N 
ATOM     17  C   UNL     1       5.124  15.092  18.213  0.00  0.00    +0.000 C 
ENDBRANCH   1  13
BRANCH  10  18
ATOM     18  C   UNL     1       1.465   9.145  21.985  0.00  0.00    +0.000 C 
BRANCH  18  19
ATOM     19  N   UNL     1       1.560   7.811  21.424  0.00  0.00    +0.000 N 
ATOM     20  C   UNL     1       1.876   7.641  20.098  0.00  0.00    +0.000 C 
ATOM     21  O   UNL     1       2.057   8.578  19.324  0.00  0.00    +0.000 OA
ATOM     22  N   UNL     1       1.983   6.325  19.716  0.00  0.00    +0.000 N 
ATOM     23  C   UNL     1       2.394   5.956  18.359  0.00  0.00    +0.000 C 
ATOM     24  C   UNL     1       2.346   4.459  18.382  0.00  0.00    +0.000 A 
ATOM     25  C   UNL     1       2.736   3.541  17.427  0.00  0.00    +0.000 A 
ATOM     26  C   UNL     1       2.559   2.201  17.749  0.00  0.00    +0.000 A 
ATOM     27  N   UNL     1       2.031   1.750  18.920  0.00  0.00    +0.000 NA
ATOM     28  C   UNL     1       1.657   2.678  19.828  0.00  0.00    +0.000 A 
ATOM     29  C   UNL     1       1.806   4.022  19.593  0.00  0.00    +0.000 A 
ATOM     30  C   UNL     1       1.474   5.176  20.467  0.00  0.00    +0.000 C 
ATOM     31  H   UNL     1       2.009   7.134  22.019  0.00  0.00    +0.000 HD
ENDBRANCH  18  19
ENDBRANCH  10  18
TORSDOF 3
ENDMDL
MODEL 4
REMARK VINA RESULT:      -7.6      3.328      5.144
REMARK  Name = 
REMARK  5 active torsions:
REMARK  status: ('A' for Active; 'I' for Inactive)
REMARK    1  A    between atoms: C_1  and  C_2
REMARK    2  A    between atoms: C_3  and  C_4
REMARK    3  A    between atoms: C_13  and  C_14
REMARK    4  A    between atoms: C_14  and  N_15
REMARK    5  A    between atoms: N_29  and  C_30
REMARK                            x       y       z     vdW  Elec       q    Type
REMARK                         _______ _______ _______ _____ _____    ______ ____
ROOT
ATOM      1  C   UNL     1      -2.889  14.357  21.795  0.00  0.00    +0.000 C 
ATOM      2  O   UNL     1      -2.615  15.533  22.033  0.00  0.00    +0.000 OA
ATOM      3  N   UNL     1      -2.223  13.655  20.787  0.00  0.00    +0.000 N 
ATOM      4  C   UNL     1      -1.011  14.220  20.200  0.00  0.00    +0.000 C 
ATOM      5  C   UNL     1       0.163  13.255  20.405  0.00  0.00    +0.000 C 
ATOM      6  C   UNL     1      -0.160  11.842  19.922  0.00  0.00    +0.000 C 
ATOM      7  C   UNL     1      -1.528  11.333  20.356  0.00  0.00    +0.000 C 
ATOM      8  C   UNL     1      -2.623  12.390  20.176  0.00  0.00    +0.000 C 
ATOM      9  C   UNL     1       0.390  11.387  18.587  0.00  0.00    +0.000 C 
ATOM     10  C   UNL     1       1.014  10.861  19.855  0.00  0.00    +0.000 C 
ENDROOT
BRANCH   1  13
ATOM     11  C   UNL     1      -6.135  14.771  21.789  0.00  0.00    +0.000 C 
ATOM     12  C   UNL     1      -5.270  13.869  22.595  0.00  0.00    +0.000 A 
ATOM     13  C   UNL     1      -3.892  13.662  22.601  0.00  0.00    +0.000 A 
ATOM     14  C   UNL     1      -3.706  12.740  23.656  0.00  0.00    +0.000 A 
ATOM     15  N   UNL     1      -4.844  12.332  24.212  0.00  0.00    +0.000 NA
ATOM     16  N   UNL     1      -5.780  13.052  23.575  0.00  0.00    +0.000 N 
ATOM     17  C   UNL     1      -7.155  12.951  24.009  0.00  0.00    +0.000 C 
ENDBRANCH   1  13
BRANCH  10  18
ATOM     18  C   UNL     1       0.915   9.396  20.180  0.00  0.00    +0.000 C 
BRANCH  18  19
ATOM     19  N   UNL     1       1.795   8.638  19.311  0.00  0.00    +0.000 N 
ATOM     20  C   UNL     1       2.112   7.337  19.617  0.00  0.00    +0.000 C 
ATOM     21  O   UNL     1       1.712   6.767  20.628  0.00  0.00    +0.000 OA
ATOM     22  N   UNL     1       2.911   6.726  18.680  0.00  0.00    +0.000 N 
ATOM     23  C   UNL     1       3.282   5.313  18.800  0.00  0.00    +0.000 C 
ATOM     24  C   UNL     1       4.159   5.087  17.607  0.00  0.00    +0.000 A 
ATOM     25  C   UNL     1       4.718   3.922  17.120  0.00  0.00    +0.000 A 
ATOM     26  C   UNL     1       5.500   4.041  15.979  0.00  0.00    +0.000 A 
ATOM     27  N   UNL     1       5.747   5.211  15.328  0.00  0.00    +0.000 NA
ATOM     28  C   UNL     1       5.186   6.330  15.836  0.00  0.00    +0.000 A 
ATOM     29  C   UNL     1       4.393   6.300  16.956  0.00  0.00    +0.000 A 
ATOM     30  C   UNL     1       3.685   7.410  17.643  0.00  0.00    +0.000 C 
ATOM     31  H   UNL     1       1.638   8.778  18.326  0.00  0.00    +0.000 HD
ENDBRANCH  18  19
ENDBRANCH  10  18
TORSDOF 3
ENDMDL
MODEL 5
REMARK VINA RESULT:      -7.4      3.349      4.765
REMARK  Name = 
REMARK  5 active torsions:
REMARK  status: ('A' for Active; 'I' for Inactive)
REMARK    1  A    between atoms: C_1  and  C_2
REMARK    2  A    between atoms: C_3  and  C_4
REMARK    3  A    between atoms: C_13  and  C_14
REMARK    4  A    between atoms: C_14  and  N_15
REMARK    5  A    between atoms: N_29  and  C_30
REMARK                            x       y       z     vdW  Elec       q    Type
REMARK                         _______ _______ _______ _____ _____    ______ ____
ROOT
ATOM      1  C   UNL     1      -2.735  14.041  21.684  0.00  0.00    +0.000 C 
ATOM      2  O   UNL     1      -3.693  14.685  21.257  0.00  0.00    +0.000 OA
ATOM      3  N   UNL     1      -2.410  12.795  21.143  0.00  0.00    +0.000 N 
ATOM      4  C   UNL     1      -3.027  12.373  19.889  0.00  0.00    +0.000 C 
ATOM      5  C   UNL     1      -1.941  12.107  18.840  0.00  0.00    +0.000 C 
ATOM      6  C   UNL     1      -0.865  11.152  19.353  0.00  0.00    +0.000 C 
ATOM      7  C   UNL     1      -0.374  11.465  20.761  0.00  0.00    +0.000 C 
ATOM      8  C   UNL     1      -1.527  11.783  21.719  0.00  0.00    +0.000 C 
ATOM      9  C   UNL     1      -0.904   9.706  18.907  0.00  0.00    +0.000 C 
ATOM     10  C   UNL     1       0.132  10.628  18.315  0.00  0.00    +0.000 C 
ENDROOT
BRANCH   1  13
ATOM     11  C   UNL     1      -3.396  14.299  24.879  0.00  0.00    +0.000 C 
ATOM     12  C   UNL     1      -2.203  14.715  24.094  0.00  0.00    +0.000 A 
ATOM     13  C   UNL     1      -1.893  14.599  22.741  0.00  0.00    +0.000 A 
ATOM     14  C   UNL     1      -0.652  15.268  22.633  0.00  0.00    +0.000 A 
ATOM     15  N   UNL     1      -0.175  15.695  23.801  0.00  0.00    +0.000 NA
ATOM     16  N   UNL     1      -1.146  15.376  24.671  0.00  0.00    +0.000 N 
ATOM     17  C   UNL     1      -1.017  15.801  26.046  0.00  0.00    +0.000 C 
ENDBRANCH   1  13
BRANCH  10  18
ATOM     18  C   UNL     1       1.590  10.381  18.588  0.00  0.00    +0.000 C 
BRANCH  18  19
ATOM     19  N   UNL     1       1.777   9.027  19.075  0.00  0.00    +0.000 N 
ATOM     20  C   UNL     1       2.372   8.083  18.274  0.00  0.00    +0.000 C 
ATOM     21  O   UNL     1       2.736   8.309  17.123  0.00  0.00    +0.000 OA
ATOM     22  N   UNL     1       2.532   6.860  18.882  0.00  0.00    +0.000 N 
ATOM     23  C   UNL     1       3.221   5.758  18.206  0.00  0.00    +0.000 C 
ATOM     24  C   UNL     1       3.138   4.641  19.202  0.00  0.00    +0.000 A 
ATOM     25  C   UNL     1       3.709   3.384  19.179  0.00  0.00    +0.000 A 
ATOM     26  C   UNL     1       3.438   2.563  20.266  0.00  0.00    +0.000 A 
ATOM     27  N   UNL     1       2.658   2.913  21.325  0.00  0.00    +0.000 NA
ATOM     28  C   UNL     1       2.114   4.150  21.310  0.00  0.00    +0.000 A 
ATOM     29  C   UNL     1       2.339   5.027  20.279  0.00  0.00    +0.000 A 
ATOM     30  C   UNL     1       1.847   6.417  20.098  0.00  0.00    +0.000 C 
ATOM     31  H   UNL     1       2.072   8.962  20.036  0.00  0.00    +0.000 HD
ENDBRANCH  18  19
ENDBRANCH  10  18
TORSDOF 3
ENDMDL
MODEL 6
REMARK VINA RESULT:      -7.4      3.845      5.656
REMARK  Name = 
REMARK  5 active torsions:
REMARK  status: ('A' for Active; 'I' for Inactive)
REMARK    1  A    between atoms: C_1  and  C_2
REMARK    2  A    between atoms: C_3  and  C_4
REMARK    3  A    between atoms: C_13  and  C_14
REMARK    4  A    between atoms: C_14  and  N_15
REMARK    5  A    between atoms: N_29  and  C_30
REMARK                            x       y       z     vdW  Elec       q    Type
REMARK                         _______ _______ _______ _____ _____    ______ ____
ROOT
ATOM      1  C   UNL     1      -3.949  13.701  22.701  0.00  0.00    +0.000 C 
ATOM      2  O   UNL     1      -4.102  13.848  23.913  0.00  0.00    +0.000 OA
ATOM      3  N   UNL     1      -2.674  13.552  22.151  0.00  0.00    +0.000 N 
ATOM      4  C   UNL     1      -1.539  13.291  23.031  0.00  0.00    +0.000 C 
ATOM      5  C   UNL     1      -0.879  11.962  22.646  0.00  0.00    +0.000 C 
ATOM      6  C   UNL     1      -0.537  11.896  21.158  0.00  0.00    +0.000 C 
ATOM      7  C   UNL     1      -1.654  12.379  20.241  0.00  0.00    +0.000 C 
ATOM      8  C   UNL     1      -2.296  13.677  20.745  0.00  0.00    +0.000 C 
ATOM      9  C   UNL     1       0.897  12.123  20.731  0.00  0.00    +0.000 C 
ATOM     10  C   UNL     1       0.339  10.722  20.712  0.00  0.00    +0.000 C 
ENDROOT
BRANCH   1  13
ATOM     11  C   UNL     1      -5.467  16.155  21.157  0.00  0.00    +0.000 C 
ATOM     12  C   UNL     1      -5.757  14.697  21.188  0.00  0.00    +0.000 A 
ATOM     13  C   UNL     1      -5.116  13.634  21.820  0.00  0.00    +0.000 A 
ATOM     14  C   UNL     1      -5.942  12.528  21.517  0.00  0.00    +0.000 A 
ATOM     15  N   UNL     1      -6.957  12.829  20.709  0.00  0.00    +0.000 NA
ATOM     16  N   UNL     1      -6.844  14.156  20.546  0.00  0.00    +0.000 N 
ATOM     17  C   UNL     1      -7.867  14.856  19.803  0.00  0.00    +0.000 C 
ENDBRANCH   1  13
BRANCH  10  18
ATOM     18  C   UNL     1       0.186  10.001  19.401  0.00  0.00    +0.000 C 
BRANCH  18  19
ATOM     19  N   UNL     1       1.113   8.886  19.342  0.00  0.00    +0.000 N 
ATOM     20  C   UNL     1       1.974   8.761  18.278  0.00  0.00    +0.000 C 
ATOM     21  O   UNL     1       1.986   9.538  17.328  0.00  0.00    +0.000 OA
ATOM     22  N   UNL     1       2.830   7.690  18.380  0.00  0.00    +0.000 N 
ATOM     23  C   UNL     1       3.871   7.449  17.376  0.00  0.00    +0.000 C 
ATOM     24  C   UNL     1       4.527   6.193  17.860  0.00  0.00    +0.000 A 
ATOM     25  C   UNL     1       5.649   5.537  17.392  0.00  0.00    +0.000 A 
ATOM     26  C   UNL     1       6.010   4.375  18.062  0.00  0.00    +0.000 A 
ATOM     27  N   UNL     1       5.338   3.854  19.124  0.00  0.00    +0.000 NA
ATOM     28  C   UNL     1       4.244   4.521  19.551  0.00  0.00    +0.000 A 
ATOM     29  C   UNL     1       3.823   5.681  18.952  0.00  0.00    +0.000 A 
ATOM     30  C   UNL     1       2.669   6.553  19.287  0.00  0.00    +0.000 C 
ATOM     31  H   UNL     1       1.546   8.651  20.220  0.00  0.00    +0.000 HD
ENDBRANCH  18  19
ENDBRANCH  10  18
TORSDOF 3
ENDMDL
MODEL 7
REMARK VINA RESULT:      -7.4      2.296      3.460
REMARK  Name = 
REMARK  5 active torsions:
REMARK  status: ('A' for Active; 'I' for Inactive)
REMARK    1  A    between atoms: C_1  and  C_2
REMARK    2  A    between atoms: C_3  and  C_4
REMARK    3  A    between atoms: C_13  and  C_14
REMARK    4  A    between atoms: C_14  and  N_15
REMARK    5  A    between atoms: N_29  and  C_30
REMARK                            x       y       z     vdW  Elec       q    Type
REMARK                         _______ _______ _______ _____ _____    ______ ____
ROOT
ATOM      1  C   UNL     1       0.128  15.386  19.564  0.00  0.00    +0.000 C 
ATOM      2  O   UNL     1      -0.873  16.034  19.259  0.00  0.00    +0.000 OA
ATOM      3  N   UNL     1       0.048  14.013  19.809  0.00  0.00    +0.000 N 
ATOM      4  C   UNL     1      -1.163  13.287  19.436  0.00  0.00    +0.000 C 
ATOM      5  C   UNL     1      -0.814  12.176  18.439  0.00  0.00    +0.000 C 
ATOM      6  C   UNL     1       0.315  11.280  18.943  0.00  0.00    +0.000 C 
ATOM      7  C   UNL     1       1.494  12.040  19.538  0.00  0.00    +0.000 C 
ATOM      8  C   UNL     1       1.044  13.172  20.468  0.00  0.00    +0.000 C 
ATOM      9  C   UNL     1      -0.035   9.925  19.519  0.00  0.00    +0.000 C 
ATOM     10  C   UNL     1       0.579  10.001  18.143  0.00  0.00    +0.000 C 
ENDROOT
BRANCH   1  13
ATOM     11  C   UNL     1       1.401  17.124  22.027  0.00  0.00    +0.000 C 
ATOM     12  C   UNL     1       1.946  16.796  20.683  0.00  0.00    +0.000 A 
ATOM     13  C   UNL     1       1.433  16.045  19.629  0.00  0.00    +0.000 A 
ATOM     14  C   UNL     1       2.406  16.197  18.615  0.00  0.00    +0.000 A 
ATOM     15  N   UNL     1       3.469  16.900  19.001  0.00  0.00    +0.000 NA
ATOM     16  N   UNL     1       3.157  17.280  20.249  0.00  0.00    +0.000 N 
ATOM     17  C   UNL     1       4.051  18.172  20.951  0.00  0.00    +0.000 C 
ENDBRANCH   1  13
BRANCH  10  18
ATOM     18  C   UNL     1       1.943   9.417  17.904  0.00  0.00    +0.000 C 
BRANCH  18  19
ATOM     19  N   UNL     1       2.070   8.157  18.612  0.00  0.00    +0.000 N 
ATOM     20  C   UNL     1       2.921   7.185  18.144  0.00  0.00    +0.000 C 
ATOM     21  O   UNL     1       3.577   7.306  17.113  0.00  0.00    +0.000 OA
ATOM     22  N   UNL     1       2.980   6.067  18.941  0.00  0.00    +0.000 N 
ATOM     23  C   UNL     1       3.897   4.964  18.640  0.00  0.00    +0.000 C 
ATOM     24  C   UNL     1       3.608   3.973  19.727  0.00  0.00    +0.000 A 
ATOM     25  C   UNL     1       4.238   2.785  20.038  0.00  0.00    +0.000 A 
ATOM     26  C   UNL     1       3.726   2.078  21.118  0.00  0.00    +0.000 A 
ATOM     27  N   UNL     1       2.662   2.475  21.868  0.00  0.00    +0.000 NA
ATOM     28  C   UNL     1       2.069   3.642  21.531  0.00  0.00    +0.000 A 
ATOM     29  C   UNL     1       2.518   4.406  20.483  0.00  0.00    +0.000 A 
ATOM     30  C   UNL     1       2.012   5.708  19.980  0.00  0.00    +0.000 C 
ATOM     31  H   UNL     1       2.089   8.237  19.616  0.00  0.00    +0.000 HD
ENDBRANCH  18  19
ENDBRANCH  10  18
TORSDOF 3
ENDMDL
MODEL 8
REMARK VINA RESULT:      -7.3      3.657      5.294
REMARK  Name = 
REMARK  5 active torsions:
REMARK  status: ('A' for Active; 'I' for Inactive)
REMARK    1  A    between atoms: C_1  and  C_2
REMARK    2  A    between atoms: C_3  and  C_4
REMARK    3  A    between atoms: C_13  and  C_14
REMARK    4  A    between atoms: C_14  and  N_15
REMARK    5  A    between atoms: N_29  and  C_30
REMARK                            x       y       z     vdW  Elec       q    Type
REMARK                         _______ _______ _______ _____ _____    ______ ____
ROOT
ATOM      1  C   UNL     1      -4.122  12.650  22.397  0.00  0.00    +0.000 C 
ATOM      2  O   UNL     1      -4.625  12.486  23.509  0.00  0.00    +0.000 OA
ATOM      3  N   UNL     1      -2.752  12.468  22.195  0.00  0.00    +0.000 N 
ATOM      4  C   UNL     1      -1.955  11.814  23.229  0.00  0.00    +0.000 C 
ATOM      5  C   UNL     1      -1.294  10.555  22.655  0.00  0.00    +0.000 C 
ATOM      6  C   UNL     1      -0.523  10.844  21.368  0.00  0.00    +0.000 C 
ATOM      7  C   UNL     1      -1.277  11.716  20.373  0.00  0.00    +0.000 C 
ATOM      8  C   UNL     1      -1.960  12.910  21.051  0.00  0.00    +0.000 C 
ATOM      9  C   UNL     1       0.984  10.962  21.435  0.00  0.00    +0.000 C 
ATOM     10  C   UNL     1       0.372   9.717  20.843  0.00  0.00    +0.000 C 
ENDROOT
BRANCH   1  13
ATOM     11  C   UNL     1      -5.272  15.594  21.547  0.00  0.00    +0.000 C 
ATOM     12  C   UNL     1      -5.463  14.257  20.924  0.00  0.00    +0.000 A 
ATOM     13  C   UNL     1      -4.969  12.997  21.256  0.00  0.00    +0.000 A 
ATOM     14  C   UNL     1      -5.595  12.145  20.319  0.00  0.00    +0.000 A 
ATOM     15  N   UNL     1      -6.343  12.793  19.428  0.00  0.00    +0.000 NA
ATOM     16  N   UNL     1      -6.274  14.071  19.832  0.00  0.00    +0.000 N 
ATOM     17  C   UNL     1      -7.075  15.062  19.150  0.00  0.00    +0.000 C 
ENDBRANCH   1  13
BRANCH  10  18
ATOM     18  C   UNL     1       0.579   9.407  19.387  0.00  0.00    +0.000 C 
BRANCH  18  19
ATOM     19  N   UNL     1       1.661   8.453  19.235  0.00  0.00    +0.000 N 
ATOM     20  C   UNL     1       2.368   8.395  18.058  0.00  0.00    +0.000 C 
ATOM     21  O   UNL     1       2.113   9.097  17.084  0.00  0.00    +0.000 OA
ATOM     22  N   UNL     1       3.397   7.483  18.074  0.00  0.00    +0.000 N 
ATOM     23  C   UNL     1       4.309   7.343  16.935  0.00  0.00    +0.000 C 
ATOM     24  C   UNL     1       5.230   6.244  17.367  0.00  0.00    +0.000 A 
ATOM     25  C   UNL     1       6.366   5.745  16.762  0.00  0.00    +0.000 A 
ATOM     26  C   UNL     1       7.010   4.704  17.419  0.00  0.00    +0.000 A 
ATOM     27  N   UNL     1       6.595   4.156  18.593  0.00  0.00    +0.000 NA
ATOM     28  C   UNL     1       5.477   4.667  19.153  0.00  0.00    +0.000 A 
ATOM     29  C   UNL     1       4.786   5.702  18.575  0.00  0.00    +0.000 A 
ATOM     30  C   UNL     1       3.562   6.400  19.045  0.00  0.00    +0.000 C 
ATOM     31  H   UNL     1       2.249   8.351  20.046  0.00  0.00    +0.000 HD
ENDBRANCH  18  19
ENDBRANCH  10  18
TORSDOF 3
ENDMDL
MODEL 9
REMARK VINA RESULT:      -7.3      2.897      5.015
REMARK  Name = 
REMARK  5 active torsions:
REMARK  status: ('A' for Active; 'I' for Inactive)
REMARK    1  A    between atoms: C_1  and  C_2
REMARK    2  A    between atoms: C_3  and  C_4
REMARK    3  A    between atoms: C_13  and  C_14
REMARK    4  A    between atoms: C_14  and  N_15
REMARK    5  A    between atoms: N_29  and  C_30
REMARK                            x       y       z     vdW  Elec       q    Type
REMARK                         _______ _______ _______ _____ _____    ______ ____
ROOT
ATOM      1  C   UNL     1      -3.441  13.344  20.132  0.00  0.00    +0.000 C 
ATOM      2  O   UNL     1      -3.548  14.446  20.671  0.00  0.00    +0.000 OA
ATOM      3  N   UNL     1      -2.187  12.822  19.808  0.00  0.00    +0.000 N 
ATOM      4  C   UNL     1      -0.986  13.448  20.355  0.00  0.00    +0.000 C 
ATOM      5  C   UNL     1      -0.200  12.426  21.183  0.00  0.00    +0.000 C 
ATOM      6  C   UNL     1       0.071  11.138  20.407  0.00  0.00    +0.000 C 
ATOM      7  C   UNL     1      -1.138  10.600  19.652  0.00  0.00    +0.000 C 
ATOM      8  C   UNL     1      -1.897  11.707  18.911  0.00  0.00    +0.000 C 
ATOM      9  C   UNL     1       1.447  10.923  19.813  0.00  0.00    +0.000 C 
ATOM     10  C   UNL     1       1.051  10.150  21.046  0.00  0.00    +0.000 C 
ENDROOT
BRANCH   1  13
ATOM     11  C   UNL     1      -5.970  12.747  22.122  0.00  0.00    +0.000 C 
ATOM     12  C   UNL     1      -5.692  12.287  20.735  0.00  0.00    +0.000 A 
ATOM     13  C   UNL     1      -4.636  12.543  19.864  0.00  0.00    +0.000 A 
ATOM     14  C   UNL     1      -4.936  11.739  18.742  0.00  0.00    +0.000 A 
ATOM     15  N   UNL     1      -6.100  11.099  18.842  0.00  0.00    +0.000 NA
ATOM     16  N   UNL     1      -6.529  11.422  20.073  0.00  0.00    +0.000 N 
ATOM     17  C   UNL     1      -7.733  10.802  20.576  0.00  0.00    +0.000 C 
ENDBRANCH   1  13
BRANCH  10  18
ATOM     18  C   UNL     1       0.915   8.655  20.974  0.00  0.00    +0.000 C 
BRANCH  18  19
ATOM     19  N   UNL     1       1.768   8.133  19.923  0.00  0.00    +0.000 N 
ATOM     20  C   UNL     1       2.118   6.804  19.914  0.00  0.00    +0.000 C 
ATOM     21  O   UNL     1       1.772   6.012  20.786  0.00  0.00    +0.000 OA
ATOM     22  N   UNL     1       2.884   6.439  18.833  0.00  0.00    +0.000 N 
ATOM     23  C   UNL     1       3.281   5.045  18.617  0.00  0.00    +0.000 C 
ATOM     24  C   UNL     1       4.109   5.115  17.370  0.00  0.00    +0.000 A 
ATOM     25  C   UNL     1       4.663   4.103  16.612  0.00  0.00    +0.000 A 
ATOM     26  C   UNL     1       5.392   4.494  15.496  0.00  0.00    +0.000 A 
ATOM     27  N   UNL     1       5.592   5.786  15.117  0.00  0.00    +0.000 NA
ATOM     28  C   UNL     1       5.037   6.749  15.885  0.00  0.00    +0.000 A 
ATOM     29  C   UNL     1       4.294   6.448  17.000  0.00  0.00    +0.000 A 
ATOM     30  C   UNL     1       3.601   7.358  17.947  0.00  0.00    +0.000 C 
ATOM     31  H   UNL     1       1.565   8.486  19.001  0.00  0.00    +0.000 HD
ENDBRANCH  18  19
ENDBRANCH  10  18
TORSDOF 3
ENDMDL
