MODEL 1
REMARK VINA RESULT:      -7.5      0.000      0.000
REMARK  Name = 
REMARK  3 active torsions:
REMARK  status: ('A' for Active; 'I' for Inactive)
REMARK    1  A    between atoms: N_3  and  C_4
REMARK    2  A    between atoms: C_9  and  N_10
REMARK    3  A    between atoms: N_18  and  C_19
REMARK                            x       y       z     vdW  Elec       q    Type
REMARK                         _______ _______ _______ _____ _____    ______ ____
ROOT
ATOM      1  C   UNL     1       7.353   6.360  18.020  0.00  0.00    +0.000 A 
ATOM      2  C   UNL     1       7.488   5.958  16.691  0.00  0.00    +0.000 A 
ATOM      3  C   UNL     1       6.622   5.005  16.141  0.00  0.00    +0.000 A 
ATOM      4  C   UNL     1       5.608   4.438  16.915  0.00  0.00    +0.000 A 
ATOM      5 CL   UNL     1       4.622   3.223  16.185  0.00  0.00    +0.000 Cl
ATOM      6  C   UNL     1       5.443   4.843  18.247  0.00  0.00    +0.000 A 
ATOM      7  C   UNL     1       6.311   5.811  18.785  0.00  0.00    +0.000 A 
ENDROOT
BRANCH   6   8
ATOM      8  N   UNL     1       4.443   4.323  19.126  0.00  0.00    +0.000 N 
ATOM      9  C   UNL     1       4.504   2.969  19.683  0.00  0.00    +0.000 C 
ATOM     10  C   UNL     1       3.125   2.347  19.460  0.00  0.00    +0.000 C 
ATOM     11  C   UNL     1       2.082   3.445  19.613  0.00  0.00    +0.000 C 
ATOM     12  S   UNL     1       2.879   4.964  19.111  0.00  0.00    +0.000 S 
ATOM     13  O   UNL     1       2.789   5.914  20.197  0.00  0.00    +0.000 OA
ATOM     14  O   UNL     1       2.479   5.296  17.764  0.00  0.00    +0.000 OA
ENDBRANCH   6   8
BRANCH   1  17
ATOM     15  O   UNL     1       7.594   9.289  17.585  0.00  0.00    +0.000 OA
ATOM     16  C   UNL     1       8.238   8.668  18.417  0.00  0.00    +0.000 C 
ATOM     17  N   UNL     1       8.206   7.303  18.635  0.00  0.00    +0.000 N 
ATOM     18  N   UNL     1       9.144   9.287  19.258  0.00  0.00    +0.000 N 
ATOM     19  H   UNL     1       8.978   6.936  19.167  0.00  0.00    +0.000 HD
ATOM     20  H   UNL     1       9.281   8.834  20.151  0.00  0.00    +0.000 HD
BRANCH  18  21
ATOM     21  C   UNL     1       9.334  10.740  19.239  0.00  0.00    +0.000 C 
ATOM     22  C   UNL     1      10.353  11.124  18.163  0.00  0.00    +0.000 C 
ATOM     23  C   UNL     1      10.694  12.605  18.235  0.00  0.00    +0.000 C 
ATOM     24  O   UNL     1      11.157  12.947  19.539  0.00  0.00    +0.000 OA
ATOM     25  C   UNL     1      10.152  12.741  20.532  0.00  0.00    +0.000 C 
ATOM     26  C   UNL     1       9.770  11.269  20.610  0.00  0.00    +0.000 C 
ENDBRANCH  18  21
ENDBRANCH   1  17
TORSDOF 3
ENDMDL
MODEL 2
REMARK VINA RESULT:      -7.4      4.896      6.923
REMARK  Name = 
REMARK  3 active torsions:
REMARK  status: ('A' for Active; 'I' for Inactive)
REMARK    1  A    between atoms: N_3  and  C_4
REMARK    2  A    between atoms: C_9  and  N_10
REMARK    3  A    between atoms: N_18  and  C_19
REMARK                            x       y       z     vdW  Elec       q    Type
REMARK                         _______ _______ _______ _____ _____    ______ ____
ROOT
ATOM      1  C   UNL     1       2.317   5.989  20.156  0.00  0.00    +0.000 A 
ATOM      2  C   UNL     1       1.603   4.804  20.327  0.00  0.00    +0.000 A 
ATOM      3  C   UNL     1       2.135   3.581  19.900  0.00  0.00    +0.000 A 
ATOM      4  C   UNL     1       3.391   3.527  19.294  0.00  0.00    +0.000 A 
ATOM      5 CL   UNL     1       3.951   1.991  18.737  0.00  0.00    +0.000 Cl
ATOM      6  C   UNL     1       4.134   4.706  19.131  0.00  0.00    +0.000 A 
ATOM      7  C   UNL     1       3.594   5.926  19.575  0.00  0.00    +0.000 A 
ENDROOT
BRANCH   6   8
ATOM      8  N   UNL     1       5.425   4.762  18.520  0.00  0.00    +0.000 N 
ATOM      9  C   UNL     1       6.638   5.119  19.262  0.00  0.00    +0.000 C 
ATOM     10  C   UNL     1       7.362   6.173  18.425  0.00  0.00    +0.000 C 
ATOM     11  C   UNL     1       7.151   5.837  16.955  0.00  0.00    +0.000 C 
ATOM     12  S   UNL     1       5.569   5.013  16.855  0.00  0.00    +0.000 S 
ATOM     13  O   UNL     1       5.760   3.720  16.237  0.00  0.00    +0.000 OA
ATOM     14  O   UNL     1       4.568   5.946  16.393  0.00  0.00    +0.000 OA
ENDBRANCH   6   8
BRANCH   1  17
ATOM     15  O   UNL     1       1.878   8.452  18.554  0.00  0.00    +0.000 OA
ATOM     16  C   UNL     1       1.603   8.353  19.741  0.00  0.00    +0.000 C 
ATOM     17  N   UNL     1       1.826   7.254  20.549  0.00  0.00    +0.000 N 
ATOM     18  N   UNL     1       1.039   9.392  20.454  0.00  0.00    +0.000 N 
ATOM     19  H   UNL     1       1.782   7.435  21.539  0.00  0.00    +0.000 HD
ATOM     20  H   UNL     1       0.459   9.114  21.235  0.00  0.00    +0.000 HD
BRANCH  18  21
ATOM     21  C   UNL     1       0.678  10.657  19.806  0.00  0.00    +0.000 C 
ATOM     22  C   UNL     1       0.799  11.812  20.803  0.00  0.00    +0.000 C 
ATOM     23  C   UNL     1       0.271  13.109  20.207  0.00  0.00    +0.000 C 
ATOM     24  O   UNL     1      -1.073  12.941  19.763  0.00  0.00    +0.000 OA
ATOM     25  C   UNL     1      -1.172  11.974  18.717  0.00  0.00    +0.000 C 
ATOM     26  C   UNL     1      -0.734  10.602  19.212  0.00  0.00    +0.000 C 
ENDBRANCH  18  21
ENDBRANCH   1  17
TORSDOF 3
ENDMDL
MODEL 3
REMARK VINA RESULT:      -7.4      5.114      7.022
REMARK  Name = 
REMARK  3 active torsions:
REMARK  status: ('A' for Active; 'I' for Inactive)
REMARK    1  A    between atoms: N_3  and  C_4
REMARK    2  A    between atoms: C_9  and  N_10
REMARK    3  A    between atoms: N_18  and  C_19
REMARK                            x       y       z     vdW  Elec       q    Type
REMARK                         _______ _______ _______ _____ _____    ______ ____
ROOT
ATOM      1  C   UNL     1       2.315   6.310  20.074  0.00  0.00    +0.000 A 
ATOM      2  C   UNL     1       1.879   5.100  20.612  0.00  0.00    +0.000 A 
ATOM      3  C   UNL     1       2.403   3.885  20.155  0.00  0.00    +0.000 A 
ATOM      4  C   UNL     1       3.372   3.864  19.150  0.00  0.00    +0.000 A 
ATOM      5 CL   UNL     1       3.922   2.324  18.595  0.00  0.00    +0.000 Cl
ATOM      6  C   UNL     1       3.838   5.071  18.611  0.00  0.00    +0.000 A 
ATOM      7  C   UNL     1       3.314   6.286  19.087  0.00  0.00    +0.000 A 
ENDROOT
BRANCH   6   8
ATOM      8  N   UNL     1       4.822   5.161  17.577  0.00  0.00    +0.000 N 
ATOM      9  C   UNL     1       4.611   4.615  16.233  0.00  0.00    +0.000 C 
ATOM     10  C   UNL     1       5.861   3.804  15.894  0.00  0.00    +0.000 C 
ATOM     11  C   UNL     1       7.063   4.508  16.511  0.00  0.00    +0.000 C 
ATOM     12  S   UNL     1       6.455   5.344  17.969  0.00  0.00    +0.000 S 
ATOM     13  O   UNL     1       6.772   6.751  17.860  0.00  0.00    +0.000 OA
ATOM     14  O   UNL     1       6.786   4.570  19.142  0.00  0.00    +0.000 OA
ENDBRANCH   6   8
BRANCH   1  17
ATOM     15  O   UNL     1       1.655   8.719  18.465  0.00  0.00    +0.000 OA
ATOM     16  C   UNL     1       1.483   8.637  19.672  0.00  0.00    +0.000 C 
ATOM     17  N   UNL     1       1.811   7.566  20.481  0.00  0.00    +0.000 N 
ATOM     18  N   UNL     1       0.941   9.673  20.409  0.00  0.00    +0.000 N 
ATOM     19  H   UNL     1       1.843   7.769  21.467  0.00  0.00    +0.000 HD
ATOM     20  H   UNL     1       0.438   9.393  21.240  0.00  0.00    +0.000 HD
BRANCH  18  21
ATOM     21  C   UNL     1       0.481  10.908  19.767  0.00  0.00    +0.000 C 
ATOM     22  C   UNL     1       0.638  12.090  20.728  0.00  0.00    +0.000 C 
ATOM     23  C   UNL     1       0.015  13.352  20.151  0.00  0.00    +0.000 C 
ATOM     24  O   UNL     1      -1.354  13.125  19.821  0.00  0.00    +0.000 OA
ATOM     25  C   UNL     1      -1.499  12.132  18.805  0.00  0.00    +0.000 C 
ATOM     26  C   UNL     1      -0.971  10.789  19.290  0.00  0.00    +0.000 C 
ENDBRANCH  18  21
ENDBRANCH   1  17
TORSDOF 3
ENDMDL
MODEL 4
REMARK VINA RESULT:      -7.4      4.251      9.443
REMARK  Name = 
REMARK  3 active torsions:
REMARK  status: ('A' for Active; 'I' for Inactive)
REMARK    1  A    between atoms: N_3  and  C_4
REMARK    2  A    between atoms: C_9  and  N_10
REMARK    3  A    between atoms: N_18  and  C_19
REMARK                            x       y       z     vdW  Elec       q    Type
REMARK                         _______ _______ _______ _____ _____    ______ ____
ROOT
ATOM      1  C   UNL     1       8.664  10.346  18.323  0.00  0.00    +0.000 A 
ATOM      2  C   UNL     1       9.296  10.051  19.530  0.00  0.00    +0.000 A 
ATOM      3  C   UNL     1       9.987  11.042  20.237  0.00  0.00    +0.000 A 
ATOM      4  C   UNL     1      10.055  12.347  19.744  0.00  0.00    +0.000 A 
ATOM      5 CL   UNL     1      10.979  13.498  20.640  0.00  0.00    +0.000 Cl
ATOM      6  C   UNL     1       9.408  12.669  18.542  0.00  0.00    +0.000 A 
ATOM      7  C   UNL     1       8.707  11.667  17.848  0.00  0.00    +0.000 A 
ENDROOT
BRANCH   6   8
ATOM      8  N   UNL     1       9.421  13.969  17.948  0.00  0.00    +0.000 N 
ATOM      9  C   UNL     1      10.630  14.567  17.374  0.00  0.00    +0.000 C 
ATOM     10  C   UNL     1      10.723  15.983  17.940  0.00  0.00    +0.000 C 
ATOM     11  C   UNL     1       9.309  16.529  18.083  0.00  0.00    +0.000 C 
ATOM     12  S   UNL     1       8.257  15.115  18.383  0.00  0.00    +0.000 S 
ATOM     13  O   UNL     1       7.223  15.088  17.373  0.00  0.00    +0.000 OA
ATOM     14  O   UNL     1       7.959  15.027  19.793  0.00  0.00    +0.000 OA
ENDBRANCH   6   8
BRANCH   1  17
ATOM     15  O   UNL     1       8.390   7.415  18.722  0.00  0.00    +0.000 OA
ATOM     16  C   UNL     1       7.843   8.035  17.823  0.00  0.00    +0.000 C 
ATOM     17  N   UNL     1       7.967   9.385  17.557  0.00  0.00    +0.000 N 
ATOM     18  N   UNL     1       7.019   7.417  16.901  0.00  0.00    +0.000 N 
ATOM     19  H   UNL     1       7.663   9.670  16.640  0.00  0.00    +0.000 HD
ATOM     20  H   UNL     1       6.296   8.005  16.507  0.00  0.00    +0.000 HD
BRANCH  18  21
ATOM     21  C   UNL     1       6.705   5.988  16.992  0.00  0.00    +0.000 C 
ATOM     22  C   UNL     1       6.810   5.337  15.611  0.00  0.00    +0.000 C 
ATOM     23  C   UNL     1       6.328   3.894  15.647  0.00  0.00    +0.000 C 
ATOM     24  O   UNL     1       4.998   3.827  16.157  0.00  0.00    +0.000 OA
ATOM     25  C   UNL     1       4.921   4.287  17.506  0.00  0.00    +0.000 C 
ATOM     26  C   UNL     1       5.315   5.754  17.596  0.00  0.00    +0.000 C 
ENDBRANCH  18  21
ENDBRANCH   1  17
TORSDOF 3
ENDMDL
MODEL 5
REMARK VINA RESULT:      -7.3      4.864      6.980
REMARK  Name = 
REMARK  3 active torsions:
REMARK  status: ('A' for Active; 'I' for Inactive)
REMARK    1  A    between atoms: N_3  and  C_4
REMARK    2  A    between atoms: C_9  and  N_10
REMARK    3  A    between atoms: N_18  and  C_19
REMARK                            x       y       z     vdW  Elec       q    Type
REMARK                         _______ _______ _______ _____ _____    ______ ____
ROOT
ATOM      1  C   UNL     1       2.247   5.806  20.270  0.00  0.00    +0.000 A 
ATOM      2  C   UNL     1       1.471   4.665  20.069  0.00  0.00    +0.000 A 
ATOM      3  C   UNL     1       1.926   3.626  19.248  0.00  0.00    +0.000 A 
ATOM      4  C   UNL     1       3.167   3.716  18.615  0.00  0.00    +0.000 A 
ATOM      5 CL   UNL     1       3.631   2.423  17.567  0.00  0.00    +0.000 Cl
ATOM      6  C   UNL     1       3.971   4.846  18.821  0.00  0.00    +0.000 A 
ATOM      7  C   UNL     1       3.508   5.877  19.657  0.00  0.00    +0.000 A 
ENDROOT
BRANCH   6   8
ATOM      8  N   UNL     1       5.253   5.040  18.217  0.00  0.00    +0.000 N 
ATOM      9  C   UNL     1       6.501   5.018  18.985  0.00  0.00    +0.000 C 
ATOM     10  C   UNL     1       7.291   6.256  18.562  0.00  0.00    +0.000 C 
ATOM     11  C   UNL     1       7.031   6.500  17.081  0.00  0.00    +0.000 C 
ATOM     12  S   UNL     1       5.388   5.876  16.754  0.00  0.00    +0.000 S 
ATOM     13  O   UNL     1       5.469   4.892  15.699  0.00  0.00    +0.000 OA
ATOM     14  O   UNL     1       4.455   6.976  16.711  0.00  0.00    +0.000 OA
ENDBRANCH   6   8
BRANCH   1  17
ATOM     15  O   UNL     1       0.994   8.386  19.495  0.00  0.00    +0.000 OA
ATOM     16  C   UNL     1       1.213   8.054  20.651  0.00  0.00    +0.000 C 
ATOM     17  N   UNL     1       1.833   6.893  21.072  0.00  0.00    +0.000 N 
ATOM     18  N   UNL     1       0.878   8.860  21.723  0.00  0.00    +0.000 N 
ATOM     19  H   UNL     1       2.163   6.905  22.024  0.00  0.00    +0.000 HD
ATOM     20  H   UNL     1       0.678   8.369  22.584  0.00  0.00    +0.000 HD
BRANCH  18  21
ATOM     21  C   UNL     1       0.179  10.134  21.532  0.00  0.00    +0.000 C 
ATOM     22  C   UNL     1       1.170  11.220  21.106  0.00  0.00    +0.000 C 
ATOM     23  C   UNL     1       0.501  12.586  21.064  0.00  0.00    +0.000 C 
ATOM     24  O   UNL     1      -0.094  12.887  22.324  0.00  0.00    +0.000 OA
ATOM     25  C   UNL     1      -1.133  11.966  22.656  0.00  0.00    +0.000 C 
ATOM     26  C   UNL     1      -0.575  10.557  22.798  0.00  0.00    +0.000 C 
ENDBRANCH  18  21
ENDBRANCH   1  17
TORSDOF 3
ENDMDL
MODEL 6
REMARK VINA RESULT:      -7.2      1.376      1.643
REMARK  Name = 
REMARK  3 active torsions:
REMARK  status: ('A' for Active; 'I' for Inactive)
REMARK    1  A    between atoms: N_3  and  C_4
REMARK    2  A    between atoms: C_9  and  N_10
REMARK    3  A    between atoms: N_18  and  C_19
REMARK                            x       y       z     vdW  Elec       q    Type
REMARK                         _______ _______ _______ _____ _____    ______ ____
ROOT
ATOM      1  C   UNL     1       7.285   6.512  17.673  0.00  0.00    +0.000 A 
ATOM      2  C   UNL     1       7.604   6.053  16.395  0.00  0.00    +0.000 A 
ATOM      3  C   UNL     1       6.741   5.191  15.709  0.00  0.00    +0.000 A 
ATOM      4  C   UNL     1       5.543   4.775  16.293  0.00  0.00    +0.000 A 
ATOM      5 CL   UNL     1       4.562   3.661  15.410  0.00  0.00    +0.000 Cl
ATOM      6  C   UNL     1       5.194   5.241  17.569  0.00  0.00    +0.000 A 
ATOM      7  C   UNL     1       6.064   6.116  18.243  0.00  0.00    +0.000 A 
ENDROOT
BRANCH   6   8
ATOM      8  N   UNL     1       3.997   4.873  18.258  0.00  0.00    +0.000 N 
ATOM      9  C   UNL     1       3.018   5.858  18.726  0.00  0.00    +0.000 C 
ATOM     10  C   UNL     1       2.705   5.501  20.179  0.00  0.00    +0.000 C 
ATOM     11  C   UNL     1       2.740   3.985  20.311  0.00  0.00    +0.000 C 
ATOM     12  S   UNL     1       3.911   3.405  19.091  0.00  0.00    +0.000 S 
ATOM     13  O   UNL     1       3.245   2.455  18.228  0.00  0.00    +0.000 OA
ATOM     14  O   UNL     1       5.170   3.111  19.733  0.00  0.00    +0.000 OA
ENDBRANCH   6   8
BRANCH   1  17
ATOM     15  O   UNL     1       7.653   9.455  17.505  0.00  0.00    +0.000 OA
ATOM     16  C   UNL     1       8.217   8.743  18.323  0.00  0.00    +0.000 C 
ATOM     17  N   UNL     1       8.124   7.367  18.422  0.00  0.00    +0.000 N 
ATOM     18  N   UNL     1       9.081   9.255  19.271  0.00  0.00    +0.000 N 
ATOM     19  H   UNL     1       8.845   6.928  18.971  0.00  0.00    +0.000 HD
ATOM     20  H   UNL     1       9.141   8.725  20.131  0.00  0.00    +0.000 HD
BRANCH  18  21
ATOM     21  C   UNL     1       9.320  10.696  19.389  0.00  0.00    +0.000 C 
ATOM     22  C   UNL     1      10.584  11.085  18.617  0.00  0.00    +0.000 C 
ATOM     23  C   UNL     1      10.948  12.542  18.859  0.00  0.00    +0.000 C 
ATOM     24  O   UNL     1      11.091  12.793  20.255  0.00  0.00    +0.000 OA
ATOM     25  C   UNL     1       9.868  12.586  20.962  0.00  0.00    +0.000 C 
ATOM     26  C   UNL     1       9.428  11.132  20.855  0.00  0.00    +0.000 C 
ENDBRANCH  18  21
ENDBRANCH   1  17
TORSDOF 3
ENDMDL
MODEL 7
REMARK VINA RESULT:      -7.2      4.882      7.119
REMARK  Name = 
REMARK  3 active torsions:
REMARK  status: ('A' for Active; 'I' for Inactive)
REMARK    1  A    between atoms: N_3  and  C_4
REMARK    2  A    between atoms: C_9  and  N_10
REMARK    3  A    between atoms: N_18  and  C_19
REMARK                            x       y       z     vdW  Elec       q    Type
REMARK                         _______ _______ _______ _____ _____    ______ ____
ROOT
ATOM      1  C   UNL     1       2.232   5.412  20.266  0.00  0.00    +0.000 A 
ATOM      2  C   UNL     1       1.818   4.112  20.556  0.00  0.00    +0.000 A 
ATOM      3  C   UNL     1       2.336   3.022  19.845  0.00  0.00    +0.000 A 
ATOM      4  C   UNL     1       3.277   3.219  18.833  0.00  0.00    +0.000 A 
ATOM      5 CL   UNL     1       3.819   1.831  17.959  0.00  0.00    +0.000 Cl
ATOM      6  C   UNL     1       3.720   4.516  18.540  0.00  0.00    +0.000 A 
ATOM      7  C   UNL     1       3.203   5.601  19.269  0.00  0.00    +0.000 A 
ENDROOT
BRANCH   6   8
ATOM      8  N   UNL     1       4.674   4.827  17.521  0.00  0.00    +0.000 N 
ATOM      9  C   UNL     1       4.554   4.333  16.147  0.00  0.00    +0.000 C 
ATOM     10  C   UNL     1       5.921   3.761  15.772  0.00  0.00    +0.000 C 
ATOM     11  C   UNL     1       6.990   4.616  16.438  0.00  0.00    +0.000 C 
ATOM     12  S   UNL     1       6.256   5.254  17.937  0.00  0.00    +0.000 S 
ATOM     13  O   UNL     1       6.335   6.697  17.911  0.00  0.00    +0.000 OA
ATOM     14  O   UNL     1       6.712   4.478  19.065  0.00  0.00    +0.000 OA
ENDBRANCH   6   8
BRANCH   1  17
ATOM     15  O   UNL     1       1.814   8.181  19.275  0.00  0.00    +0.000 OA
ATOM     16  C   UNL     1       1.521   7.809  20.402  0.00  0.00    +0.000 C 
ATOM     17  N   UNL     1       1.733   6.552  20.936  0.00  0.00    +0.000 N 
ATOM     18  N   UNL     1       0.945   8.655  21.329  0.00  0.00    +0.000 N 
ATOM     19  H   UNL     1       1.675   6.498  21.940  0.00  0.00    +0.000 HD
ATOM     20  H   UNL     1       0.354   8.204  22.016  0.00  0.00    +0.000 HD
BRANCH  18  21
ATOM     21  C   UNL     1       0.591  10.036  20.987  0.00  0.00    +0.000 C 
ATOM     22  C   UNL     1       0.088  10.774  22.231  0.00  0.00    +0.000 C 
ATOM     23  C   UNL     1      -0.442  12.154  21.873  0.00  0.00    +0.000 C 
ATOM     24  O   UNL     1      -1.458  12.054  20.878  0.00  0.00    +0.000 OA
ATOM     25  C   UNL     1      -0.957  11.511  19.657  0.00  0.00    +0.000 C 
ATOM     26  C   UNL     1      -0.455  10.090  19.868  0.00  0.00    +0.000 C 
ENDBRANCH  18  21
ENDBRANCH   1  17
TORSDOF 3
ENDMDL
MODEL 8
REMARK VINA RESULT:      -7.2      5.158      7.009
REMARK  Name = 
REMARK  3 active torsions:
REMARK  status: ('A' for Active; 'I' for Inactive)
REMARK    1  A    between atoms: N_3  and  C_4
REMARK    2  A    between atoms: C_9  and  N_10
REMARK    3  A    between atoms: N_18  and  C_19
REMARK                            x       y       z     vdW  Elec       q    Type
REMARK                         _______ _______ _______ _____ _____    ______ ____
ROOT
ATOM      1  C   UNL     1       2.259   6.328  20.073  0.00  0.00    +0.000 A 
ATOM      2  C   UNL     1       1.577   5.112  20.025  0.00  0.00    +0.000 A 
ATOM      3  C   UNL     1       2.000   4.088  19.169  0.00  0.00    +0.000 A 
ATOM      4  C   UNL     1       3.114   4.267  18.346  0.00  0.00    +0.000 A 
ATOM      5 CL   UNL     1       3.535   2.983  17.272  0.00  0.00    +0.000 Cl
ATOM      6  C   UNL     1       3.824   5.475  18.394  0.00  0.00    +0.000 A 
ATOM      7  C   UNL     1       3.397   6.491  19.267  0.00  0.00    +0.000 A 
ENDROOT
BRANCH   6   8
ATOM      8  N   UNL     1       4.972   5.763  17.591  0.00  0.00    +0.000 N 
ATOM      9  C   UNL     1       4.889   6.009  16.149  0.00  0.00    +0.000 C 
ATOM     10  C   UNL     1       5.965   5.140  15.499  0.00  0.00    +0.000 C 
ATOM     11  C   UNL     1       7.163   5.090  16.437  0.00  0.00    +0.000 C 
ATOM     12  S   UNL     1       6.508   5.264  18.091  0.00  0.00    +0.000 S 
ATOM     13  O   UNL     1       7.147   6.396  18.724  0.00  0.00    +0.000 OA
ATOM     14  O   UNL     1       6.440   3.967  18.721  0.00  0.00    +0.000 OA
ENDBRANCH   6   8
BRANCH   1  17
ATOM     15  O   UNL     1       0.937   8.896  19.378  0.00  0.00    +0.000 OA
ATOM     16  C   UNL     1       1.215   8.559  20.519  0.00  0.00    +0.000 C 
ATOM     17  N   UNL     1       1.869   7.403  20.902  0.00  0.00    +0.000 N 
ATOM     18  N   UNL     1       0.920   9.351  21.612  0.00  0.00    +0.000 N 
ATOM     19  H   UNL     1       2.242   7.413  21.837  0.00  0.00    +0.000 HD
ATOM     20  H   UNL     1       0.766   8.852  22.478  0.00  0.00    +0.000 HD
BRANCH  18  21
ATOM     21  C   UNL     1       0.195  10.617  21.465  0.00  0.00    +0.000 C 
ATOM     22  C   UNL     1       1.172  11.746  21.126  0.00  0.00    +0.000 C 
ATOM     23  C   UNL     1       0.472  13.097  21.133  0.00  0.00    +0.000 C 
ATOM     24  O   UNL     1      -0.168  13.319  22.387  0.00  0.00    +0.000 OA
ATOM     25  C   UNL     1      -1.194  12.360  22.639  0.00  0.00    +0.000 C 
ATOM     26  C   UNL     1      -0.606  10.958  22.727  0.00  0.00    +0.000 C 
ENDBRANCH  18  21
ENDBRANCH   1  17
TORSDOF 3
ENDMDL
MODEL 9
REMARK VINA RESULT:      -7.2      5.428      7.241
REMARK  Name = 
REMARK  3 active torsions:
REMARK  status: ('A' for Active; 'I' for Inactive)
REMARK    1  A    between atoms: N_3  and  C_4
REMARK    2  A    between atoms: C_9  and  N_10
REMARK    3  A    between atoms: N_18  and  C_19
REMARK                            x       y       z     vdW  Elec       q    Type
REMARK                         _______ _______ _______ _____ _____    ______ ____
ROOT
ATOM      1  C   UNL     1       2.214   6.943  19.694  0.00  0.00    +0.000 A 
ATOM      2  C   UNL     1       1.875   5.883  20.534  0.00  0.00    +0.000 A 
ATOM      3  C   UNL     1       2.542   4.655  20.439  0.00  0.00    +0.000 A 
ATOM      4  C   UNL     1       3.559   4.471  19.500  0.00  0.00    +0.000 A 
ATOM      5 CL   UNL     1       4.289   2.910  19.401  0.00  0.00    +0.000 Cl
ATOM      6  C   UNL     1       3.928   5.532  18.661  0.00  0.00    +0.000 A 
ATOM      7  C   UNL     1       3.259   6.764  18.774  0.00  0.00    +0.000 A 
ENDROOT
BRANCH   6   8
ATOM      8  N   UNL     1       4.949   5.448  17.664  0.00  0.00    +0.000 N 
ATOM      9  C   UNL     1       4.777   4.702  16.414  0.00  0.00    +0.000 C 
ATOM     10  C   UNL     1       6.024   3.833  16.253  0.00  0.00    +0.000 C 
ATOM     11  C   UNL     1       7.215   4.609  16.799  0.00  0.00    +0.000 C 
ATOM     12  S   UNL     1       6.571   5.670  18.086  0.00  0.00    +0.000 S 
ATOM     13  O   UNL     1       6.917   7.038  17.772  0.00  0.00    +0.000 OA
ATOM     14  O   UNL     1       6.845   5.083  19.376  0.00  0.00    +0.000 OA
ENDBRANCH   6   8
BRANCH   1  17
ATOM     15  O   UNL     1       1.582   8.704  22.002  0.00  0.00    +0.000 OA
ATOM     16  C   UNL     1       1.340   8.991  20.839  0.00  0.00    +0.000 C 
ATOM     17  N   UNL     1       1.566   8.198  19.730  0.00  0.00    +0.000 N 
ATOM     18  N   UNL     1       0.752  10.191  20.485  0.00  0.00    +0.000 N 
ATOM     19  H   UNL     1       1.073   8.478  18.897  0.00  0.00    +0.000 HD
ATOM     20  H   UNL     1       0.988  10.530  19.562  0.00  0.00    +0.000 HD
BRANCH  18  21
ATOM     21  C   UNL     1       0.446  11.216  21.487  0.00  0.00    +0.000 C 
ATOM     22  C   UNL     1      -0.954  10.987  22.062  0.00  0.00    +0.000 C 
ATOM     23  C   UNL     1      -1.364  12.130  22.979  0.00  0.00    +0.000 C 
ATOM     24  O   UNL     1      -1.280  13.375  22.290  0.00  0.00    +0.000 OA
ATOM     25  C   UNL     1       0.058  13.672  21.887  0.00  0.00    +0.000 C 
ATOM     26  C   UNL     1       0.565  12.628  20.902  0.00  0.00    +0.000 C 
ENDBRANCH  18  21
ENDBRANCH   1  17
TORSDOF 3
ENDMDL
