MODEL 1
REMARK VINA RESULT:      -8.1      0.000      0.000
REMARK  Name = 
REMARK  7 active torsions:
REMARK  status: ('A' for Active; 'I' for Inactive)
REMARK    1  A    between atoms: C_2  and  C_3
REMARK    2  A    between atoms: C_3  and  N_4
REMARK    3  A    between atoms: N_14  and  C_15
REMARK    4  A    between atoms: C_15  and  C_16
REMARK    5  A    between atoms: N_18  and  C_19
REMARK    6  A    between atoms: C_19  and  C_20
REMARK    7  A    between atoms: N_22  and  C_23
REMARK                            x       y       z     vdW  Elec       q    Type
REMARK                         _______ _______ _______ _____ _____    ______ ____
ROOT
ATOM      1  C   UNL     1       8.872   9.239  19.100  0.00  0.00    +0.000 C 
ENDROOT
BRANCH   1   2
ATOM      2  C   UNL     1       8.163   8.195  18.322  0.00  0.00    +0.000 A 
ATOM      3  C   UNL     1       8.146   6.826  18.490  0.00  0.00    +0.000 A 
ATOM      4  N   UNL     1       7.325   6.380  17.501  0.00  0.00    +0.000 N 
ATOM      5  N   UNL     1       6.886   7.395  16.736  0.00  0.00    +0.000 NA
ATOM      6  N   UNL     1       7.393   8.517  17.232  0.00  0.00    +0.000 NA
BRANCH   4   7
ATOM      7  C   UNL     1       6.809   5.049  17.284  0.00  0.00    +0.000 C 
BRANCH   7   8
ATOM      8  C   UNL     1       5.736   4.680  18.273  0.00  0.00    +0.000 C 
ATOM      9  O   UNL     1       6.023   4.048  19.290  0.00  0.00    +0.000 OA
ATOM     10  N   UNL     1       4.452   5.088  17.925  0.00  0.00    +0.000 N 
ATOM     11  H   UNL     1       4.259   5.154  16.930  0.00  0.00    +0.000 HD
BRANCH  10  12
ATOM     12  C   UNL     1       3.361   4.774  18.761  0.00  0.00    +0.000 A 
ATOM     13  C   UNL     1       2.571   3.643  18.527  0.00  0.00    +0.000 A 
ATOM     14  C   UNL     1       1.410   3.433  19.269  0.00  0.00    +0.000 A 
ATOM     15  C   UNL     1       1.033   4.358  20.240  0.00  0.00    +0.000 A 
ATOM     16  C   UNL     1       1.850   5.456  20.513  0.00  0.00    +0.000 A 
ATOM     17  C   UNL     1       3.033   5.649  19.796  0.00  0.00    +0.000 A 
ENDBRANCH  10  12
ENDBRANCH   7   8
ENDBRANCH   4   7
ENDBRANCH   1   2
BRANCH   1  20
ATOM     18  O   UNL     1      10.641  11.374  19.652  0.00  0.00    +0.000 OA
ATOM     19  C   UNL     1      10.019  11.365  18.593  0.00  0.00    +0.000 C 
ATOM     20  N   UNL     1       9.167  10.351  18.228  0.00  0.00    +0.000 N 
ATOM     21  H   UNL     1       8.831  10.310  17.268  0.00  0.00    +0.000 HD
BRANCH  19  22
ATOM     22  C   UNL     1      10.168  12.464  17.542  0.00  0.00    +0.000 C 
BRANCH  22  23
ATOM     23  N   UNL     1       9.206  13.520  17.769  0.00  0.00    +0.000 N 
ATOM     24  S   UNL     1       9.574  14.839  18.798  0.00  0.00    +0.000 S 
ATOM     25  C   UNL     1       7.884  15.364  18.776  0.00  0.00    +0.000 A 
ATOM     26  C   UNL     1       7.335  16.475  19.398  0.00  0.00    +0.000 A 
ATOM     27  C   UNL     1       5.969  16.726  19.224  0.00  0.00    +0.000 A 
ATOM     28  C   UNL     1       5.175  15.865  18.448  0.00  0.00    +0.000 A 
ATOM     29  C   UNL     1       5.739  14.743  17.835  0.00  0.00    +0.000 A 
ATOM     30  C   UNL     1       7.090  14.509  18.014  0.00  0.00    +0.000 A 
ATOM     31  C   UNL     1       7.860  13.377  17.471  0.00  0.00    +0.000 A 
ATOM     32  O   UNL     1       7.343  12.442  16.866  0.00  0.00    +0.000 OA
ENDBRANCH  22  23
ENDBRANCH  19  22
ENDBRANCH   1  20
TORSDOF 7
ENDMDL
MODEL 2
REMARK VINA RESULT:      -8.1      0.978      1.029
REMARK  Name = 
REMARK  7 active torsions:
REMARK  status: ('A' for Active; 'I' for Inactive)
REMARK    1  A    between atoms: C_2  and  C_3
REMARK    2  A    between atoms: C_3  and  N_4
REMARK    3  A    between atoms: N_14  and  C_15
REMARK    4  A    between atoms: C_15  and  C_16
REMARK    5  A    between atoms: N_18  and  C_19
REMARK    6  A    between atoms: C_19  and  C_20
REMARK    7  A    between atoms: N_22  and  C_23
REMARK                            x       y       z     vdW  Elec       q    Type
REMARK                         _______ _______ _______ _____ _____    ______ ____
ROOT
ATOM      1  C   UNL     1       8.887   9.209  19.160  0.00  0.00    +0.000 C 
ENDROOT
BRANCH   1   2
ATOM      2  C   UNL     1       8.267   8.091  18.409  0.00  0.00    +0.000 A 
ATOM      3  C   UNL     1       8.166   6.755  18.737  0.00  0.00    +0.000 A 
ATOM      4  N   UNL     1       7.496   6.206  17.688  0.00  0.00    +0.000 N 
ATOM      5  N   UNL     1       7.227   7.125  16.745  0.00  0.00    +0.000 NA
ATOM      6  N   UNL     1       7.695   8.289  17.177  0.00  0.00    +0.000 NA
BRANCH   4   7
ATOM      7  C   UNL     1       6.966   4.869  17.552  0.00  0.00    +0.000 C 
BRANCH   7   8
ATOM      8  C   UNL     1       5.572   4.745  18.104  0.00  0.00    +0.000 C 
ATOM      9  O   UNL     1       5.061   5.684  18.715  0.00  0.00    +0.000 OA
ATOM     10  N   UNL     1       4.960   3.515  17.880  0.00  0.00    +0.000 N 
ATOM     11  H   UNL     1       5.581   2.713  17.816  0.00  0.00    +0.000 HD
BRANCH  10  12
ATOM     12  C   UNL     1       3.663   3.271  18.376  0.00  0.00    +0.000 A 
ATOM     13  C   UNL     1       2.528   3.679  17.667  0.00  0.00    +0.000 A 
ATOM     14  C   UNL     1       1.264   3.565  18.242  0.00  0.00    +0.000 A 
ATOM     15  C   UNL     1       1.133   3.052  19.531  0.00  0.00    +0.000 A 
ATOM     16  C   UNL     1       2.259   2.591  20.216  0.00  0.00    +0.000 A 
ATOM     17  C   UNL     1       3.523   2.670  19.627  0.00  0.00    +0.000 A 
ENDBRANCH  10  12
ENDBRANCH   7   8
ENDBRANCH   4   7
ENDBRANCH   1   2
BRANCH   1  20
ATOM     18  O   UNL     1      10.751  11.299  19.547  0.00  0.00    +0.000 OA
ATOM     19  C   UNL     1      10.063  11.286  18.530  0.00  0.00    +0.000 C 
ATOM     20  N   UNL     1       9.158  10.292  18.244  0.00  0.00    +0.000 N 
ATOM     21  H   UNL     1       8.760  10.240  17.309  0.00  0.00    +0.000 HD
BRANCH  19  22
ATOM     22  C   UNL     1      10.176  12.357  17.445  0.00  0.00    +0.000 C 
BRANCH  22  23
ATOM     23  N   UNL     1       9.255  13.441  17.701  0.00  0.00    +0.000 N 
ATOM     24  S   UNL     1       9.694  14.747  18.720  0.00  0.00    +0.000 S 
ATOM     25  C   UNL     1       8.021  15.324  18.747  0.00  0.00    +0.000 A 
ATOM     26  C   UNL     1       7.524  16.451  19.385  0.00  0.00    +0.000 A 
ATOM     27  C   UNL     1       6.163  16.744  19.252  0.00  0.00    +0.000 A 
ATOM     28  C   UNL     1       5.321  15.909  18.498  0.00  0.00    +0.000 A 
ATOM     29  C   UNL     1       5.831  14.772  17.869  0.00  0.00    +0.000 A 
ATOM     30  C   UNL     1       7.179  14.495  18.008  0.00  0.00    +0.000 A 
ATOM     31  C   UNL     1       7.897  13.341  17.442  0.00  0.00    +0.000 A 
ATOM     32  O   UNL     1       7.334  12.423  16.853  0.00  0.00    +0.000 OA
ENDBRANCH  22  23
ENDBRANCH  19  22
ENDBRANCH   1  20
TORSDOF 7
ENDMDL
MODEL 3
REMARK VINA RESULT:      -8.0      5.820      9.584
REMARK  Name = 
REMARK  7 active torsions:
REMARK  status: ('A' for Active; 'I' for Inactive)
REMARK    1  A    between atoms: C_2  and  C_3
REMARK    2  A    between atoms: C_3  and  N_4
REMARK    3  A    between atoms: N_14  and  C_15
REMARK    4  A    between atoms: C_15  and  C_16
REMARK    5  A    between atoms: N_18  and  C_19
REMARK    6  A    between atoms: C_19  and  C_20
REMARK    7  A    between atoms: N_22  and  C_23
REMARK                            x       y       z     vdW  Elec       q    Type
REMARK                         _______ _______ _______ _____ _____    ______ ____
ROOT
ATOM      1  C   UNL     1       1.668   6.382  20.844  0.00  0.00    +0.000 C 
ENDROOT
BRANCH   1   2
ATOM      2  C   UNL     1       1.707   7.552  19.933  0.00  0.00    +0.000 A 
ATOM      3  C   UNL     1       1.265   8.843  20.134  0.00  0.00    +0.000 A 
ATOM      4  N   UNL     1       1.566   9.481  18.971  0.00  0.00    +0.000 N 
ATOM      5  N   UNL     1       2.123   8.639  18.082  0.00  0.00    +0.000 NA
ATOM      6  N   UNL     1       2.217   7.450  18.663  0.00  0.00    +0.000 NA
BRANCH   4   7
ATOM      7  C   UNL     1       1.478  10.888  18.661  0.00  0.00    +0.000 C 
BRANCH   7   8
ATOM      8  C   UNL     1       0.085  11.307  18.279  0.00  0.00    +0.000 C 
ATOM      9  O   UNL     1      -0.284  12.468  18.459  0.00  0.00    +0.000 OA
ATOM     10  N   UNL     1      -0.707  10.295  17.747  0.00  0.00    +0.000 N 
ATOM     11  H   UNL     1      -0.505   9.353  18.070  0.00  0.00    +0.000 HD
BRANCH  10  12
ATOM     12  C   UNL     1      -2.041  10.562  17.377  0.00  0.00    +0.000 A 
ATOM     13  C   UNL     1      -2.471  10.413  16.055  0.00  0.00    +0.000 A 
ATOM     14  C   UNL     1      -3.749  10.825  15.682  0.00  0.00    +0.000 A 
ATOM     15  C   UNL     1      -4.596  11.396  16.629  0.00  0.00    +0.000 A 
ATOM     16  C   UNL     1      -4.189  11.493  17.961  0.00  0.00    +0.000 A 
ATOM     17  C   UNL     1      -2.922  11.046  18.344  0.00  0.00    +0.000 A 
ENDBRANCH  10  12
ENDBRANCH   7   8
ENDBRANCH   4   7
ENDBRANCH   1   2
BRANCH   1  20
ATOM     18  O   UNL     1       1.466   3.562  20.863  0.00  0.00    +0.000 OA
ATOM     19  C   UNL     1       2.522   4.089  20.522  0.00  0.00    +0.000 C 
ATOM     20  N   UNL     1       2.697   5.450  20.450  0.00  0.00    +0.000 N 
ATOM     21  H   UNL     1       3.525   5.817  19.985  0.00  0.00    +0.000 HD
BRANCH  19  22
ATOM     22  C   UNL     1       3.744   3.278  20.092  0.00  0.00    +0.000 C 
BRANCH  22  23
ATOM     23  N   UNL     1       4.286   3.791  18.853  0.00  0.00    +0.000 N 
ATOM     24  S   UNL     1       3.597   3.356  17.346  0.00  0.00    +0.000 S 
ATOM     25  C   UNL     1       4.973   4.060  16.483  0.00  0.00    +0.000 A 
ATOM     26  C   UNL     1       5.160   4.141  15.111  0.00  0.00    +0.000 A 
ATOM     27  C   UNL     1       6.315   4.770  14.634  0.00  0.00    +0.000 A 
ATOM     28  C   UNL     1       7.265   5.296  15.527  0.00  0.00    +0.000 A 
ATOM     29  C   UNL     1       7.070   5.198  16.907  0.00  0.00    +0.000 A 
ATOM     30  C   UNL     1       5.923   4.575  17.363  0.00  0.00    +0.000 A 
ATOM     31  C   UNL     1       5.548   4.356  18.770  0.00  0.00    +0.000 A 
ATOM     32  O   UNL     1       6.289   4.626  19.712  0.00  0.00    +0.000 OA
ENDBRANCH  22  23
ENDBRANCH  19  22
ENDBRANCH   1  20
TORSDOF 7
ENDMDL
MODEL 4
REMARK VINA RESULT:      -8.0      5.935      9.672
REMARK  Name = 
REMARK  7 active torsions:
REMARK  status: ('A' for Active; 'I' for Inactive)
REMARK    1  A    between atoms: C_2  and  C_3
REMARK    2  A    between atoms: C_3  and  N_4
REMARK    3  A    between atoms: N_14  and  C_15
REMARK    4  A    between atoms: C_15  and  C_16
REMARK    5  A    between atoms: N_18  and  C_19
REMARK    6  A    between atoms: C_19  and  C_20
REMARK    7  A    between atoms: N_22  and  C_23
REMARK                            x       y       z     vdW  Elec       q    Type
REMARK                         _______ _______ _______ _____ _____    ______ ____
ROOT
ATOM      1  C   UNL     1       4.096   7.437  17.023  0.00  0.00    +0.000 C 
ENDROOT
BRANCH   1   2
ATOM      2  C   UNL     1       3.089   7.827  18.039  0.00  0.00    +0.000 A 
ATOM      3  C   UNL     1       2.708   7.183  19.197  0.00  0.00    +0.000 A 
ATOM      4  N   UNL     1       1.760   7.999  19.734  0.00  0.00    +0.000 N 
ATOM      5  N   UNL     1       1.530   9.064  18.946  0.00  0.00    +0.000 NA
ATOM      6  N   UNL     1       2.343   8.971  17.901  0.00  0.00    +0.000 NA
BRANCH   4   7
ATOM      7  C   UNL     1       1.120   7.916  21.025  0.00  0.00    +0.000 C 
BRANCH   7   8
ATOM      8  C   UNL     1       0.905   9.268  21.648  0.00  0.00    +0.000 C 
ATOM      9  O   UNL     1       1.638   9.653  22.560  0.00  0.00    +0.000 OA
ATOM     10  N   UNL     1      -0.163   9.991  21.128  0.00  0.00    +0.000 N 
ATOM     11  H   UNL     1      -0.938   9.444  20.765  0.00  0.00    +0.000 HD
BRANCH  10  12
ATOM     12  C   UNL     1      -0.479  11.261  21.652  0.00  0.00    +0.000 A 
ATOM     13  C   UNL     1       0.152  12.418  21.181  0.00  0.00    +0.000 A 
ATOM     14  C   UNL     1      -0.062  13.640  21.814  0.00  0.00    +0.000 A 
ATOM     15  C   UNL     1      -0.899  13.708  22.925  0.00  0.00    +0.000 A 
ATOM     16  C   UNL     1      -1.573  12.566  23.361  0.00  0.00    +0.000 A 
ATOM     17  C   UNL     1      -1.390  11.346  22.705  0.00  0.00    +0.000 A 
ENDBRANCH  10  12
ENDBRANCH   7   8
ENDBRANCH   4   7
ENDBRANCH   1   2
BRANCH   1  20
ATOM     18  O   UNL     1       5.676   5.882  15.268  0.00  0.00    +0.000 OA
ATOM     19  C   UNL     1       5.081   5.332  16.192  0.00  0.00    +0.000 C 
ATOM     20  N   UNL     1       4.321   6.014  17.111  0.00  0.00    +0.000 N 
ATOM     21  H   UNL     1       4.012   5.530  17.952  0.00  0.00    +0.000 HD
BRANCH  19  22
ATOM     22  C   UNL     1       5.166   3.827  16.444  0.00  0.00    +0.000 C 
BRANCH  22  23
ATOM     23  N   UNL     1       4.246   3.433  17.488  0.00  0.00    +0.000 N 
ATOM     24  S   UNL     1       2.584   3.189  17.150  0.00  0.00    +0.000 S 
ATOM     25  C   UNL     1       2.216   3.112  18.879  0.00  0.00    +0.000 A 
ATOM     26  C   UNL     1       0.982   2.885  19.473  0.00  0.00    +0.000 A 
ATOM     27  C   UNL     1       0.917   2.832  20.869  0.00  0.00    +0.000 A 
ATOM     28  C   UNL     1       2.072   3.016  21.648  0.00  0.00    +0.000 A 
ATOM     29  C   UNL     1       3.306   3.253  21.039  0.00  0.00    +0.000 A 
ATOM     30  C   UNL     1       3.356   3.301  19.658  0.00  0.00    +0.000 A 
ATOM     31  C   UNL     1       4.549   3.558  18.835  0.00  0.00    +0.000 A 
ATOM     32  O   UNL     1       5.639   3.865  19.310  0.00  0.00    +0.000 OA
ENDBRANCH  22  23
ENDBRANCH  19  22
ENDBRANCH   1  20
TORSDOF 7
ENDMDL
MODEL 5
REMARK VINA RESULT:      -7.9      6.219      9.665
REMARK  Name = 
REMARK  7 active torsions:
REMARK  status: ('A' for Active; 'I' for Inactive)
REMARK    1  A    between atoms: C_2  and  C_3
REMARK    2  A    between atoms: C_3  and  N_4
REMARK    3  A    between atoms: N_14  and  C_15
REMARK    4  A    between atoms: C_15  and  C_16
REMARK    5  A    between atoms: N_18  and  C_19
REMARK    6  A    between atoms: C_19  and  C_20
REMARK    7  A    between atoms: N_22  and  C_23
REMARK                            x       y       z     vdW  Elec       q    Type
REMARK                         _______ _______ _______ _____ _____    ______ ____
ROOT
ATOM      1  C   UNL     1       3.875   7.430  16.985  0.00  0.00    +0.000 C 
ENDROOT
BRANCH   1   2
ATOM      2  C   UNL     1       2.979   7.811  18.104  0.00  0.00    +0.000 A 
ATOM      3  C   UNL     1       2.758   7.182  19.311  0.00  0.00    +0.000 A 
ATOM      4  N   UNL     1       1.852   7.980  19.939  0.00  0.00    +0.000 N 
ATOM      5  N   UNL     1       1.496   9.019  19.163  0.00  0.00    +0.000 NA
ATOM      6  N   UNL     1       2.185   8.928  18.033  0.00  0.00    +0.000 NA
BRANCH   4   7
ATOM      7  C   UNL     1       1.369   7.906  21.297  0.00  0.00    +0.000 C 
BRANCH   7   8
ATOM      8  C   UNL     1       0.151   8.762  21.522  0.00  0.00    +0.000 C 
ATOM      9  O   UNL     1      -0.964   8.245  21.591  0.00  0.00    +0.000 OA
ATOM     10  N   UNL     1       0.403  10.126  21.619  0.00  0.00    +0.000 N 
ATOM     11  H   UNL     1       1.206  10.470  21.100  0.00  0.00    +0.000 HD
BRANCH  10  12
ATOM     12  C   UNL     1      -0.664  11.030  21.801  0.00  0.00    +0.000 A 
ATOM     13  C   UNL     1      -1.274  11.189  23.050  0.00  0.00    +0.000 A 
ATOM     14  C   UNL     1      -2.420  11.970  23.176  0.00  0.00    +0.000 A 
ATOM     15  C   UNL     1      -2.964  12.588  22.052  0.00  0.00    +0.000 A 
ATOM     16  C   UNL     1      -2.323  12.477  20.817  0.00  0.00    +0.000 A 
ATOM     17  C   UNL     1      -1.154  11.725  20.695  0.00  0.00    +0.000 A 
ENDBRANCH  10  12
ENDBRANCH   7   8
ENDBRANCH   4   7
ENDBRANCH   1   2
BRANCH   1  20
ATOM     18  O   UNL     1       5.691   5.984  15.372  0.00  0.00    +0.000 OA
ATOM     19  C   UNL     1       5.040   5.390  16.227  0.00  0.00    +0.000 C 
ATOM     20  N   UNL     1       4.162   6.018  17.077  0.00  0.00    +0.000 N 
ATOM     21  H   UNL     1       3.798   5.506  17.878  0.00  0.00    +0.000 HD
BRANCH  19  22
ATOM     22  C   UNL     1       5.176   3.887  16.469  0.00  0.00    +0.000 C 
BRANCH  22  23
ATOM     23  N   UNL     1       4.266   3.453  17.506  0.00  0.00    +0.000 N 
ATOM     24  S   UNL     1       2.617   3.146  17.157  0.00  0.00    +0.000 S 
ATOM     25  C   UNL     1       2.242   3.047  18.884  0.00  0.00    +0.000 A 
ATOM     26  C   UNL     1       1.016   2.770  19.470  0.00  0.00    +0.000 A 
ATOM     27  C   UNL     1       0.944   2.709  20.866  0.00  0.00    +0.000 A 
ATOM     28  C   UNL     1       2.087   2.935  21.652  0.00  0.00    +0.000 A 
ATOM     29  C   UNL     1       3.314   3.223  21.050  0.00  0.00    +0.000 A 
ATOM     30  C   UNL     1       3.370   3.278  19.670  0.00  0.00    +0.000 A 
ATOM     31  C   UNL     1       4.557   3.585  18.854  0.00  0.00    +0.000 A 
ATOM     32  O   UNL     1       5.631   3.932  19.337  0.00  0.00    +0.000 OA
ENDBRANCH  22  23
ENDBRANCH  19  22
ENDBRANCH   1  20
TORSDOF 7
ENDMDL
MODEL 6
REMARK VINA RESULT:      -7.8      5.978      9.585
REMARK  Name = 
REMARK  7 active torsions:
REMARK  status: ('A' for Active; 'I' for Inactive)
REMARK    1  A    between atoms: C_2  and  C_3
REMARK    2  A    between atoms: C_3  and  N_4
REMARK    3  A    between atoms: N_14  and  C_15
REMARK    4  A    between atoms: C_15  and  C_16
REMARK    5  A    between atoms: N_18  and  C_19
REMARK    6  A    between atoms: C_19  and  C_20
REMARK    7  A    between atoms: N_22  and  C_23
REMARK                            x       y       z     vdW  Elec       q    Type
REMARK                         _______ _______ _______ _____ _____    ______ ____
ROOT
ATOM      1  C   UNL     1       1.523   5.703  21.075  0.00  0.00    +0.000 C 
ENDROOT
BRANCH   1   2
ATOM      2  C   UNL     1       1.520   7.064  20.487  0.00  0.00    +0.000 A 
ATOM      3  C   UNL     1       0.962   8.232  20.964  0.00  0.00    +0.000 A 
ATOM      4  N   UNL     1       1.279   9.160  20.022  0.00  0.00    +0.000 N 
ATOM      5  N   UNL     1       1.957   8.608  19.001  0.00  0.00    +0.000 NA
ATOM      6  N   UNL     1       2.114   7.320  19.276  0.00  0.00    +0.000 NA
BRANCH   4   7
ATOM      7  C   UNL     1       1.094  10.592  20.064  0.00  0.00    +0.000 C 
BRANCH   7   8
ATOM      8  C   UNL     1       0.072  11.069  19.068  0.00  0.00    +0.000 C 
ATOM      9  O   UNL     1       0.211  12.158  18.511  0.00  0.00    +0.000 OA
ATOM     10  N   UNL     1      -1.001  10.205  18.870  0.00  0.00    +0.000 N 
ATOM     11  H   UNL     1      -1.260   9.625  19.663  0.00  0.00    +0.000 HD
BRANCH  10  12
ATOM     12  C   UNL     1      -2.037  10.558  17.981  0.00  0.00    +0.000 A 
ATOM     13  C   UNL     1      -3.083  11.394  18.383  0.00  0.00    +0.000 A 
ATOM     14  C   UNL     1      -4.173  11.608  17.542  0.00  0.00    +0.000 A 
ATOM     15  C   UNL     1      -4.223  10.979  16.300  0.00  0.00    +0.000 A 
ATOM     16  C   UNL     1      -3.153  10.190  15.874  0.00  0.00    +0.000 A 
ATOM     17  C   UNL     1      -2.042  10.004  16.701  0.00  0.00    +0.000 A 
ENDBRANCH  10  12
ENDBRANCH   7   8
ENDBRANCH   4   7
ENDBRANCH   1   2
BRANCH   1  20
ATOM     18  O   UNL     1       1.839   2.913  20.745  0.00  0.00    +0.000 OA
ATOM     19  C   UNL     1       2.802   3.654  20.565  0.00  0.00    +0.000 C 
ATOM     20  N   UNL     1       2.729   5.022  20.669  0.00  0.00    +0.000 N 
ATOM     21  H   UNL     1       3.506   5.585  20.328  0.00  0.00    +0.000 HD
BRANCH  19  22
ATOM     22  C   UNL     1       4.178   3.131  20.156  0.00  0.00    +0.000 C 
BRANCH  22  23
ATOM     23  N   UNL     1       4.586   3.702  18.893  0.00  0.00    +0.000 N 
ATOM     24  S   UNL     1       3.933   3.128  17.416  0.00  0.00    +0.000 S 
ATOM     25  C   UNL     1       5.143   4.035  16.496  0.00  0.00    +0.000 A 
ATOM     26  C   UNL     1       5.270   4.119  15.118  0.00  0.00    +0.000 A 
ATOM     27  C   UNL     1       6.287   4.924  14.592  0.00  0.00    +0.000 A 
ATOM     28  C   UNL     1       7.163   5.619  15.444  0.00  0.00    +0.000 A 
ATOM     29  C   UNL     1       7.031   5.518  16.830  0.00  0.00    +0.000 A 
ATOM     30  C   UNL     1       6.020   4.720  17.335  0.00  0.00    +0.000 A 
ATOM     31  C   UNL     1       5.732   4.470  18.758  0.00  0.00    +0.000 A 
ATOM     32  O   UNL     1       6.446   4.878  19.669  0.00  0.00    +0.000 OA
ENDBRANCH  22  23
ENDBRANCH  19  22
ENDBRANCH   1  20
TORSDOF 7
ENDMDL
MODEL 7
REMARK VINA RESULT:      -7.8      2.753      3.144
REMARK  Name = 
REMARK  7 active torsions:
REMARK  status: ('A' for Active; 'I' for Inactive)
REMARK    1  A    between atoms: C_2  and  C_3
REMARK    2  A    between atoms: C_3  and  N_4
REMARK    3  A    between atoms: N_14  and  C_15
REMARK    4  A    between atoms: C_15  and  C_16
REMARK    5  A    between atoms: N_18  and  C_19
REMARK    6  A    between atoms: C_19  and  C_20
REMARK    7  A    between atoms: N_22  and  C_23
REMARK                            x       y       z     vdW  Elec       q    Type
REMARK                         _______ _______ _______ _____ _____    ______ ____
ROOT
ATOM      1  C   UNL     1       7.903   9.310  17.742  0.00  0.00    +0.000 C 
ENDROOT
BRANCH   1   2
ATOM      2  C   UNL     1       7.705   7.849  17.900  0.00  0.00    +0.000 A 
ATOM      3  C   UNL     1       6.881   6.989  17.206  0.00  0.00    +0.000 A 
ATOM      4  N   UNL     1       7.119   5.774  17.770  0.00  0.00    +0.000 N 
ATOM      5  N   UNL     1       8.004   5.868  18.778  0.00  0.00    +0.000 NA
ATOM      6  N   UNL     1       8.374   7.140  18.866  0.00  0.00    +0.000 NA
BRANCH   4   7
ATOM      7  C   UNL     1       6.658   4.473  17.346  0.00  0.00    +0.000 C 
BRANCH   7   8
ATOM      8  C   UNL     1       5.212   4.235  17.691  0.00  0.00    +0.000 C 
ATOM      9  O   UNL     1       4.325   4.583  16.911  0.00  0.00    +0.000 OA
ATOM     10  N   UNL     1       4.996   3.631  18.925  0.00  0.00    +0.000 N 
ATOM     11  H   UNL     1       5.689   3.821  19.643  0.00  0.00    +0.000 HD
BRANCH  10  12
ATOM     12  C   UNL     1       3.680   3.384  19.369  0.00  0.00    +0.000 A 
ATOM     13  C   UNL     1       3.031   2.180  19.076  0.00  0.00    +0.000 A 
ATOM     14  C   UNL     1       1.684   2.015  19.391  0.00  0.00    +0.000 A 
ATOM     15  C   UNL     1       0.981   3.057  19.992  0.00  0.00    +0.000 A 
ATOM     16  C   UNL     1       1.642   4.237  20.336  0.00  0.00    +0.000 A 
ATOM     17  C   UNL     1       3.001   4.391  20.055  0.00  0.00    +0.000 A 
ENDBRANCH  10  12
ENDBRANCH   7   8
ENDBRANCH   4   7
ENDBRANCH   1   2
BRANCH   1  20
ATOM     18  O   UNL     1       9.043  11.895  17.844  0.00  0.00    +0.000 OA
ATOM     19  C   UNL     1       9.517  10.999  18.539  0.00  0.00    +0.000 C 
ATOM     20  N   UNL     1       9.005   9.725  18.577  0.00  0.00    +0.000 N 
ATOM     21  H   UNL     1       9.321   9.088  19.305  0.00  0.00    +0.000 HD
BRANCH  19  22
ATOM     22  C   UNL     1      10.704  11.224  19.475  0.00  0.00    +0.000 C 
BRANCH  22  23
ATOM     23  N   UNL     1      10.363  12.173  20.512  0.00  0.00    +0.000 N 
ATOM     24  S   UNL     1       9.067  11.870  21.591  0.00  0.00    +0.000 S 
ATOM     25  C   UNL     1       9.139  13.534  22.188  0.00  0.00    +0.000 A 
ATOM     26  C   UNL     1       8.364  14.110  23.184  0.00  0.00    +0.000 A 
ATOM     27  C   UNL     1       8.607  15.444  23.528  0.00  0.00    +0.000 A 
ATOM     28  C   UNL     1       9.605  16.182  22.869  0.00  0.00    +0.000 A 
ATOM     29  C   UNL     1      10.372  15.594  21.861  0.00  0.00    +0.000 A 
ATOM     30  C   UNL     1      10.121  14.274  21.533  0.00  0.00    +0.000 A 
ATOM     31  C   UNL     1      10.803  13.487  20.492  0.00  0.00    +0.000 A 
ATOM     32  O   UNL     1      11.622  13.969  19.715  0.00  0.00    +0.000 OA
ENDBRANCH  22  23
ENDBRANCH  19  22
ENDBRANCH   1  20
TORSDOF 7
ENDMDL
MODEL 8
REMARK VINA RESULT:      -7.7      1.601      2.179
REMARK  Name = 
REMARK  7 active torsions:
REMARK  status: ('A' for Active; 'I' for Inactive)
REMARK    1  A    between atoms: C_2  and  C_3
REMARK    2  A    between atoms: C_3  and  N_4
REMARK    3  A    between atoms: N_14  and  C_15
REMARK    4  A    between atoms: C_15  and  C_16
REMARK    5  A    between atoms: N_18  and  C_19
REMARK    6  A    between atoms: C_19  and  C_20
REMARK    7  A    between atoms: N_22  and  C_23
REMARK                            x       y       z     vdW  Elec       q    Type
REMARK                         _______ _______ _______ _____ _____    ______ ____
ROOT
ATOM      1  C   UNL     1       8.568   8.841  19.055  0.00  0.00    +0.000 C 
ENDROOT
BRANCH   1   2
ATOM      2  C   UNL     1       8.074   7.697  18.250  0.00  0.00    +0.000 A 
ATOM      3  C   UNL     1       7.871   6.383  18.615  0.00  0.00    +0.000 A 
ATOM      4  N   UNL     1       7.403   5.793  17.482  0.00  0.00    +0.000 N 
ATOM      5  N   UNL     1       7.352   6.667  16.461  0.00  0.00    +0.000 NA
ATOM      6  N   UNL     1       7.760   7.843  16.922  0.00  0.00    +0.000 NA
BRANCH   4   7
ATOM      7  C   UNL     1       6.870   4.462  17.308  0.00  0.00    +0.000 C 
BRANCH   7   8
ATOM      8  C   UNL     1       5.425   4.363  17.717  0.00  0.00    +0.000 C 
ATOM      9  O   UNL     1       4.544   4.839  17.000  0.00  0.00    +0.000 OA
ATOM     10  N   UNL     1       5.203   3.729  18.935  0.00  0.00    +0.000 N 
ATOM     11  H   UNL     1       5.946   3.810  19.623  0.00  0.00    +0.000 HD
BRANCH  10  12
ATOM     12  C   UNL     1       3.891   3.602  19.437  0.00  0.00    +0.000 A 
ATOM     13  C   UNL     1       3.150   2.433  19.238  0.00  0.00    +0.000 A 
ATOM     14  C   UNL     1       1.807   2.383  19.607  0.00  0.00    +0.000 A 
ATOM     15  C   UNL     1       1.201   3.505  20.167  0.00  0.00    +0.000 A 
ATOM     16  C   UNL     1       1.955   4.653  20.418  0.00  0.00    +0.000 A 
ATOM     17  C   UNL     1       3.310   4.693  20.083  0.00  0.00    +0.000 A 
ENDBRANCH  10  12
ENDBRANCH   7   8
ENDBRANCH   4   7
ENDBRANCH   1   2
BRANCH   1  20
ATOM     18  O   UNL     1       9.580  11.370  19.811  0.00  0.00    +0.000 OA
ATOM     19  C   UNL     1       9.350  11.142  18.626  0.00  0.00    +0.000 C 
ATOM     20  N   UNL     1       8.891   9.931  18.166  0.00  0.00    +0.000 N 
ATOM     21  H   UNL     1       8.899   9.748  17.165  0.00  0.00    +0.000 HD
BRANCH  19  22
ATOM     22  C   UNL     1       9.599  12.174  17.526  0.00  0.00    +0.000 C 
BRANCH  22  23
ATOM     23  N   UNL     1       9.418  13.515  18.035  0.00  0.00    +0.000 N 
ATOM     24  S   UNL     1       7.869  14.246  18.060  0.00  0.00    +0.000 S 
ATOM     25  C   UNL     1       8.586  15.818  18.443  0.00  0.00    +0.000 A 
ATOM     26  C   UNL     1       7.926  17.016  18.671  0.00  0.00    +0.000 A 
ATOM     27  C   UNL     1       8.688  18.144  18.992  0.00  0.00    +0.000 A 
ATOM     28  C   UNL     1      10.089  18.064  19.068  0.00  0.00    +0.000 A 
ATOM     29  C   UNL     1      10.743  16.853  18.825  0.00  0.00    +0.000 A 
ATOM     30  C   UNL     1       9.976  15.747  18.511  0.00  0.00    +0.000 A 
ATOM     31  C   UNL     1      10.475  14.396  18.204  0.00  0.00    +0.000 A 
ATOM     32  O   UNL     1      11.669  14.131  18.094  0.00  0.00    +0.000 OA
ENDBRANCH  22  23
ENDBRANCH  19  22
ENDBRANCH   1  20
TORSDOF 7
ENDMDL
MODEL 9
REMARK VINA RESULT:      -7.7      2.096      2.677
REMARK  Name = 
REMARK  7 active torsions:
REMARK  status: ('A' for Active; 'I' for Inactive)
REMARK    1  A    between atoms: C_2  and  C_3
REMARK    2  A    between atoms: C_3  and  N_4
REMARK    3  A    between atoms: N_14  and  C_15
REMARK    4  A    between atoms: C_15  and  C_16
REMARK    5  A    between atoms: N_18  and  C_19
REMARK    6  A    between atoms: C_19  and  C_20
REMARK    7  A    between atoms: N_22  and  C_23
REMARK                            x       y       z     vdW  Elec       q    Type
REMARK                         _______ _______ _______ _____ _____    ______ ____
ROOT
ATOM      1  C   UNL     1       8.851   9.064  19.010  0.00  0.00    +0.000 C 
ENDROOT
BRANCH   1   2
ATOM      2  C   UNL     1       8.192   7.944  18.296  0.00  0.00    +0.000 A 
ATOM      3  C   UNL     1       8.030   6.628  18.675  0.00  0.00    +0.000 A 
ATOM      4  N   UNL     1       7.348   6.066  17.641  0.00  0.00    +0.000 N 
ATOM      5  N   UNL     1       7.130   6.958  16.658  0.00  0.00    +0.000 NA
ATOM      6  N   UNL     1       7.643   8.117  17.050  0.00  0.00    +0.000 NA
BRANCH   4   7
ATOM      7  C   UNL     1       6.763   4.750  17.551  0.00  0.00    +0.000 C 
BRANCH   7   8
ATOM      8  C   UNL     1       5.325   4.728  17.993  0.00  0.00    +0.000 C 
ATOM      9  O   UNL     1       4.640   5.749  17.922  0.00  0.00    +0.000 OA
ATOM     10  N   UNL     1       4.880   3.504  18.484  0.00  0.00    +0.000 N 
ATOM     11  H   UNL     1       5.582   2.920  18.929  0.00  0.00    +0.000 HD
BRANCH  10  12
ATOM     12  C   UNL     1       3.558   3.371  18.955  0.00  0.00    +0.000 A 
ATOM     13  C   UNL     1       2.605   2.636  18.240  0.00  0.00    +0.000 A 
ATOM     14  C   UNL     1       1.271   2.642  18.641  0.00  0.00    +0.000 A 
ATOM     15  C   UNL     1       0.884   3.389  19.752  0.00  0.00    +0.000 A 
ATOM     16  C   UNL     1       1.844   4.076  20.498  0.00  0.00    +0.000 A 
ATOM     17  C   UNL     1       3.187   4.042  20.120  0.00  0.00    +0.000 A 
ENDBRANCH  10  12
ENDBRANCH   7   8
ENDBRANCH   4   7
ENDBRANCH   1   2
BRANCH   1  20
ATOM     18  O   UNL     1      10.615  11.258  18.755  0.00  0.00    +0.000 OA
ATOM     19  C   UNL     1       9.498  11.322  18.249  0.00  0.00    +0.000 C 
ATOM     20  N   UNL     1       8.591  10.291  18.294  0.00  0.00    +0.000 N 
ATOM     21  H   UNL     1       7.764  10.335  17.702  0.00  0.00    +0.000 HD
BRANCH  19  22
ATOM     22  C   UNL     1       9.015  12.545  17.470  0.00  0.00    +0.000 C 
BRANCH  22  23
ATOM     23  N   UNL     1       9.679  13.741  17.936  0.00  0.00    +0.000 N 
ATOM     24  S   UNL     1       8.900  14.813  19.023  0.00  0.00    +0.000 S 
ATOM     25  C   UNL     1      10.160  16.030  18.768  0.00  0.00    +0.000 A 
ATOM     26  C   UNL     1      10.269  17.274  19.372  0.00  0.00    +0.000 A 
ATOM     27  C   UNL     1      11.370  18.075  19.049  0.00  0.00    +0.000 A 
ATOM     28  C   UNL     1      12.333  17.631  18.127  0.00  0.00    +0.000 A 
ATOM     29  C   UNL     1      12.206  16.380  17.518  0.00  0.00    +0.000 A 
ATOM     30  C   UNL     1      11.114  15.599  17.849  0.00  0.00    +0.000 A 
ATOM     31  C   UNL     1      10.794  14.269  17.304  0.00  0.00    +0.000 A 
ATOM     32  O   UNL     1      11.434  13.743  16.397  0.00  0.00    +0.000 OA
ENDBRANCH  22  23
ENDBRANCH  19  22
ENDBRANCH   1  20
TORSDOF 7
ENDMDL
