MODEL 1
REMARK VINA RESULT:      -6.1      0.000      0.000
REMARK  Name = 
REMARK  9 active torsions:
REMARK  status: ('A' for Active; 'I' for Inactive)
REMARK    1  A    between atoms: C_1  and  C_2
REMARK    2  A    between atoms: C_2  and  C_3
REMARK    3  A    between atoms: C_2  and  C_4
REMARK    4  A    between atoms: C_7  and  O_8
REMARK    5  A    between atoms: O_8  and  C_9
REMARK    6  A    between atoms: C_9  and  C_10
REMARK    7  A    between atoms: C_10  and  N_11
REMARK    8  A    between atoms: N_11  and  S_12
REMARK    9  A    between atoms: S_12  and  C_13
REMARK                            x       y       z     vdW  Elec       q    Type
REMARK                         _______ _______ _______ _____ _____    ______ ____
ROOT
ATOM      1  O   UNL     1       6.455   4.323  18.823  0.00  0.00    +0.000 OA
ENDROOT
BRANCH   1   5
ATOM      2  C   UNL     1       3.081   4.254  19.108  0.00  0.00    +0.000 A 
ATOM      3  N   UNL     1       3.321   5.447  19.672  0.00  0.00    +0.000 NA
ATOM      4  O   UNL     1       4.715   5.546  19.623  0.00  0.00    +0.000 OA
ATOM      5  C   UNL     1       5.149   4.412  19.014  0.00  0.00    +0.000 A 
ATOM      6  N   UNL     1       4.199   3.577  18.673  0.00  0.00    +0.000 NA
BRANCH   2   8
ATOM      7  C   UNL     1       1.694   2.284  18.449  0.00  0.00    +0.000 C 
ATOM      8  C   UNL     1       1.691   3.730  18.945  0.00  0.00    +0.000 C 
ATOM      9  C   UNL     1       0.882   3.852  20.236  0.00  0.00    +0.000 C 
ENDBRANCH   2   8
ENDBRANCH   1   5
BRANCH   1  10
ATOM     10  C   UNL     1       7.151   5.565  18.926  0.00  0.00    +0.000 C 
BRANCH  10  11
ATOM     11  C   UNL     1       7.381   6.115  17.515  0.00  0.00    +0.000 C 
BRANCH  11  12
ATOM     12  N   UNL     1       7.630   5.015  16.559  0.00  0.00    +0.000 NA
ATOM     13  H   UNL     1       7.830   4.099  16.962  0.00  0.00    +0.000 HD
BRANCH  12  14
ATOM     14  S   UNL     1       6.579   4.859  15.258  0.00  0.00    +0.000 S 
ATOM     15  C   UNL     1       5.295   6.025  15.663  0.00  0.00    +0.000 C 
ATOM     16  O   UNL     1       7.292   5.338  14.098  0.00  0.00    +0.000 OA
ATOM     17  O   UNL     1       6.031   3.519  15.305  0.00  0.00    +0.000 OA
ENDBRANCH  12  14
ENDBRANCH  11  12
ENDBRANCH  10  11
ENDBRANCH   1  10
TORSDOF 6
ENDMDL
MODEL 2
REMARK VINA RESULT:      -6.1      1.591      1.995
REMARK  Name = 
REMARK  9 active torsions:
REMARK  status: ('A' for Active; 'I' for Inactive)
REMARK    1  A    between atoms: C_1  and  C_2
REMARK    2  A    between atoms: C_2  and  C_3
REMARK    3  A    between atoms: C_2  and  C_4
REMARK    4  A    between atoms: C_7  and  O_8
REMARK    5  A    between atoms: O_8  and  C_9
REMARK    6  A    between atoms: C_9  and  C_10
REMARK    7  A    between atoms: C_10  and  N_11
REMARK    8  A    between atoms: N_11  and  S_12
REMARK    9  A    between atoms: S_12  and  C_13
REMARK                            x       y       z     vdW  Elec       q    Type
REMARK                         _______ _______ _______ _____ _____    ______ ____
ROOT
ATOM      1  O   UNL     1       4.877   6.137  18.576  0.00  0.00    +0.000 OA
ENDROOT
BRANCH   1   5
ATOM      2  C   UNL     1       2.596   3.871  19.640  0.00  0.00    +0.000 A 
ATOM      3  N   UNL     1       3.665   3.067  19.532  0.00  0.00    +0.000 NA
ATOM      4  O   UNL     1       4.662   3.928  19.062  0.00  0.00    +0.000 OA
ATOM      5  C   UNL     1       4.083   5.152  18.964  0.00  0.00    +0.000 A 
ATOM      6  N   UNL     1       2.818   5.188  19.304  0.00  0.00    +0.000 NA
BRANCH   2   8
ATOM      7  C   UNL     1       0.653   2.389  19.120  0.00  0.00    +0.000 C 
ATOM      8  C   UNL     1       1.277   3.360  20.122  0.00  0.00    +0.000 C 
ATOM      9  C   UNL     1       1.389   2.709  21.501  0.00  0.00    +0.000 C 
ENDBRANCH   2   8
ENDBRANCH   1   5
BRANCH   1  10
ATOM     10  C   UNL     1       4.337   6.955  17.539  0.00  0.00    +0.000 C 
BRANCH  10  11
ATOM     11  C   UNL     1       5.014   6.580  16.217  0.00  0.00    +0.000 C 
BRANCH  11  12
ATOM     12  N   UNL     1       6.467   6.381  16.412  0.00  0.00    +0.000 NA
ATOM     13  H   UNL     1       6.836   6.607  17.336  0.00  0.00    +0.000 HD
BRANCH  12  14
ATOM     14  S   UNL     1       7.139   4.947  15.852  0.00  0.00    +0.000 S 
ATOM     15  C   UNL     1       5.710   3.896  15.685  0.00  0.00    +0.000 C 
ATOM     16  O   UNL     1       7.664   5.230  14.538  0.00  0.00    +0.000 OA
ATOM     17  O   UNL     1       7.986   4.428  16.906  0.00  0.00    +0.000 OA
ENDBRANCH  12  14
ENDBRANCH  11  12
ENDBRANCH  10  11
ENDBRANCH   1  10
TORSDOF 6
ENDMDL
MODEL 3
REMARK VINA RESULT:      -6.1      3.357      6.059
REMARK  Name = 
REMARK  9 active torsions:
REMARK  status: ('A' for Active; 'I' for Inactive)
REMARK    1  A    between atoms: C_1  and  C_2
REMARK    2  A    between atoms: C_2  and  C_3
REMARK    3  A    between atoms: C_2  and  C_4
REMARK    4  A    between atoms: C_7  and  O_8
REMARK    5  A    between atoms: O_8  and  C_9
REMARK    6  A    between atoms: C_9  and  C_10
REMARK    7  A    between atoms: C_10  and  N_11
REMARK    8  A    between atoms: N_11  and  S_12
REMARK    9  A    between atoms: S_12  and  C_13
REMARK                            x       y       z     vdW  Elec       q    Type
REMARK                         _______ _______ _______ _____ _____    ______ ____
ROOT
ATOM      1  O   UNL     1       7.399   5.590  15.454  0.00  0.00    +0.000 OA
ENDROOT
BRANCH   1   5
ATOM      2  C   UNL     1       6.344   3.712  12.841  0.00  0.00    +0.000 A 
ATOM      3  N   UNL     1       7.258   4.464  12.211  0.00  0.00    +0.000 NA
ATOM      4  O   UNL     1       7.731   5.303  13.225  0.00  0.00    +0.000 OA
ATOM      5  C   UNL     1       7.063   4.942  14.351  0.00  0.00    +0.000 A 
ATOM      6  N   UNL     1       6.198   3.972  14.186  0.00  0.00    +0.000 NA
BRANCH   2   8
ATOM      7  C   UNL     1       4.377   3.239  11.376  0.00  0.00    +0.000 C 
ATOM      8  C   UNL     1       5.573   2.651  12.124  0.00  0.00    +0.000 C 
ATOM      9  C   UNL     1       6.459   1.848  11.173  0.00  0.00    +0.000 C 
ENDBRANCH   2   8
ENDBRANCH   1   5
BRANCH   1  10
ATOM     10  C   UNL     1       6.338   5.738  16.397  0.00  0.00    +0.000 C 
BRANCH  10  11
ATOM     11  C   UNL     1       6.458   4.629  17.447  0.00  0.00    +0.000 C 
BRANCH  11  12
ATOM     12  N   UNL     1       5.419   3.598  17.239  0.00  0.00    +0.000 NA
ATOM     13  H   UNL     1       5.743   2.631  17.186  0.00  0.00    +0.000 HD
BRANCH  12  14
ATOM     14  S   UNL     1       4.028   3.694  18.176  0.00  0.00    +0.000 S 
ATOM     15  C   UNL     1       3.483   1.998  18.224  0.00  0.00    +0.000 C 
ATOM     16  O   UNL     1       4.453   4.083  19.499  0.00  0.00    +0.000 OA
ATOM     17  O   UNL     1       3.062   4.479  17.434  0.00  0.00    +0.000 OA
ENDBRANCH  12  14
ENDBRANCH  11  12
ENDBRANCH  10  11
ENDBRANCH   1  10
TORSDOF 6
ENDMDL
MODEL 4
REMARK VINA RESULT:      -5.9      2.046      2.362
REMARK  Name = 
REMARK  9 active torsions:
REMARK  status: ('A' for Active; 'I' for Inactive)
REMARK    1  A    between atoms: C_1  and  C_2
REMARK    2  A    between atoms: C_2  and  C_3
REMARK    3  A    between atoms: C_2  and  C_4
REMARK    4  A    between atoms: C_7  and  O_8
REMARK    5  A    between atoms: O_8  and  C_9
REMARK    6  A    between atoms: C_9  and  C_10
REMARK    7  A    between atoms: C_10  and  N_11
REMARK    8  A    between atoms: N_11  and  S_12
REMARK    9  A    between atoms: S_12  and  C_13
REMARK                            x       y       z     vdW  Elec       q    Type
REMARK                         _______ _______ _______ _____ _____    ______ ____
ROOT
ATOM      1  O   UNL     1       3.071   6.981  17.662  0.00  0.00    +0.000 OA
ENDROOT
BRANCH   1   5
ATOM      2  C   UNL     1       1.689   4.760  19.813  0.00  0.00    +0.000 A 
ATOM      3  N   UNL     1       1.777   5.822  20.627  0.00  0.00    +0.000 NA
ATOM      4  O   UNL     1       2.375   6.793  19.817  0.00  0.00    +0.000 OA
ATOM      5  C   UNL     1       2.554   6.209  18.604  0.00  0.00    +0.000 A 
ATOM      6  N   UNL     1       2.154   4.963  18.532  0.00  0.00    +0.000 NA
BRANCH   2   8
ATOM      7  C   UNL     1       0.870   2.509  19.103  0.00  0.00    +0.000 C 
ATOM      8  C   UNL     1       1.094   3.468  20.272  0.00  0.00    +0.000 C 
ATOM      9  C   UNL     1       1.944   2.804  21.355  0.00  0.00    +0.000 C 
ENDBRANCH   2   8
ENDBRANCH   1   5
BRANCH   1  10
ATOM     10  C   UNL     1       4.496   7.032  17.659  0.00  0.00    +0.000 C 
BRANCH  10  11
ATOM     11  C   UNL     1       5.002   6.504  16.313  0.00  0.00    +0.000 C 
BRANCH  11  12
ATOM     12  N   UNL     1       6.476   6.379  16.321  0.00  0.00    +0.000 NA
ATOM     13  H   UNL     1       6.949   6.642  17.186  0.00  0.00    +0.000 HD
BRANCH  12  14
ATOM     14  S   UNL     1       7.141   4.967  15.700  0.00  0.00    +0.000 S 
ATOM     15  C   UNL     1       5.704   3.947  15.445  0.00  0.00    +0.000 C 
ATOM     16  O   UNL     1       7.701   5.312  14.415  0.00  0.00    +0.000 OA
ATOM     17  O   UNL     1       7.957   4.381  16.744  0.00  0.00    +0.000 OA
ENDBRANCH  12  14
ENDBRANCH  11  12
ENDBRANCH  10  11
ENDBRANCH   1  10
TORSDOF 6
ENDMDL
MODEL 5
REMARK VINA RESULT:      -5.9      1.273      1.805
REMARK  Name = 
REMARK  9 active torsions:
REMARK  status: ('A' for Active; 'I' for Inactive)
REMARK    1  A    between atoms: C_1  and  C_2
REMARK    2  A    between atoms: C_2  and  C_3
REMARK    3  A    between atoms: C_2  and  C_4
REMARK    4  A    between atoms: C_7  and  O_8
REMARK    5  A    between atoms: O_8  and  C_9
REMARK    6  A    between atoms: C_9  and  C_10
REMARK    7  A    between atoms: C_10  and  N_11
REMARK    8  A    between atoms: N_11  and  S_12
REMARK    9  A    between atoms: S_12  and  C_13
REMARK                            x       y       z     vdW  Elec       q    Type
REMARK                         _______ _______ _______ _____ _____    ______ ____
ROOT
ATOM      1  O   UNL     1       6.421   5.282  19.661  0.00  0.00    +0.000 OA
ENDROOT
BRANCH   1   5
ATOM      2  C   UNL     1       3.390   3.841  19.204  0.00  0.00    +0.000 A 
ATOM      3  N   UNL     1       4.106   2.747  19.501  0.00  0.00    +0.000 NA
ATOM      4  O   UNL     1       5.398   3.253  19.679  0.00  0.00    +0.000 OA
ATOM      5  C   UNL     1       5.303   4.595  19.491  0.00  0.00    +0.000 A 
ATOM      6  N   UNL     1       4.100   5.022  19.198  0.00  0.00    +0.000 NA
BRANCH   2   8
ATOM      7  C   UNL     1       1.551   4.508  17.650  0.00  0.00    +0.000 C 
ATOM      8  C   UNL     1       1.922   3.768  18.935  0.00  0.00    +0.000 C 
ATOM      9  C   UNL     1       1.425   2.323  18.883  0.00  0.00    +0.000 C 
ENDBRANCH   2   8
ENDBRANCH   1   5
BRANCH   1  10
ATOM     10  C   UNL     1       7.443   4.989  18.710  0.00  0.00    +0.000 C 
BRANCH  10  11
ATOM     11  C   UNL     1       7.087   5.669  17.385  0.00  0.00    +0.000 C 
BRANCH  11  12
ATOM     12  N   UNL     1       7.432   4.796  16.241  0.00  0.00    +0.000 NA
ATOM     13  H   UNL     1       7.336   3.791  16.392  0.00  0.00    +0.000 HD
BRANCH  12  14
ATOM     14  S   UNL     1       6.828   5.217  14.731  0.00  0.00    +0.000 S 
ATOM     15  C   UNL     1       6.166   3.672  14.141  0.00  0.00    +0.000 C 
ATOM     16  O   UNL     1       5.737   6.130  14.968  0.00  0.00    +0.000 OA
ATOM     17  O   UNL     1       7.958   5.591  13.905  0.00  0.00    +0.000 OA
ENDBRANCH  12  14
ENDBRANCH  11  12
ENDBRANCH  10  11
ENDBRANCH   1  10
TORSDOF 6
ENDMDL
MODEL 6
REMARK VINA RESULT:      -5.9      1.993      3.026
REMARK  Name = 
REMARK  9 active torsions:
REMARK  status: ('A' for Active; 'I' for Inactive)
REMARK    1  A    between atoms: C_1  and  C_2
REMARK    2  A    between atoms: C_2  and  C_3
REMARK    3  A    between atoms: C_2  and  C_4
REMARK    4  A    between atoms: C_7  and  O_8
REMARK    5  A    between atoms: O_8  and  C_9
REMARK    6  A    between atoms: C_9  and  C_10
REMARK    7  A    between atoms: C_10  and  N_11
REMARK    8  A    between atoms: N_11  and  S_12
REMARK    9  A    between atoms: S_12  and  C_13
REMARK                            x       y       z     vdW  Elec       q    Type
REMARK                         _______ _______ _______ _____ _____    ______ ____
ROOT
ATOM      1  O   UNL     1       4.716   4.781  16.452  0.00  0.00    +0.000 OA
ENDROOT
BRANCH   1   5
ATOM      2  C   UNL     1       2.566   3.535  18.753  0.00  0.00    +0.000 A 
ATOM      3  N   UNL     1       3.673   2.864  19.106  0.00  0.00    +0.000 NA
ATOM      4  O   UNL     1       4.619   3.302  18.174  0.00  0.00    +0.000 OA
ATOM      5  C   UNL     1       3.978   4.202  17.384  0.00  0.00    +0.000 A 
ATOM      6  N   UNL     1       2.717   4.393  17.686  0.00  0.00    +0.000 NA
BRANCH   2   8
ATOM      7  C   UNL     1       0.364   2.359  18.817  0.00  0.00    +0.000 C 
ATOM      8  C   UNL     1       1.281   3.374  19.498  0.00  0.00    +0.000 C 
ATOM      9  C   UNL     1       1.515   2.990  20.959  0.00  0.00    +0.000 C 
ENDBRANCH   2   8
ENDBRANCH   1   5
BRANCH   1  10
ATOM     10  C   UNL     1       5.865   4.031  16.060  0.00  0.00    +0.000 C 
BRANCH  10  11
ATOM     11  C   UNL     1       7.119   4.776  16.527  0.00  0.00    +0.000 C 
BRANCH  11  12
ATOM     12  N   UNL     1       7.511   4.341  17.884  0.00  0.00    +0.000 NA
ATOM     13  H   UNL     1       8.348   3.761  17.951  0.00  0.00    +0.000 HD
BRANCH  12  14
ATOM     14  S   UNL     1       7.505   5.495  19.105  0.00  0.00    +0.000 S 
ATOM     15  C   UNL     1       7.873   6.993  18.216  0.00  0.00    +0.000 C 
ATOM     16  O   UNL     1       6.148   5.564  19.593  0.00  0.00    +0.000 OA
ATOM     17  O   UNL     1       8.609   5.189  19.992  0.00  0.00    +0.000 OA
ENDBRANCH  12  14
ENDBRANCH  11  12
ENDBRANCH  10  11
ENDBRANCH   1  10
TORSDOF 6
ENDMDL
MODEL 7
REMARK VINA RESULT:      -5.9      1.527      1.847
REMARK  Name = 
REMARK  9 active torsions:
REMARK  status: ('A' for Active; 'I' for Inactive)
REMARK    1  A    between atoms: C_1  and  C_2
REMARK    2  A    between atoms: C_2  and  C_3
REMARK    3  A    between atoms: C_2  and  C_4
REMARK    4  A    between atoms: C_7  and  O_8
REMARK    5  A    between atoms: O_8  and  C_9
REMARK    6  A    between atoms: C_9  and  C_10
REMARK    7  A    between atoms: C_10  and  N_11
REMARK    8  A    between atoms: N_11  and  S_12
REMARK    9  A    between atoms: S_12  and  C_13
REMARK                            x       y       z     vdW  Elec       q    Type
REMARK                         _______ _______ _______ _____ _____    ______ ____
ROOT
ATOM      1  O   UNL     1       4.867   5.266  17.863  0.00  0.00    +0.000 OA
ENDROOT
BRANCH   1   5
ATOM      2  C   UNL     1       3.035   2.969  19.549  0.00  0.00    +0.000 A 
ATOM      3  N   UNL     1       4.254   2.659  20.017  0.00  0.00    +0.000 NA
ATOM      4  O   UNL     1       5.090   3.553  19.340  0.00  0.00    +0.000 OA
ATOM      5  C   UNL     1       4.274   4.311  18.562  0.00  0.00    +0.000 A 
ATOM      6  N   UNL     1       3.003   4.007  18.643  0.00  0.00    +0.000 NA
BRANCH   2   8
ATOM      7  C   UNL     1       1.378   2.724  21.402  0.00  0.00    +0.000 C 
ATOM      8  C   UNL     1       1.811   2.250  20.014  0.00  0.00    +0.000 C 
ATOM      9  C   UNL     1       0.659   2.385  19.018  0.00  0.00    +0.000 C 
ENDBRANCH   2   8
ENDBRANCH   1   5
BRANCH   1  10
ATOM     10  C   UNL     1       6.001   5.848  18.505  0.00  0.00    +0.000 C 
BRANCH  10  11
ATOM     11  C   UNL     1       6.788   6.656  17.469  0.00  0.00    +0.000 C 
BRANCH  11  12
ATOM     12  N   UNL     1       6.379   6.287  16.097  0.00  0.00    +0.000 NA
ATOM     13  H   UNL     1       6.252   7.056  15.438  0.00  0.00    +0.000 HD
BRANCH  12  14
ATOM     14  S   UNL     1       7.192   5.017  15.357  0.00  0.00    +0.000 S 
ATOM     15  C   UNL     1       5.856   4.042  14.696  0.00  0.00    +0.000 C 
ATOM     16  O   UNL     1       7.934   5.592  14.261  0.00  0.00    +0.000 OA
ATOM     17  O   UNL     1       7.854   4.262  16.401  0.00  0.00    +0.000 OA
ENDBRANCH  12  14
ENDBRANCH  11  12
ENDBRANCH  10  11
ENDBRANCH   1  10
TORSDOF 6
ENDMDL
MODEL 8
REMARK VINA RESULT:      -5.9      2.166      3.289
REMARK  Name = 
REMARK  9 active torsions:
REMARK  status: ('A' for Active; 'I' for Inactive)
REMARK    1  A    between atoms: C_1  and  C_2
REMARK    2  A    between atoms: C_2  and  C_3
REMARK    3  A    between atoms: C_2  and  C_4
REMARK    4  A    between atoms: C_7  and  O_8
REMARK    5  A    between atoms: O_8  and  C_9
REMARK    6  A    between atoms: C_9  and  C_10
REMARK    7  A    between atoms: C_10  and  N_11
REMARK    8  A    between atoms: N_11  and  S_12
REMARK    9  A    between atoms: S_12  and  C_13
REMARK                            x       y       z     vdW  Elec       q    Type
REMARK                         _______ _______ _______ _____ _____    ______ ____
ROOT
ATOM      1  O   UNL     1       4.525   3.345  16.858  0.00  0.00    +0.000 OA
ENDROOT
BRANCH   1   5
ATOM      2  C   UNL     1       2.013   3.391  19.129  0.00  0.00    +0.000 A 
ATOM      3  N   UNL     1       1.592   2.374  18.362  0.00  0.00    +0.000 NA
ATOM      4  O   UNL     1       2.571   2.303  17.365  0.00  0.00    +0.000 OA
ATOM      5  C   UNL     1       3.477   3.270  17.662  0.00  0.00    +0.000 A 
ATOM      6  N   UNL     1       3.197   3.973  18.731  0.00  0.00    +0.000 NA
BRANCH   2   8
ATOM      7  C   UNL     1       1.546   2.916  21.537  0.00  0.00    +0.000 C 
ATOM      8  C   UNL     1       1.255   3.824  20.342  0.00  0.00    +0.000 C 
ATOM      9  C   UNL     1       1.537   5.283  20.697  0.00  0.00    +0.000 C 
ENDBRANCH   2   8
ENDBRANCH   1   5
BRANCH   1  10
ATOM     10  C   UNL     1       5.101   4.646  16.760  0.00  0.00    +0.000 C 
BRANCH  10  11
ATOM     11  C   UNL     1       6.623   4.503  16.666  0.00  0.00    +0.000 C 
BRANCH  11  12
ATOM     12  N   UNL     1       7.208   4.262  18.003  0.00  0.00    +0.000 NA
ATOM     13  H   UNL     1       8.097   3.760  18.025  0.00  0.00    +0.000 HD
BRANCH  12  14
ATOM     14  S   UNL     1       7.240   5.548  19.083  0.00  0.00    +0.000 S 
ATOM     15  C   UNL     1       7.552   6.938  18.013  0.00  0.00    +0.000 C 
ATOM     16  O   UNL     1       5.905   5.664  19.618  0.00  0.00    +0.000 OA
ATOM     17  O   UNL     1       8.384   5.354  19.950  0.00  0.00    +0.000 OA
ENDBRANCH  12  14
ENDBRANCH  11  12
ENDBRANCH  10  11
ENDBRANCH   1  10
TORSDOF 6
ENDMDL
MODEL 9
REMARK VINA RESULT:      -5.9      1.281      1.512
REMARK  Name = 
REMARK  9 active torsions:
REMARK  status: ('A' for Active; 'I' for Inactive)
REMARK    1  A    between atoms: C_1  and  C_2
REMARK    2  A    between atoms: C_2  and  C_3
REMARK    3  A    between atoms: C_2  and  C_4
REMARK    4  A    between atoms: C_7  and  O_8
REMARK    5  A    between atoms: O_8  and  C_9
REMARK    6  A    between atoms: C_9  and  C_10
REMARK    7  A    between atoms: C_10  and  N_11
REMARK    8  A    between atoms: N_11  and  S_12
REMARK    9  A    between atoms: S_12  and  C_13
REMARK                            x       y       z     vdW  Elec       q    Type
REMARK                         _______ _______ _______ _____ _____    ______ ____
ROOT
ATOM      1  O   UNL     1       6.171   4.373  19.422  0.00  0.00    +0.000 OA
ENDROOT
BRANCH   1   5
ATOM      2  C   UNL     1       2.811   4.111  19.764  0.00  0.00    +0.000 A 
ATOM      3  N   UNL     1       2.922   5.447  19.737  0.00  0.00    +0.000 NA
ATOM      4  O   UNL     1       4.302   5.649  19.626  0.00  0.00    +0.000 OA
ATOM      5  C   UNL     1       4.857   4.410  19.576  0.00  0.00    +0.000 A 
ATOM      6  N   UNL     1       4.000   3.423  19.655  0.00  0.00    +0.000 NA
BRANCH   2   8
ATOM      7  C   UNL     1       1.295   2.390  18.774  0.00  0.00    +0.000 C 
ATOM      8  C   UNL     1       1.483   3.436  19.873  0.00  0.00    +0.000 C 
ATOM      9  C   UNL     1       1.274   2.810  21.251  0.00  0.00    +0.000 C 
ENDBRANCH   2   8
ENDBRANCH   1   5
BRANCH   1  10
ATOM     10  C   UNL     1       6.650   5.085  18.282  0.00  0.00    +0.000 C 
BRANCH  10  11
ATOM     11  C   UNL     1       6.461   4.208  17.041  0.00  0.00    +0.000 C 
BRANCH  11  12
ATOM     12  N   UNL     1       7.460   4.547  16.004  0.00  0.00    +0.000 NA
ATOM     13  H   UNL     1       8.175   3.843  15.816  0.00  0.00    +0.000 HD
BRANCH  12  14
ATOM     14  S   UNL     1       6.897   5.203  14.564  0.00  0.00    +0.000 S 
ATOM     15  C   UNL     1       6.152   3.794  13.768  0.00  0.00    +0.000 C 
ATOM     16  O   UNL     1       5.857   6.138  14.922  0.00  0.00    +0.000 OA
ATOM     17  O   UNL     1       8.054   5.619  13.799  0.00  0.00    +0.000 OA
ENDBRANCH  12  14
ENDBRANCH  11  12
ENDBRANCH  10  11
ENDBRANCH   1  10
TORSDOF 6
ENDMDL
