MODEL 1
REMARK VINA RESULT:      -8.4      0.000      0.000
REMARK  Name = 
REMARK  5 active torsions:
REMARK  status: ('A' for Active; 'I' for Inactive)
REMARK    1  A    between atoms: C_2  and  C_14
REMARK    2  A    between atoms: N_3  and  C_4
REMARK    3  A    between atoms: C_8  and  C_9
REMARK    4  A    between atoms: N_20  and  C_21
REMARK    5  A    between atoms: C_21  and  C_22
REMARK                            x       y       z     vdW  Elec       q    Type
REMARK                         _______ _______ _______ _____ _____    ______ ____
ROOT
ATOM      1  O   UNL     1       4.619   7.600  17.326  0.00  0.00    +0.000 OA
ATOM      2  C   UNL     1       4.375   6.728  18.159  0.00  0.00    +0.000 C 
ATOM      3  N   UNL     1       3.293   6.728  19.039  0.00  0.00    +0.000 N 
ATOM      4  H   UNL     1       3.281   6.006  19.755  0.00  0.00    +0.000 HD
ENDROOT
BRANCH   2   5
ATOM      5  C   UNL     1       5.302   5.499  18.239  0.00  0.00    +0.000 C 
ATOM      6  C   UNL     1       6.691   5.971  18.683  0.00  0.00    +0.000 C 
ATOM      7  O   UNL     1       7.583   4.858  18.715  0.00  0.00    +0.000 OA
ATOM      8  C   UNL     1       7.753   4.326  17.410  0.00  0.00    +0.000 C 
ATOM      9  C   UNL     1       6.506   4.165  16.516  0.00  0.00    +0.000 C 
ATOM     10  O   UNL     1       6.582   3.594  15.429  0.00  0.00    +0.000 OA
ATOM     11  N   UNL     1       5.328   4.743  16.976  0.00  0.00    +0.000 N 
BRANCH  11  12
ATOM     12  C   UNL     1       4.058   4.326  16.371  0.00  0.00    +0.000 C 
BRANCH  12  13
ATOM     13  C   UNL     1       3.137   3.520  17.266  0.00  0.00    +0.000 A 
ATOM     14  C   UNL     1       3.572   2.331  17.876  0.00  0.00    +0.000 A 
ATOM     15  C   UNL     1       2.768   1.675  18.815  0.00  0.00    +0.000 A 
ATOM     16  C   UNL     1       1.518   2.192  19.152  0.00  0.00    +0.000 A 
ATOM     17  C   UNL     1       1.054   3.349  18.527  0.00  0.00    +0.000 A 
ATOM     18  C   UNL     1       1.856   4.001  17.583  0.00  0.00    +0.000 A 
ENDBRANCH  12  13
ENDBRANCH  11  12
ENDBRANCH   2   5
BRANCH   3  19
ATOM     19  C   UNL     1       2.293   7.735  19.136  0.00  0.00    +0.000 A 
ATOM     20  C   UNL     1       1.896   8.512  18.046  0.00  0.00    +0.000 A 
ATOM     21  C   UNL     1       0.948   9.527  18.185  0.00  0.00    +0.000 A 
ATOM     22  C   UNL     1       0.366   9.776  19.417  0.00  0.00    +0.000 A 
ATOM     23  C   UNL     1       0.715   8.998  20.529  0.00  0.00    +0.000 A 
ATOM     24  C   UNL     1       1.675   7.969  20.377  0.00  0.00    +0.000 A 
BRANCH  23  25
ATOM     25  C   UNL     1       0.083   9.285  21.873  0.00  0.00    +0.000 C 
ATOM     26  F   UNL     1      -0.875   8.384  22.232  0.00  0.00    +0.000 F 
ATOM     27  F   UNL     1       0.991   9.279  22.888  0.00  0.00    +0.000 F 
ATOM     28  F   UNL     1      -0.518  10.507  21.915  0.00  0.00    +0.000 F 
ENDBRANCH  23  25
ENDBRANCH   3  19
TORSDOF 5
ENDMDL
MODEL 2
REMARK VINA RESULT:      -8.2      5.075      7.727
REMARK  Name = 
REMARK  5 active torsions:
REMARK  status: ('A' for Active; 'I' for Inactive)
REMARK    1  A    between atoms: C_2  and  C_14
REMARK    2  A    between atoms: N_3  and  C_4
REMARK    3  A    between atoms: C_8  and  C_9
REMARK    4  A    between atoms: N_20  and  C_21
REMARK    5  A    between atoms: C_21  and  C_22
REMARK                            x       y       z     vdW  Elec       q    Type
REMARK                         _______ _______ _______ _____ _____    ______ ____
ROOT
ATOM      1  O   UNL     1       5.844   4.302  19.051  0.00  0.00    +0.000 OA
ATOM      2  C   UNL     1       4.888   3.730  18.530  0.00  0.00    +0.000 C 
ATOM      3  N   UNL     1       4.704   3.541  17.161  0.00  0.00    +0.000 N 
ATOM      4  H   UNL     1       3.809   3.159  16.864  0.00  0.00    +0.000 HD
ENDROOT
BRANCH   2   5
ATOM      5  C   UNL     1       3.802   3.124  19.440  0.00  0.00    +0.000 C 
ATOM      6  C   UNL     1       3.264   1.854  18.770  0.00  0.00    +0.000 C 
ATOM      7  O   UNL     1       2.220   1.301  19.568  0.00  0.00    +0.000 OA
ATOM      8  C   UNL     1       1.123   2.199  19.634  0.00  0.00    +0.000 C 
ATOM      9  C   UNL     1       1.414   3.699  19.849  0.00  0.00    +0.000 C 
ATOM     10  O   UNL     1       0.496   4.496  20.039  0.00  0.00    +0.000 OA
ATOM     11  N   UNL     1       2.743   4.096  19.762  0.00  0.00    +0.000 N 
BRANCH  11  12
ATOM     12  C   UNL     1       3.122   5.405  20.303  0.00  0.00    +0.000 C 
BRANCH  12  13
ATOM     13  C   UNL     1       2.664   6.606  19.498  0.00  0.00    +0.000 A 
ATOM     14  C   UNL     1       1.883   7.618  20.081  0.00  0.00    +0.000 A 
ATOM     15  C   UNL     1       1.591   8.791  19.374  0.00  0.00    +0.000 A 
ATOM     16  C   UNL     1       2.067   8.965  18.075  0.00  0.00    +0.000 A 
ATOM     17  C   UNL     1       2.809   7.953  17.467  0.00  0.00    +0.000 A 
ATOM     18  C   UNL     1       3.095   6.778  18.172  0.00  0.00    +0.000 A 
ENDBRANCH  12  13
ENDBRANCH  11  12
ENDBRANCH   2   5
BRANCH   3  19
ATOM     19  C   UNL     1       5.579   3.985  16.129  0.00  0.00    +0.000 A 
ATOM     20  C   UNL     1       6.624   4.882  16.360  0.00  0.00    +0.000 A 
ATOM     21  C   UNL     1       7.432   5.337  15.317  0.00  0.00    +0.000 A 
ATOM     22  C   UNL     1       7.222   4.891  14.023  0.00  0.00    +0.000 A 
ATOM     23  C   UNL     1       6.202   3.968  13.755  0.00  0.00    +0.000 A 
ATOM     24  C   UNL     1       5.389   3.510  14.820  0.00  0.00    +0.000 A 
BRANCH  23  25
ATOM     25  C   UNL     1       5.972   3.496  12.337  0.00  0.00    +0.000 C 
ATOM     26  F   UNL     1       6.818   4.057  11.427  0.00  0.00    +0.000 F 
ATOM     27  F   UNL     1       6.131   2.150  12.204  0.00  0.00    +0.000 F 
ATOM     28  F   UNL     1       4.713   3.769  11.896  0.00  0.00    +0.000 F 
ENDBRANCH  23  25
ENDBRANCH   3  19
TORSDOF 5
ENDMDL
MODEL 3
REMARK VINA RESULT:      -8.1      0.926      1.312
REMARK  Name = 
REMARK  5 active torsions:
REMARK  status: ('A' for Active; 'I' for Inactive)
REMARK    1  A    between atoms: C_2  and  C_14
REMARK    2  A    between atoms: N_3  and  C_4
REMARK    3  A    between atoms: C_8  and  C_9
REMARK    4  A    between atoms: N_20  and  C_21
REMARK    5  A    between atoms: C_21  and  C_22
REMARK                            x       y       z     vdW  Elec       q    Type
REMARK                         _______ _______ _______ _____ _____    ______ ____
ROOT
ATOM      1  O   UNL     1       3.785   7.470  16.869  0.00  0.00    +0.000 OA
ATOM      2  C   UNL     1       3.935   6.892  17.944  0.00  0.00    +0.000 C 
ATOM      3  N   UNL     1       3.180   7.114  19.096  0.00  0.00    +0.000 N 
ATOM      4  H   UNL     1       3.491   6.653  19.947  0.00  0.00    +0.000 HD
ENDROOT
BRANCH   2   5
ATOM      5  C   UNL     1       5.015   5.798  18.053  0.00  0.00    +0.000 C 
ATOM      6  C   UNL     1       6.387   6.453  17.860  0.00  0.00    +0.000 C 
ATOM      7  O   UNL     1       7.402   5.452  17.905  0.00  0.00    +0.000 OA
ATOM      8  C   UNL     1       7.249   4.546  16.823  0.00  0.00    +0.000 C 
ATOM      9  C   UNL     1       5.829   4.052  16.477  0.00  0.00    +0.000 C 
ATOM     10  O   UNL     1       5.659   3.172  15.633  0.00  0.00    +0.000 OA
ATOM     11  N   UNL     1       4.772   4.685  17.120  0.00  0.00    +0.000 N 
BRANCH  11  12
ATOM     12  C   UNL     1       3.456   4.038  17.114  0.00  0.00    +0.000 C 
BRANCH  12  13
ATOM     13  C   UNL     1       2.868   3.732  18.478  0.00  0.00    +0.000 A 
ATOM     14  C   UNL     1       1.537   4.058  18.787  0.00  0.00    +0.000 A 
ATOM     15  C   UNL     1       0.961   3.640  19.992  0.00  0.00    +0.000 A 
ATOM     16  C   UNL     1       1.707   2.897  20.906  0.00  0.00    +0.000 A 
ATOM     17  C   UNL     1       3.041   2.600  20.634  0.00  0.00    +0.000 A 
ATOM     18  C   UNL     1       3.619   3.025  19.432  0.00  0.00    +0.000 A 
ENDBRANCH  12  13
ENDBRANCH  11  12
ENDBRANCH   2   5
BRANCH   3  19
ATOM     19  C   UNL     1       2.116   8.049  19.232  0.00  0.00    +0.000 A 
ATOM     20  C   UNL     1       1.647   8.819  18.166  0.00  0.00    +0.000 A 
ATOM     21  C   UNL     1       0.637   9.766  18.344  0.00  0.00    +0.000 A 
ATOM     22  C   UNL     1       0.063   9.950  19.591  0.00  0.00    +0.000 A 
ATOM     23  C   UNL     1       0.485   9.175  20.680  0.00  0.00    +0.000 A 
ATOM     24  C   UNL     1       1.509   8.216  20.489  0.00  0.00    +0.000 A 
BRANCH  23  25
ATOM     25  C   UNL     1      -0.139   9.392  22.041  0.00  0.00    +0.000 C 
ATOM     26  F   UNL     1      -0.974   8.386  22.428  0.00  0.00    +0.000 F 
ATOM     27  F   UNL     1       0.791   9.496  23.030  0.00  0.00    +0.000 F 
ATOM     28  F   UNL     1      -0.876  10.535  22.099  0.00  0.00    +0.000 F 
ENDBRANCH  23  25
ENDBRANCH   3  19
TORSDOF 5
ENDMDL
MODEL 4
REMARK VINA RESULT:      -7.9      5.106      7.827
REMARK  Name = 
REMARK  5 active torsions:
REMARK  status: ('A' for Active; 'I' for Inactive)
REMARK    1  A    between atoms: C_2  and  C_14
REMARK    2  A    between atoms: N_3  and  C_4
REMARK    3  A    between atoms: C_8  and  C_9
REMARK    4  A    between atoms: N_20  and  C_21
REMARK    5  A    between atoms: C_21  and  C_22
REMARK                            x       y       z     vdW  Elec       q    Type
REMARK                         _______ _______ _______ _____ _____    ______ ____
ROOT
ATOM      1  O   UNL     1       3.077   4.167  16.612  0.00  0.00    +0.000 OA
ATOM      2  C   UNL     1       3.883   3.721  17.426  0.00  0.00    +0.000 C 
ATOM      3  N   UNL     1       5.264   3.648  17.243  0.00  0.00    +0.000 N 
ATOM      4  H   UNL     1       5.797   3.146  17.948  0.00  0.00    +0.000 HD
ENDROOT
BRANCH   2   5
ATOM      5  C   UNL     1       3.363   3.228  18.790  0.00  0.00    +0.000 C 
ATOM      6  C   UNL     1       2.456   2.015  18.550  0.00  0.00    +0.000 C 
ATOM      7  O   UNL     1       1.920   1.569  19.794  0.00  0.00    +0.000 OA
ATOM      8  C   UNL     1       1.087   2.571  20.358  0.00  0.00    +0.000 C 
ATOM      9  C   UNL     1       1.571   4.035  20.318  0.00  0.00    +0.000 C 
ATOM     10  O   UNL     1       0.947   4.920  20.903  0.00  0.00    +0.000 OA
ATOM     11  N   UNL     1       2.700   4.300  19.551  0.00  0.00    +0.000 N 
BRANCH  11  12
ATOM     12  C   UNL     1       3.409   5.567  19.757  0.00  0.00    +0.000 C 
BRANCH  12  13
ATOM     13  C   UNL     1       2.665   6.814  19.320  0.00  0.00    +0.000 A 
ATOM     14  C   UNL     1       1.947   7.594  20.241  0.00  0.00    +0.000 A 
ATOM     15  C   UNL     1       1.389   8.820  19.857  0.00  0.00    +0.000 A 
ATOM     16  C   UNL     1       1.536   9.278  18.549  0.00  0.00    +0.000 A 
ATOM     17  C   UNL     1       2.211   8.498  17.612  0.00  0.00    +0.000 A 
ATOM     18  C   UNL     1       2.762   7.269  17.994  0.00  0.00    +0.000 A 
ENDBRANCH  12  13
ENDBRANCH  11  12
ENDBRANCH   2   5
BRANCH   3  19
ATOM     19  C   UNL     1       5.978   4.064  16.084  0.00  0.00    +0.000 A 
ATOM     20  C   UNL     1       7.018   4.993  16.131  0.00  0.00    +0.000 A 
ATOM     21  C   UNL     1       7.665   5.419  14.969  0.00  0.00    +0.000 A 
ATOM     22  C   UNL     1       7.292   4.911  13.736  0.00  0.00    +0.000 A 
ATOM     23  C   UNL     1       6.272   3.954  13.649  0.00  0.00    +0.000 A 
ATOM     24  C   UNL     1       5.625   3.526  14.834  0.00  0.00    +0.000 A 
BRANCH  23  25
ATOM     25  C   UNL     1       5.865   3.413  12.297  0.00  0.00    +0.000 C 
ATOM     26  F   UNL     1       4.574   3.695  11.959  0.00  0.00    +0.000 F 
ATOM     27  F   UNL     1       6.626   3.913  11.285  0.00  0.00    +0.000 F 
ATOM     28  F   UNL     1       5.985   2.058  12.220  0.00  0.00    +0.000 F 
ENDBRANCH  23  25
ENDBRANCH   3  19
TORSDOF 5
ENDMDL
MODEL 5
REMARK VINA RESULT:      -7.9      2.376      4.028
REMARK  Name = 
REMARK  5 active torsions:
REMARK  status: ('A' for Active; 'I' for Inactive)
REMARK    1  A    between atoms: C_2  and  C_14
REMARK    2  A    between atoms: N_3  and  C_4
REMARK    3  A    between atoms: C_8  and  C_9
REMARK    4  A    between atoms: N_20  and  C_21
REMARK    5  A    between atoms: C_21  and  C_22
REMARK                            x       y       z     vdW  Elec       q    Type
REMARK                         _______ _______ _______ _____ _____    ______ ____
ROOT
ATOM      1  O   UNL     1       1.239   4.831  17.591  0.00  0.00    +0.000 OA
ATOM      2  C   UNL     1       1.782   4.806  18.694  0.00  0.00    +0.000 C 
ATOM      3  N   UNL     1       2.218   5.921  19.408  0.00  0.00    +0.000 N 
ATOM      4  H   UNL     1       2.758   5.746  20.252  0.00  0.00    +0.000 HD
ENDROOT
BRANCH   2   5
ATOM      5  C   UNL     1       1.977   3.447  19.393  0.00  0.00    +0.000 C 
ATOM      6  C   UNL     1       1.432   3.556  20.821  0.00  0.00    +0.000 C 
ATOM      7  O   UNL     1       1.647   2.324  21.508  0.00  0.00    +0.000 OA
ATOM      8  C   UNL     1       3.038   2.072  21.641  0.00  0.00    +0.000 C 
ATOM      9  C   UNL     1       3.951   2.335  20.426  0.00  0.00    +0.000 C 
ATOM     10  O   UNL     1       5.138   2.014  20.451  0.00  0.00    +0.000 OA
ATOM     11  N   UNL     1       3.377   2.995  19.345  0.00  0.00    +0.000 N 
BRANCH  11  12
ATOM     12  C   UNL     1       4.066   2.953  18.050  0.00  0.00    +0.000 C 
BRANCH  12  13
ATOM     13  C   UNL     1       4.788   4.225  17.649  0.00  0.00    +0.000 A 
ATOM     14  C   UNL     1       5.598   4.921  18.562  0.00  0.00    +0.000 A 
ATOM     15  C   UNL     1       6.375   6.008  18.143  0.00  0.00    +0.000 A 
ATOM     16  C   UNL     1       6.349   6.416  16.810  0.00  0.00    +0.000 A 
ATOM     17  C   UNL     1       5.521   5.762  15.900  0.00  0.00    +0.000 A 
ATOM     18  C   UNL     1       4.738   4.681  16.321  0.00  0.00    +0.000 A 
ENDBRANCH  12  13
ENDBRANCH  11  12
ENDBRANCH   2   5
BRANCH   3  19
ATOM     19  C   UNL     1       2.123   7.277  18.984  0.00  0.00    +0.000 A 
ATOM     20  C   UNL     1       2.757   7.754  17.836  0.00  0.00    +0.000 A 
ATOM     21  C   UNL     1       2.687   9.101  17.475  0.00  0.00    +0.000 A 
ATOM     22  C   UNL     1       1.966   9.995  18.249  0.00  0.00    +0.000 A 
ATOM     23  C   UNL     1       1.291   9.550  19.393  0.00  0.00    +0.000 A 
ATOM     24  C   UNL     1       1.366   8.181  19.749  0.00  0.00    +0.000 A 
BRANCH  23  25
ATOM     25  C   UNL     1       0.517  10.536  20.238  0.00  0.00    +0.000 C 
ATOM     26  F   UNL     1       0.407  11.773  19.676  0.00  0.00    +0.000 F 
ATOM     27  F   UNL     1      -0.760  10.128  20.476  0.00  0.00    +0.000 F 
ATOM     28  F   UNL     1       1.082  10.729  21.462  0.00  0.00    +0.000 F 
ENDBRANCH  23  25
ENDBRANCH   3  19
TORSDOF 5
ENDMDL
MODEL 6
REMARK VINA RESULT:      -7.8      0.986      1.521
REMARK  Name = 
REMARK  5 active torsions:
REMARK  status: ('A' for Active; 'I' for Inactive)
REMARK    1  A    between atoms: C_2  and  C_14
REMARK    2  A    between atoms: N_3  and  C_4
REMARK    3  A    between atoms: C_8  and  C_9
REMARK    4  A    between atoms: N_20  and  C_21
REMARK    5  A    between atoms: C_21  and  C_22
REMARK                            x       y       z     vdW  Elec       q    Type
REMARK                         _______ _______ _______ _____ _____    ______ ____
ROOT
ATOM      1  O   UNL     1       3.361   5.403  20.269  0.00  0.00    +0.000 OA
ATOM      2  C   UNL     1       3.955   5.680  19.228  0.00  0.00    +0.000 C 
ATOM      3  N   UNL     1       3.684   6.773  18.406  0.00  0.00    +0.000 N 
ATOM      4  H   UNL     1       4.173   6.812  17.515  0.00  0.00    +0.000 HD
ENDROOT
BRANCH   2   5
ATOM      5  C   UNL     1       5.130   4.786  18.786  0.00  0.00    +0.000 C 
ATOM      6  C   UNL     1       6.432   5.415  19.295  0.00  0.00    +0.000 C 
ATOM      7  O   UNL     1       7.541   4.633  18.855  0.00  0.00    +0.000 OA
ATOM      8  C   UNL     1       7.627   4.655  17.438  0.00  0.00    +0.000 C 
ATOM      9  C   UNL     1       6.327   4.501  16.622  0.00  0.00    +0.000 C 
ATOM     10  O   UNL     1       6.364   4.387  15.397  0.00  0.00    +0.000 OA
ATOM     11  N   UNL     1       5.133   4.554  17.332  0.00  0.00    +0.000 N 
BRANCH  11  12
ATOM     12  C   UNL     1       3.910   4.063  16.688  0.00  0.00    +0.000 C 
BRANCH  12  13
ATOM     13  C   UNL     1       2.906   3.397  17.609  0.00  0.00    +0.000 A 
ATOM     14  C   UNL     1       1.615   3.924  17.782  0.00  0.00    +0.000 A 
ATOM     15  C   UNL     1       0.650   3.223  18.515  0.00  0.00    +0.000 A 
ATOM     16  C   UNL     1       0.962   1.992  19.089  0.00  0.00    +0.000 A 
ATOM     17  C   UNL     1       2.249   1.473  18.961  0.00  0.00    +0.000 A 
ATOM     18  C   UNL     1       3.217   2.178  18.235  0.00  0.00    +0.000 A 
ENDBRANCH  12  13
ENDBRANCH  11  12
ENDBRANCH   2   5
BRANCH   3  19
ATOM     19  C   UNL     1       2.670   7.749  18.618  0.00  0.00    +0.000 A 
ATOM     20  C   UNL     1       2.286   8.664  17.636  0.00  0.00    +0.000 A 
ATOM     21  C   UNL     1       1.323   9.642  17.893  0.00  0.00    +0.000 A 
ATOM     22  C   UNL     1       0.714   9.714  19.134  0.00  0.00    +0.000 A 
ATOM     23  C   UNL     1       1.050   8.795  20.137  0.00  0.00    +0.000 A 
ATOM     24  C   UNL     1       2.025   7.805  19.866  0.00  0.00    +0.000 A 
BRANCH  23  25
ATOM     25  C   UNL     1       0.388   8.889  21.493  0.00  0.00    +0.000 C 
ATOM     26  F   UNL     1       1.239   8.672  22.536  0.00  0.00    +0.000 F 
ATOM     27  F   UNL     1      -0.163  10.114  21.720  0.00  0.00    +0.000 F 
ATOM     28  F   UNL     1      -0.624   7.990  21.642  0.00  0.00    +0.000 F 
ENDBRANCH  23  25
ENDBRANCH   3  19
TORSDOF 5
ENDMDL
MODEL 7
REMARK VINA RESULT:      -7.8      2.335      3.969
REMARK  Name = 
REMARK  5 active torsions:
REMARK  status: ('A' for Active; 'I' for Inactive)
REMARK    1  A    between atoms: C_2  and  C_14
REMARK    2  A    between atoms: N_3  and  C_4
REMARK    3  A    between atoms: C_8  and  C_9
REMARK    4  A    between atoms: N_20  and  C_21
REMARK    5  A    between atoms: C_21  and  C_22
REMARK                            x       y       z     vdW  Elec       q    Type
REMARK                         _______ _______ _______ _____ _____    ______ ____
ROOT
ATOM      1  O   UNL     1       1.327   4.941  17.552  0.00  0.00    +0.000 OA
ATOM      2  C   UNL     1       1.788   4.895  18.692  0.00  0.00    +0.000 C 
ATOM      3  N   UNL     1       2.126   5.998  19.474  0.00  0.00    +0.000 N 
ATOM      4  H   UNL     1       2.609   5.812  20.350  0.00  0.00    +0.000 HD
ENDROOT
BRANCH   2   5
ATOM      5  C   UNL     1       1.984   3.519  19.357  0.00  0.00    +0.000 C 
ATOM      6  C   UNL     1       1.462   3.600  20.796  0.00  0.00    +0.000 C 
ATOM      7  O   UNL     1       1.679   2.352  21.452  0.00  0.00    +0.000 OA
ATOM      8  C   UNL     1       3.069   2.087  21.557  0.00  0.00    +0.000 C 
ATOM      9  C   UNL     1       3.965   2.370  20.334  0.00  0.00    +0.000 C 
ATOM     10  O   UNL     1       5.150   2.040  20.333  0.00  0.00    +0.000 OA
ATOM     11  N   UNL     1       3.380   3.058  19.277  0.00  0.00    +0.000 N 
BRANCH  11  12
ATOM     12  C   UNL     1       4.048   3.040  17.971  0.00  0.00    +0.000 C 
BRANCH  12  13
ATOM     13  C   UNL     1       4.883   4.263  17.644  0.00  0.00    +0.000 A 
ATOM     14  C   UNL     1       4.745   4.931  16.416  0.00  0.00    +0.000 A 
ATOM     15  C   UNL     1       5.410   6.141  16.183  0.00  0.00    +0.000 A 
ATOM     16  C   UNL     1       6.225   6.695  17.169  0.00  0.00    +0.000 A 
ATOM     17  C   UNL     1       6.405   6.024  18.378  0.00  0.00    +0.000 A 
ATOM     18  C   UNL     1       5.746   4.811  18.607  0.00  0.00    +0.000 A 
ENDBRANCH  12  13
ENDBRANCH  11  12
ENDBRANCH   2   5
BRANCH   3  19
ATOM     19  C   UNL     1       2.011   7.364  19.090  0.00  0.00    +0.000 A 
ATOM     20  C   UNL     1       2.517   7.854  17.885  0.00  0.00    +0.000 A 
ATOM     21  C   UNL     1       2.432   9.210  17.561  0.00  0.00    +0.000 A 
ATOM     22  C   UNL     1       1.825  10.100  18.430  0.00  0.00    +0.000 A 
ATOM     23  C   UNL     1       1.277   9.642  19.636  0.00  0.00    +0.000 A 
ATOM     24  C   UNL     1       1.366   8.265  19.955  0.00  0.00    +0.000 A 
BRANCH  23  25
ATOM     25  C   UNL     1       0.626  10.624  20.585  0.00  0.00    +0.000 C 
ATOM     26  F   UNL     1       0.589  10.195  21.878  0.00  0.00    +0.000 F 
ATOM     27  F   UNL     1       1.270  11.823  20.616  0.00  0.00    +0.000 F 
ATOM     28  F   UNL     1      -0.663  10.900  20.244  0.00  0.00    +0.000 F 
ENDBRANCH  23  25
ENDBRANCH   3  19
TORSDOF 5
ENDMDL
MODEL 8
REMARK VINA RESULT:      -7.8      2.042      3.768
REMARK  Name = 
REMARK  5 active torsions:
REMARK  status: ('A' for Active; 'I' for Inactive)
REMARK    1  A    between atoms: C_2  and  C_14
REMARK    2  A    between atoms: N_3  and  C_4
REMARK    3  A    between atoms: C_8  and  C_9
REMARK    4  A    between atoms: N_20  and  C_21
REMARK    5  A    between atoms: C_21  and  C_22
REMARK                            x       y       z     vdW  Elec       q    Type
REMARK                         _______ _______ _______ _____ _____    ______ ____
ROOT
ATOM      1  O   UNL     1       1.561   5.661  20.735  0.00  0.00    +0.000 OA
ATOM      2  C   UNL     1       1.934   5.742  19.566  0.00  0.00    +0.000 C 
ATOM      3  N   UNL     1       1.978   6.912  18.808  0.00  0.00    +0.000 N 
ATOM      4  H   UNL     1       2.193   6.813  17.819  0.00  0.00    +0.000 HD
ENDROOT
BRANCH   2   5
ATOM      5  C   UNL     1       2.436   4.468  18.859  0.00  0.00    +0.000 C 
ATOM      6  C   UNL     1       1.378   3.372  19.030  0.00  0.00    +0.000 C 
ATOM      7  O   UNL     1       1.841   2.165  18.428  0.00  0.00    +0.000 OA
ATOM      8  C   UNL     1       3.000   1.694  19.099  0.00  0.00    +0.000 C 
ATOM      9  C   UNL     1       4.089   2.716  19.488  0.00  0.00    +0.000 C 
ATOM     10  O   UNL     1       5.163   2.341  19.956  0.00  0.00    +0.000 OA
ATOM     11  N   UNL     1       3.768   4.060  19.334  0.00  0.00    +0.000 N 
BRANCH  11  12
ATOM     12  C   UNL     1       4.854   5.045  19.337  0.00  0.00    +0.000 C 
BRANCH  12  13
ATOM     13  C   UNL     1       5.603   5.202  18.028  0.00  0.00    +0.000 A 
ATOM     14  C   UNL     1       6.882   4.648  17.850  0.00  0.00    +0.000 A 
ATOM     15  C   UNL     1       7.501   4.670  16.594  0.00  0.00    +0.000 A 
ATOM     16  C   UNL     1       6.855   5.249  15.504  0.00  0.00    +0.000 A 
ATOM     17  C   UNL     1       5.603   5.838  15.671  0.00  0.00    +0.000 A 
ATOM     18  C   UNL     1       4.988   5.823  16.929  0.00  0.00    +0.000 A 
ENDBRANCH  12  13
ENDBRANCH  11  12
ENDBRANCH   2   5
BRANCH   3  19
ATOM     19  C   UNL     1       1.593   8.209  19.248  0.00  0.00    +0.000 A 
ATOM     20  C   UNL     1       1.730   9.348  18.452  0.00  0.00    +0.000 A 
ATOM     21  C   UNL     1       1.390  10.614  18.932  0.00  0.00    +0.000 A 
ATOM     22  C   UNL     1       0.890  10.764  20.215  0.00  0.00    +0.000 A 
ATOM     23  C   UNL     1       0.709   9.642  21.035  0.00  0.00    +0.000 A 
ATOM     24  C   UNL     1       1.054   8.362  20.538  0.00  0.00    +0.000 A 
BRANCH  23  25
ATOM     25  C   UNL     1       0.174   9.817  22.438  0.00  0.00    +0.000 C 
ATOM     26  F   UNL     1      -0.912   9.040  22.713  0.00  0.00    +0.000 F 
ATOM     27  F   UNL     1       1.096   9.507  23.390  0.00  0.00    +0.000 F 
ATOM     28  F   UNL     1      -0.209  11.100  22.693  0.00  0.00    +0.000 F 
ENDBRANCH  23  25
ENDBRANCH   3  19
TORSDOF 5
ENDMDL
MODEL 9
REMARK VINA RESULT:      -7.7      2.478      4.491
REMARK  Name = 
REMARK  5 active torsions:
REMARK  status: ('A' for Active; 'I' for Inactive)
REMARK    1  A    between atoms: C_2  and  C_14
REMARK    2  A    between atoms: N_3  and  C_4
REMARK    3  A    between atoms: C_8  and  C_9
REMARK    4  A    between atoms: N_20  and  C_21
REMARK    5  A    between atoms: C_21  and  C_22
REMARK                            x       y       z     vdW  Elec       q    Type
REMARK                         _______ _______ _______ _____ _____    ______ ____
ROOT
ATOM      1  O   UNL     1       1.224   5.220  20.516  0.00  0.00    +0.000 OA
ATOM      2  C   UNL     1       1.905   5.621  19.574  0.00  0.00    +0.000 C 
ATOM      3  N   UNL     1       2.149   6.958  19.261  0.00  0.00    +0.000 N 
ATOM      4  H   UNL     1       2.630   7.146  18.385  0.00  0.00    +0.000 HD
ENDROOT
BRANCH   2   5
ATOM      5  C   UNL     1       2.595   4.585  18.665  0.00  0.00    +0.000 C 
ATOM      6  C   UNL     1       1.535   3.589  18.179  0.00  0.00    +0.000 C 
ATOM      7  O   UNL     1       2.157   2.588  17.376  0.00  0.00    +0.000 OA
ATOM      8  C   UNL     1       3.073   1.832  18.153  0.00  0.00    +0.000 C 
ATOM      9  C   UNL     1       4.000   2.584  19.130  0.00  0.00    +0.000 C 
ATOM     10  O   UNL     1       4.895   1.989  19.731  0.00  0.00    +0.000 OA
ATOM     11  N   UNL     1       3.734   3.933  19.332  0.00  0.00    +0.000 N 
BRANCH  11  12
ATOM     12  C   UNL     1       4.769   4.769  19.948  0.00  0.00    +0.000 C 
BRANCH  12  13
ATOM     13  C   UNL     1       5.716   5.459  18.984  0.00  0.00    +0.000 A 
ATOM     14  C   UNL     1       5.249   6.026  17.787  0.00  0.00    +0.000 A 
ATOM     15  C   UNL     1       6.102   6.787  16.978  0.00  0.00    +0.000 A 
ATOM     16  C   UNL     1       7.430   6.987  17.351  0.00  0.00    +0.000 A 
ATOM     17  C   UNL     1       7.920   6.398  18.515  0.00  0.00    +0.000 A 
ATOM     18  C   UNL     1       7.069   5.630  19.320  0.00  0.00    +0.000 A 
ENDBRANCH  12  13
ENDBRANCH  11  12
ENDBRANCH   2   5
BRANCH   3  19
ATOM     19  C   UNL     1       1.646   8.087  19.965  0.00  0.00    +0.000 A 
ATOM     20  C   UNL     1       1.585   8.143  21.359  0.00  0.00    +0.000 A 
ATOM     21  C   UNL     1       1.039   9.245  22.018  0.00  0.00    +0.000 A 
ATOM     22  C   UNL     1       0.555  10.323  21.295  0.00  0.00    +0.000 A 
ATOM     23  C   UNL     1       0.625  10.319  19.896  0.00  0.00    +0.000 A 
ATOM     24  C   UNL     1       1.184   9.197  19.237  0.00  0.00    +0.000 A 
BRANCH  23  25
ATOM     25  C   UNL     1       0.084  11.495  19.115  0.00  0.00    +0.000 C 
ATOM     26  F   UNL     1       1.050  12.245  18.511  0.00  0.00    +0.000 F 
ATOM     27  F   UNL     1      -0.760  11.114  18.117  0.00  0.00    +0.000 F 
ATOM     28  F   UNL     1      -0.625  12.357  19.896  0.00  0.00    +0.000 F 
ENDBRANCH  23  25
ENDBRANCH   3  19
TORSDOF 5
ENDMDL
