MODEL 1
REMARK VINA RESULT:      -7.9      0.000      0.000
REMARK  Name = 
REMARK  7 active torsions:
REMARK  status: ('A' for Active; 'I' for Inactive)
REMARK    1  A    between atoms: C_1  and  C_2
REMARK    2  A    between atoms: C_7  and  N_8
REMARK    3  A    between atoms: N_8  and  C_9
REMARK    4  A    between atoms: C_9  and  N_11
REMARK    5  A    between atoms: N_11  and  C_12
REMARK    6  A    between atoms: C_12  and  C_13
REMARK    7  A    between atoms: C_13  and  C_14
REMARK                            x       y       z     vdW  Elec       q    Type
REMARK                         _______ _______ _______ _____ _____    ______ ____
ROOT
ATOM      1  C   UNL     1       4.558   1.668  20.905  0.00  0.00    +0.000 C 
ATOM      2  C   UNL     1       3.523   2.620  20.364  0.00  0.00    +0.000 A 
ATOM      3  C   UNL     1       2.173   2.396  20.677  0.00  0.00    +0.000 A 
ATOM      4  C   UNL     1       1.194   3.208  20.135  0.00  0.00    +0.000 A 
ATOM      5  C   UNL     1       1.562   4.283  19.335  0.00  0.00    +0.000 A 
ATOM      6  C   UNL     1       2.925   4.593  19.072  0.00  0.00    +0.000 A 
ATOM      7  C   UNL     1       3.362   5.731  18.331  0.00  0.00    +0.000 A 
ATOM      8  C   UNL     1       4.751   5.899  18.041  0.00  0.00    +0.000 A 
ATOM      9  C   UNL     1       5.355   7.001  17.378  0.00  0.00    +0.000 A 
ATOM     10  C   UNL     1       6.721   7.053  17.097  0.00  0.00    +0.000 A 
ATOM     11  C   UNL     1       7.539   6.025  17.529  0.00  0.00    +0.000 A 
ATOM     12  C   UNL     1       6.976   4.973  18.252  0.00  0.00    +0.000 A 
ATOM     13  C   UNL     1       5.614   4.896  18.517  0.00  0.00    +0.000 A 
ATOM     14  N   UNL     1       5.204   3.861  19.260  0.00  0.00    +0.000 NA
ATOM     15  C   UNL     1       3.905   3.704  19.556  0.00  0.00    +0.000 A 
ENDROOT
BRANCH   7  16
ATOM     16  N   UNL     1       2.392   6.755  18.084  0.00  0.00    +0.000 N 
ATOM     17  H   UNL     1       1.940   6.705  17.184  0.00  0.00    +0.000 HD
BRANCH  16  18
ATOM     18  C   UNL     1       2.170   7.961  18.691  0.00  0.00    +0.000 C 
ATOM     19  S   UNL     1       1.824   9.416  17.945  0.00  0.00    +0.000 S 
BRANCH  18  20
ATOM     20  N   UNL     1       2.164   7.917  20.061  0.00  0.00    +0.000 N 
ATOM     21  H   UNL     1       3.043   7.623  20.472  0.00  0.00    +0.000 HD
BRANCH  20  22
ATOM     22  C   UNL     1       1.012   7.989  20.963  0.00  0.00    +0.000 C 
BRANCH  22  23
ATOM     23  C   UNL     1       1.190   8.956  22.141  0.00  0.00    +0.000 C 
BRANCH  23  24
ATOM     24  C   UNL     1       0.131  10.022  22.200  0.00  0.00    +0.000 A 
ATOM     25  C   UNL     1      -0.690  10.353  23.258  0.00  0.00    +0.000 A 
ATOM     26  C   UNL     1      -1.593  11.406  22.945  0.00  0.00    +0.000 A 
ATOM     27  C   UNL     1      -1.444  11.837  21.645  0.00  0.00    +0.000 A 
ATOM     28  S   UNL     1      -0.214  10.980  20.821  0.00  0.00    +0.000 S 
ENDBRANCH  23  24
ENDBRANCH  22  23
ENDBRANCH  20  22
ENDBRANCH  18  20
ENDBRANCH  16  18
ENDBRANCH   7  16
TORSDOF 6
ENDMDL
MODEL 2
REMARK VINA RESULT:      -7.6      3.356      5.607
REMARK  Name = 
REMARK  7 active torsions:
REMARK  status: ('A' for Active; 'I' for Inactive)
REMARK    1  A    between atoms: C_1  and  C_2
REMARK    2  A    between atoms: C_7  and  N_8
REMARK    3  A    between atoms: N_8  and  C_9
REMARK    4  A    between atoms: C_9  and  N_11
REMARK    5  A    between atoms: N_11  and  C_12
REMARK    6  A    between atoms: C_12  and  C_13
REMARK    7  A    between atoms: C_13  and  C_14
REMARK                            x       y       z     vdW  Elec       q    Type
REMARK                         _______ _______ _______ _____ _____    ______ ____
ROOT
ATOM      1  C   UNL     1       8.456   5.784  12.734  0.00  0.00    +0.000 C 
ATOM      2  C   UNL     1       7.326   4.901  13.193  0.00  0.00    +0.000 A 
ATOM      3  C   UNL     1       6.663   4.107  12.243  0.00  0.00    +0.000 A 
ATOM      4  C   UNL     1       5.575   3.342  12.620  0.00  0.00    +0.000 A 
ATOM      5  C   UNL     1       5.186   3.315  13.954  0.00  0.00    +0.000 A 
ATOM      6  C   UNL     1       5.891   4.036  14.957  0.00  0.00    +0.000 A 
ATOM      7  C   UNL     1       5.590   3.976  16.351  0.00  0.00    +0.000 A 
ATOM      8  C   UNL     1       6.298   4.814  17.265  0.00  0.00    +0.000 A 
ATOM      9  C   UNL     1       6.168   4.830  18.681  0.00  0.00    +0.000 A 
ATOM     10  C   UNL     1       6.872   5.722  19.491  0.00  0.00    +0.000 A 
ATOM     11  C   UNL     1       7.779   6.590  18.912  0.00  0.00    +0.000 A 
ATOM     12  C   UNL     1       7.979   6.533  17.532  0.00  0.00    +0.000 A 
ATOM     13  C   UNL     1       7.267   5.668  16.710  0.00  0.00    +0.000 A 
ATOM     14  N   UNL     1       7.584   5.677  15.410  0.00  0.00    +0.000 NA
ATOM     15  C   UNL     1       6.940   4.880  14.544  0.00  0.00    +0.000 A 
ENDROOT
BRANCH   7  16
ATOM     16  N   UNL     1       4.719   2.925  16.781  0.00  0.00    +0.000 N 
ATOM     17  H   UNL     1       4.842   2.046  16.299  0.00  0.00    +0.000 HD
BRANCH  16  18
ATOM     18  C   UNL     1       3.552   2.946  17.495  0.00  0.00    +0.000 C 
ATOM     19  S   UNL     1       3.017   1.800  18.586  0.00  0.00    +0.000 S 
BRANCH  18  20
ATOM     20  N   UNL     1       2.803   4.082  17.328  0.00  0.00    +0.000 N 
ATOM     21  H   UNL     1       2.492   4.239  16.376  0.00  0.00    +0.000 HD
BRANCH  20  22
ATOM     22  C   UNL     1       2.622   5.192  18.267  0.00  0.00    +0.000 C 
BRANCH  22  23
ATOM     23  C   UNL     1       3.071   6.557  17.728  0.00  0.00    +0.000 C 
BRANCH  23  24
ATOM     24  C   UNL     1       2.351   7.713  18.364  0.00  0.00    +0.000 A 
ATOM     25  C   UNL     1       2.002   8.920  17.793  0.00  0.00    +0.000 A 
ATOM     26  C   UNL     1       1.343   9.790  18.706  0.00  0.00    +0.000 A 
ATOM     27  C   UNL     1       1.224   9.223  19.956  0.00  0.00    +0.000 A 
ATOM     28  S   UNL     1       1.894   7.650  20.015  0.00  0.00    +0.000 S 
ENDBRANCH  23  24
ENDBRANCH  22  23
ENDBRANCH  20  22
ENDBRANCH  18  20
ENDBRANCH  16  18
ENDBRANCH   7  16
TORSDOF 6
ENDMDL
MODEL 3
REMARK VINA RESULT:      -7.6      1.913      4.295
REMARK  Name = 
REMARK  7 active torsions:
REMARK  status: ('A' for Active; 'I' for Inactive)
REMARK    1  A    between atoms: C_1  and  C_2
REMARK    2  A    between atoms: C_7  and  N_8
REMARK    3  A    between atoms: N_8  and  C_9
REMARK    4  A    between atoms: C_9  and  N_11
REMARK    5  A    between atoms: N_11  and  C_12
REMARK    6  A    between atoms: C_12  and  C_13
REMARK    7  A    between atoms: C_13  and  C_14
REMARK                            x       y       z     vdW  Elec       q    Type
REMARK                         _______ _______ _______ _____ _____    ______ ____
ROOT
ATOM      1  C   UNL     1       5.940   3.647  15.053  0.00  0.00    +0.000 C 
ATOM      2  C   UNL     1       5.753   4.741  16.071  0.00  0.00    +0.000 A 
ATOM      3  C   UNL     1       6.607   5.854  16.029  0.00  0.00    +0.000 A 
ATOM      4  C   UNL     1       6.508   6.839  16.994  0.00  0.00    +0.000 A 
ATOM      5  C   UNL     1       5.516   6.750  17.963  0.00  0.00    +0.000 A 
ATOM      6  C   UNL     1       4.575   5.682  17.980  0.00  0.00    +0.000 A 
ATOM      7  C   UNL     1       3.486   5.586  18.897  0.00  0.00    +0.000 A 
ATOM      8  C   UNL     1       2.656   4.424  18.892  0.00  0.00    +0.000 A 
ATOM      9  C   UNL     1       1.498   4.201  19.687  0.00  0.00    +0.000 A 
ATOM     10  C   UNL     1       0.776   3.007  19.646  0.00  0.00    +0.000 A 
ATOM     11  C   UNL     1       1.156   2.018  18.758  0.00  0.00    +0.000 A 
ATOM     12  C   UNL     1       2.241   2.252  17.912  0.00  0.00    +0.000 A 
ATOM     13  C   UNL     1       2.985   3.424  17.959  0.00  0.00    +0.000 A 
ATOM     14  N   UNL     1       3.973   3.546  17.065  0.00  0.00    +0.000 NA
ATOM     15  C   UNL     1       4.746   4.642  17.046  0.00  0.00    +0.000 A 
ENDROOT
BRANCH   7  16
ATOM     16  N   UNL     1       3.164   6.762  19.647  0.00  0.00    +0.000 N 
ATOM     17  H   UNL     1       3.521   6.776  20.591  0.00  0.00    +0.000 HD
BRANCH  16  18
ATOM     18  C   UNL     1       2.221   7.734  19.453  0.00  0.00    +0.000 C 
ATOM     19  S   UNL     1       1.951   8.614  18.059  0.00  0.00    +0.000 S 
BRANCH  18  20
ATOM     20  N   UNL     1       1.375   7.926  20.515  0.00  0.00    +0.000 N 
ATOM     21  H   UNL     1       0.707   7.175  20.656  0.00  0.00    +0.000 HD
BRANCH  20  22
ATOM     22  C   UNL     1       1.151   9.153  21.282  0.00  0.00    +0.000 C 
BRANCH  22  23
ATOM     23  C   UNL     1      -0.207   9.822  21.025  0.00  0.00    +0.000 C 
BRANCH  23  24
ATOM     24  C   UNL     1      -0.125  10.988  20.079  0.00  0.00    +0.000 A 
ATOM     25  C   UNL     1       0.947  11.824  19.845  0.00  0.00    +0.000 A 
ATOM     26  C   UNL     1       0.655  12.840  18.894  0.00  0.00    +0.000 A 
ATOM     27  C   UNL     1      -0.643  12.757  18.440  0.00  0.00    +0.000 A 
ATOM     28  S   UNL     1      -1.491  11.454  19.154  0.00  0.00    +0.000 S 
ENDBRANCH  23  24
ENDBRANCH  22  23
ENDBRANCH  20  22
ENDBRANCH  18  20
ENDBRANCH  16  18
ENDBRANCH   7  16
TORSDOF 6
ENDMDL
MODEL 4
REMARK VINA RESULT:      -7.4      1.522      4.007
REMARK  Name = 
REMARK  7 active torsions:
REMARK  status: ('A' for Active; 'I' for Inactive)
REMARK    1  A    between atoms: C_1  and  C_2
REMARK    2  A    between atoms: C_7  and  N_8
REMARK    3  A    between atoms: N_8  and  C_9
REMARK    4  A    between atoms: C_9  and  N_11
REMARK    5  A    between atoms: N_11  and  C_12
REMARK    6  A    between atoms: C_12  and  C_13
REMARK    7  A    between atoms: C_13  and  C_14
REMARK                            x       y       z     vdW  Elec       q    Type
REMARK                         _______ _______ _______ _____ _____    ______ ____
ROOT
ATOM      1  C   UNL     1       5.934   3.478  15.423  0.00  0.00    +0.000 C 
ATOM      2  C   UNL     1       5.698   4.633  16.361  0.00  0.00    +0.000 A 
ATOM      3  C   UNL     1       6.550   5.747  16.285  0.00  0.00    +0.000 A 
ATOM      4  C   UNL     1       6.405   6.790  17.180  0.00  0.00    +0.000 A 
ATOM      5  C   UNL     1       5.373   6.756  18.110  0.00  0.00    +0.000 A 
ATOM      6  C   UNL     1       4.437   5.686  18.155  0.00  0.00    +0.000 A 
ATOM      7  C   UNL     1       3.309   5.641  19.028  0.00  0.00    +0.000 A 
ATOM      8  C   UNL     1       2.485   4.475  19.062  0.00  0.00    +0.000 A 
ATOM      9  C   UNL     1       1.295   4.295  19.820  0.00  0.00    +0.000 A 
ATOM     10  C   UNL     1       0.580   3.097  19.823  0.00  0.00    +0.000 A 
ATOM     11  C   UNL     1       1.001   2.056  19.017  0.00  0.00    +0.000 A 
ATOM     12  C   UNL     1       2.120   2.242  18.205  0.00  0.00    +0.000 A 
ATOM     13  C   UNL     1       2.857   3.421  18.209  0.00  0.00    +0.000 A 
ATOM     14  N   UNL     1       3.882   3.492  17.352  0.00  0.00    +0.000 NA
ATOM     15  C   UNL     1       4.651   4.590  17.297  0.00  0.00    +0.000 A 
ENDROOT
BRANCH   7  16
ATOM     16  N   UNL     1       2.952   6.860  19.688  0.00  0.00    +0.000 N 
ATOM     17  H   UNL     1       3.134   6.876  20.680  0.00  0.00    +0.000 HD
BRANCH  16  18
ATOM     18  C   UNL     1       2.137   7.891  19.311  0.00  0.00    +0.000 C 
ATOM     19  S   UNL     1       2.031   8.592  17.798  0.00  0.00    +0.000 S 
BRANCH  18  20
ATOM     20  N   UNL     1       1.273   8.320  20.285  0.00  0.00    +0.000 N 
ATOM     21  H   UNL     1       1.070   7.626  20.996  0.00  0.00    +0.000 HD
BRANCH  20  22
ATOM     22  C   UNL     1       0.433   9.521  20.285  0.00  0.00    +0.000 C 
BRANCH  22  23
ATOM     23  C   UNL     1       0.697  10.477  21.456  0.00  0.00    +0.000 C 
BRANCH  23  24
ATOM     24  C   UNL     1      -0.550  11.137  21.977  0.00  0.00    +0.000 A 
ATOM     25  C   UNL     1      -1.214  10.893  23.162  0.00  0.00    +0.000 A 
ATOM     26  C   UNL     1      -2.378  11.695  23.315  0.00  0.00    +0.000 A 
ATOM     27  C   UNL     1      -2.578  12.518  22.228  0.00  0.00    +0.000 A 
ATOM     28  S   UNL     1      -1.359  12.326  21.044  0.00  0.00    +0.000 S 
ENDBRANCH  23  24
ENDBRANCH  22  23
ENDBRANCH  20  22
ENDBRANCH  18  20
ENDBRANCH  16  18
ENDBRANCH   7  16
TORSDOF 6
ENDMDL
MODEL 5
REMARK VINA RESULT:      -7.3      2.218      4.424
REMARK  Name = 
REMARK  7 active torsions:
REMARK  status: ('A' for Active; 'I' for Inactive)
REMARK    1  A    between atoms: C_1  and  C_2
REMARK    2  A    between atoms: C_7  and  N_8
REMARK    3  A    between atoms: N_8  and  C_9
REMARK    4  A    between atoms: C_9  and  N_11
REMARK    5  A    between atoms: N_11  and  C_12
REMARK    6  A    between atoms: C_12  and  C_13
REMARK    7  A    between atoms: C_13  and  C_14
REMARK                            x       y       z     vdW  Elec       q    Type
REMARK                         _______ _______ _______ _____ _____    ______ ____
ROOT
ATOM      1  C   UNL     1       5.968   3.722  15.114  0.00  0.00    +0.000 C 
ATOM      2  C   UNL     1       5.789   4.772  16.179  0.00  0.00    +0.000 A 
ATOM      3  C   UNL     1       6.669   5.866  16.201  0.00  0.00    +0.000 A 
ATOM      4  C   UNL     1       6.576   6.807  17.208  0.00  0.00    +0.000 A 
ATOM      5  C   UNL     1       5.567   6.697  18.157  0.00  0.00    +0.000 A 
ATOM      6  C   UNL     1       4.603   5.652  18.112  0.00  0.00    +0.000 A 
ATOM      7  C   UNL     1       3.497   5.540  19.007  0.00  0.00    +0.000 A 
ATOM      8  C   UNL     1       2.642   4.398  18.936  0.00  0.00    +0.000 A 
ATOM      9  C   UNL     1       1.467   4.166  19.703  0.00  0.00    +0.000 A 
ATOM     10  C   UNL     1       0.719   2.993  19.596  0.00  0.00    +0.000 A 
ATOM     11  C   UNL     1       1.091   2.036  18.669  0.00  0.00    +0.000 A 
ATOM     12  C   UNL     1       2.194   2.283  17.851  0.00  0.00    +0.000 A 
ATOM     13  C   UNL     1       2.963   3.435  17.963  0.00  0.00    +0.000 A 
ATOM     14  N   UNL     1       3.967   3.575  17.091  0.00  0.00    +0.000 NA
ATOM     15  C   UNL     1       4.765   4.652  17.133  0.00  0.00    +0.000 A 
ENDROOT
BRANCH   7  16
ATOM     16  N   UNL     1       3.191   6.687  19.805  0.00  0.00    +0.000 N 
ATOM     17  H   UNL     1       3.574   6.671  20.739  0.00  0.00    +0.000 HD
BRANCH  16  18
ATOM     18  C   UNL     1       2.237   7.659  19.672  0.00  0.00    +0.000 C 
ATOM     19  S   UNL     1       1.283   8.308  20.880  0.00  0.00    +0.000 S 
BRANCH  18  20
ATOM     20  N   UNL     1       2.133   8.186  18.411  0.00  0.00    +0.000 N 
ATOM     21  H   UNL     1       2.915   7.967  17.803  0.00  0.00    +0.000 HD
BRANCH  20  22
ATOM     22  C   UNL     1       1.196   9.204  17.930  0.00  0.00    +0.000 C 
BRANCH  22  23
ATOM     23  C   UNL     1       1.536  10.635  18.369  0.00  0.00    +0.000 C 
BRANCH  23  24
ATOM     24  C   UNL     1       0.343  11.403  18.867  0.00  0.00    +0.000 A 
ATOM     25  C   UNL     1      -0.985  11.031  18.836  0.00  0.00    +0.000 A 
ATOM     26  C   UNL     1      -1.846  12.024  19.380  0.00  0.00    +0.000 A 
ATOM     27  C   UNL     1      -1.147  13.136  19.795  0.00  0.00    +0.000 A 
ATOM     28  S   UNL     1       0.536  12.969  19.538  0.00  0.00    +0.000 S 
ENDBRANCH  23  24
ENDBRANCH  22  23
ENDBRANCH  20  22
ENDBRANCH  18  20
ENDBRANCH  16  18
ENDBRANCH   7  16
TORSDOF 6
ENDMDL
MODEL 6
REMARK VINA RESULT:      -7.3      1.674      1.940
REMARK  Name = 
REMARK  7 active torsions:
REMARK  status: ('A' for Active; 'I' for Inactive)
REMARK    1  A    between atoms: C_1  and  C_2
REMARK    2  A    between atoms: C_7  and  N_8
REMARK    3  A    between atoms: N_8  and  C_9
REMARK    4  A    between atoms: C_9  and  N_11
REMARK    5  A    between atoms: N_11  and  C_12
REMARK    6  A    between atoms: C_12  and  C_13
REMARK    7  A    between atoms: C_13  and  C_14
REMARK                            x       y       z     vdW  Elec       q    Type
REMARK                         _______ _______ _______ _____ _____    ______ ____
ROOT
ATOM      1  C   UNL     1       4.530   1.665  20.806  0.00  0.00    +0.000 C 
ATOM      2  C   UNL     1       3.507   2.629  20.264  0.00  0.00    +0.000 A 
ATOM      3  C   UNL     1       2.150   2.395  20.538  0.00  0.00    +0.000 A 
ATOM      4  C   UNL     1       1.183   3.219  19.994  0.00  0.00    +0.000 A 
ATOM      5  C   UNL     1       1.567   4.315  19.230  0.00  0.00    +0.000 A 
ATOM      6  C   UNL     1       2.936   4.633  19.008  0.00  0.00    +0.000 A 
ATOM      7  C   UNL     1       3.388   5.790  18.306  0.00  0.00    +0.000 A 
ATOM      8  C   UNL     1       4.783   5.966  18.054  0.00  0.00    +0.000 A 
ATOM      9  C   UNL     1       5.401   7.086  17.433  0.00  0.00    +0.000 A 
ATOM     10  C   UNL     1       6.773   7.147  17.187  0.00  0.00    +0.000 A 
ATOM     11  C   UNL     1       7.583   6.109  17.612  0.00  0.00    +0.000 A 
ATOM     12  C   UNL     1       7.004   5.040  18.295  0.00  0.00    +0.000 A 
ATOM     13  C   UNL     1       5.636   4.953  18.525  0.00  0.00    +0.000 A 
ATOM     14  N   UNL     1       5.211   3.900  19.232  0.00  0.00    +0.000 NA
ATOM     15  C   UNL     1       3.906   3.734  19.493  0.00  0.00    +0.000 A 
ENDROOT
BRANCH   7  16
ATOM     16  N   UNL     1       2.422   6.818  18.063  0.00  0.00    +0.000 N 
ATOM     17  H   UNL     1       2.109   6.890  17.106  0.00  0.00    +0.000 HD
BRANCH  16  18
ATOM     18  C   UNL     1       2.063   7.918  18.792  0.00  0.00    +0.000 C 
ATOM     19  S   UNL     1       1.718   7.977  20.426  0.00  0.00    +0.000 S 
BRANCH  18  20
ATOM     20  N   UNL     1       2.072   9.095  18.089  0.00  0.00    +0.000 N 
ATOM     21  H   UNL     1       2.859   9.197  17.457  0.00  0.00    +0.000 HD
BRANCH  20  22
ATOM     22  C   UNL     1       1.259  10.292  18.319  0.00  0.00    +0.000 C 
BRANCH  22  23
ATOM     23  C   UNL     1      -0.232  10.115  18.001  0.00  0.00    +0.000 C 
BRANCH  23  24
ATOM     24  C   UNL     1      -1.125  10.993  18.833  0.00  0.00    +0.000 A 
ATOM     25  C   UNL     1      -0.872  11.534  20.077  0.00  0.00    +0.000 A 
ATOM     26  C   UNL     1      -1.961  12.301  20.575  0.00  0.00    +0.000 A 
ATOM     27  C   UNL     1      -3.024  12.309  19.698  0.00  0.00    +0.000 A 
ATOM     28  S   UNL     1      -2.696  11.404  18.283  0.00  0.00    +0.000 S 
ENDBRANCH  23  24
ENDBRANCH  22  23
ENDBRANCH  20  22
ENDBRANCH  18  20
ENDBRANCH  16  18
ENDBRANCH   7  16
TORSDOF 6
ENDMDL
MODEL 7
REMARK VINA RESULT:      -7.2      3.414      6.969
REMARK  Name = 
REMARK  7 active torsions:
REMARK  status: ('A' for Active; 'I' for Inactive)
REMARK    1  A    between atoms: C_1  and  C_2
REMARK    2  A    between atoms: C_7  and  N_8
REMARK    3  A    between atoms: N_8  and  C_9
REMARK    4  A    between atoms: C_9  and  N_11
REMARK    5  A    between atoms: N_11  and  C_12
REMARK    6  A    between atoms: C_12  and  C_13
REMARK    7  A    between atoms: C_13  and  C_14
REMARK                            x       y       z     vdW  Elec       q    Type
REMARK                         _______ _______ _______ _____ _____    ______ ____
ROOT
ATOM      1  C   UNL     1       0.544   8.090  21.160  0.00  0.00    +0.000 C 
ATOM      2  C   UNL     1       1.470   8.116  19.972  0.00  0.00    +0.000 A 
ATOM      3  C   UNL     1       1.550   9.290  19.206  0.00  0.00    +0.000 A 
ATOM      4  C   UNL     1       2.335   9.320  18.068  0.00  0.00    +0.000 A 
ATOM      5  C   UNL     1       3.091   8.205  17.728  0.00  0.00    +0.000 A 
ATOM      6  C   UNL     1       3.104   7.032  18.532  0.00  0.00    +0.000 A 
ATOM      7  C   UNL     1       3.925   5.893  18.278  0.00  0.00    +0.000 A 
ATOM      8  C   UNL     1       3.791   4.727  19.091  0.00  0.00    +0.000 A 
ATOM      9  C   UNL     1       4.572   3.541  19.015  0.00  0.00    +0.000 A 
ATOM     10  C   UNL     1       4.334   2.430  19.826  0.00  0.00    +0.000 A 
ATOM     11  C   UNL     1       3.341   2.494  20.785  0.00  0.00    +0.000 A 
ATOM     12  C   UNL     1       2.617   3.679  20.929  0.00  0.00    +0.000 A 
ATOM     13  C   UNL     1       2.826   4.784  20.112  0.00  0.00    +0.000 A 
ATOM     14  N   UNL     1       2.100   5.875  20.380  0.00  0.00    +0.000 NA
ATOM     15  C   UNL     1       2.231   6.983  19.637  0.00  0.00    +0.000 A 
ENDROOT
BRANCH   7  16
ATOM     16  N   UNL     1       4.987   6.058  17.332  0.00  0.00    +0.000 N 
ATOM     17  H   UNL     1       4.764   5.776  16.389  0.00  0.00    +0.000 HD
BRANCH  16  18
ATOM     18  C   UNL     1       6.333   6.232  17.499  0.00  0.00    +0.000 C 
ATOM     19  S   UNL     1       7.463   5.059  17.871  0.00  0.00    +0.000 S 
BRANCH  18  20
ATOM     20  N   UNL     1       6.778   7.505  17.253  0.00  0.00    +0.000 N 
ATOM     21  H   UNL     1       6.395   7.924  16.412  0.00  0.00    +0.000 HD
BRANCH  20  22
ATOM     22  C   UNL     1       7.894   8.212  17.885  0.00  0.00    +0.000 C 
BRANCH  22  23
ATOM     23  C   UNL     1       7.870   9.734  17.693  0.00  0.00    +0.000 C 
BRANCH  23  24
ATOM     24  C   UNL     1       9.037  10.432  18.335  0.00  0.00    +0.000 A 
ATOM     25  C   UNL     1      10.112  11.041  17.720  0.00  0.00    +0.000 A 
ATOM     26  C   UNL     1      11.042  11.584  18.649  0.00  0.00    +0.000 A 
ATOM     27  C   UNL     1      10.655  11.357  19.952  0.00  0.00    +0.000 A 
ATOM     28  S   UNL     1       9.174  10.505  20.042  0.00  0.00    +0.000 S 
ENDBRANCH  23  24
ENDBRANCH  22  23
ENDBRANCH  20  22
ENDBRANCH  18  20
ENDBRANCH  16  18
ENDBRANCH   7  16
TORSDOF 6
ENDMDL
MODEL 8
REMARK VINA RESULT:      -7.2      3.518      8.984
REMARK  Name = 
REMARK  7 active torsions:
REMARK  status: ('A' for Active; 'I' for Inactive)
REMARK    1  A    between atoms: C_1  and  C_2
REMARK    2  A    between atoms: C_7  and  N_8
REMARK    3  A    between atoms: N_8  and  C_9
REMARK    4  A    between atoms: C_9  and  N_11
REMARK    5  A    between atoms: N_11  and  C_12
REMARK    6  A    between atoms: C_12  and  C_13
REMARK    7  A    between atoms: C_13  and  C_14
REMARK                            x       y       z     vdW  Elec       q    Type
REMARK                         _______ _______ _______ _____ _____    ______ ____
ROOT
ATOM      1  C   UNL     1      -5.388  12.163  17.209  0.00  0.00    +0.000 C 
ATOM      2  C   UNL     1      -4.105  11.376  17.156  0.00  0.00    +0.000 A 
ATOM      3  C   UNL     1      -3.843  10.589  16.023  0.00  0.00    +0.000 A 
ATOM      4  C   UNL     1      -2.710   9.799  15.976  0.00  0.00    +0.000 A 
ATOM      5  C   UNL     1      -1.803   9.840  17.028  0.00  0.00    +0.000 A 
ATOM      6  C   UNL     1      -1.992  10.694  18.151  0.00  0.00    +0.000 A 
ATOM      7  C   UNL     1      -1.053  10.841  19.215  0.00  0.00    +0.000 A 
ATOM      8  C   UNL     1      -1.382  11.652  20.344  0.00  0.00    +0.000 A 
ATOM      9  C   UNL     1      -0.541  11.954  21.449  0.00  0.00    +0.000 A 
ATOM     10  C   UNL     1      -0.970  12.722  22.533  0.00  0.00    +0.000 A 
ATOM     11  C   UNL     1      -2.241  13.264  22.516  0.00  0.00    +0.000 A 
ATOM     12  C   UNL     1      -3.053  13.045  21.402  0.00  0.00    +0.000 A 
ATOM     13  C   UNL     1      -2.648  12.263  20.327  0.00  0.00    +0.000 A 
ATOM     14  N   UNL     1      -3.500  12.167  19.299  0.00  0.00    +0.000 NA
ATOM     15  C   UNL     1      -3.194  11.425  18.225  0.00  0.00    +0.000 A 
ENDROOT
BRANCH   7  16
ATOM     16  N   UNL     1       0.261  10.315  18.998  0.00  0.00    +0.000 N 
ATOM     17  H   UNL     1       0.715  10.640  18.157  0.00  0.00    +0.000 HD
BRANCH  16  18
ATOM     18  C   UNL     1       0.906   9.234  19.531  0.00  0.00    +0.000 C 
ATOM     19  S   UNL     1       0.759   8.637  21.085  0.00  0.00    +0.000 S 
BRANCH  18  20
ATOM     20  N   UNL     1       1.693   8.545  18.644  0.00  0.00    +0.000 N 
ATOM     21  H   UNL     1       1.402   8.632  17.676  0.00  0.00    +0.000 HD
BRANCH  20  22
ATOM     22  C   UNL     1       2.707   7.528  18.934  0.00  0.00    +0.000 C 
BRANCH  22  23
ATOM     23  C   UNL     1       2.534   6.221  18.149  0.00  0.00    +0.000 C 
BRANCH  23  24
ATOM     24  C   UNL     1       1.944   5.108  18.970  0.00  0.00    +0.000 A 
ATOM     25  C   UNL     1       1.812   5.037  20.342  0.00  0.00    +0.000 A 
ATOM     26  C   UNL     1       1.223   3.817  20.775  0.00  0.00    +0.000 A 
ATOM     27  C   UNL     1       0.936   2.983  19.716  0.00  0.00    +0.000 A 
ATOM     28  S   UNL     1       1.369   3.681  18.215  0.00  0.00    +0.000 S 
ENDBRANCH  23  24
ENDBRANCH  22  23
ENDBRANCH  20  22
ENDBRANCH  18  20
ENDBRANCH  16  18
ENDBRANCH   7  16
TORSDOF 6
ENDMDL
MODEL 9
REMARK VINA RESULT:      -7.2      2.245      4.513
REMARK  Name = 
REMARK  7 active torsions:
REMARK  status: ('A' for Active; 'I' for Inactive)
REMARK    1  A    between atoms: C_1  and  C_2
REMARK    2  A    between atoms: C_7  and  N_8
REMARK    3  A    between atoms: N_8  and  C_9
REMARK    4  A    between atoms: C_9  and  N_11
REMARK    5  A    between atoms: N_11  and  C_12
REMARK    6  A    between atoms: C_12  and  C_13
REMARK    7  A    between atoms: C_13  and  C_14
REMARK                            x       y       z     vdW  Elec       q    Type
REMARK                         _______ _______ _______ _____ _____    ______ ____
ROOT
ATOM      1  C   UNL     1       6.038   3.602  15.123  0.00  0.00    +0.000 C 
ATOM      2  C   UNL     1       5.873   4.648  16.194  0.00  0.00    +0.000 A 
ATOM      3  C   UNL     1       6.768   5.730  16.222  0.00  0.00    +0.000 A 
ATOM      4  C   UNL     1       6.688   6.666  17.236  0.00  0.00    +0.000 A 
ATOM      5  C   UNL     1       5.678   6.565  18.184  0.00  0.00    +0.000 A 
ATOM      6  C   UNL     1       4.699   5.534  18.131  0.00  0.00    +0.000 A 
ATOM      7  C   UNL     1       3.591   5.432  19.025  0.00  0.00    +0.000 A 
ATOM      8  C   UNL     1       2.719   4.303  18.947  0.00  0.00    +0.000 A 
ATOM      9  C   UNL     1       1.541   4.083  19.712  0.00  0.00    +0.000 A 
ATOM     10  C   UNL     1       0.777   2.921  19.598  0.00  0.00    +0.000 A 
ATOM     11  C   UNL     1       1.135   1.965  18.666  0.00  0.00    +0.000 A 
ATOM     12  C   UNL     1       2.242   2.201  17.850  0.00  0.00    +0.000 A 
ATOM     13  C   UNL     1       3.027   3.341  17.969  0.00  0.00    +0.000 A 
ATOM     14  N   UNL     1       4.034   3.471  17.098  0.00  0.00    +0.000 NA
ATOM     15  C   UNL     1       4.847   4.537  17.147  0.00  0.00    +0.000 A 
ENDROOT
BRANCH   7  16
ATOM     16  N   UNL     1       3.300   6.579  19.830  0.00  0.00    +0.000 N 
ATOM     17  H   UNL     1       3.738   6.583  20.740  0.00  0.00    +0.000 HD
BRANCH  16  18
ATOM     18  C   UNL     1       2.314   7.522  19.745  0.00  0.00    +0.000 C 
ATOM     19  S   UNL     1       1.284   8.018  20.963  0.00  0.00    +0.000 S 
BRANCH  18  20
ATOM     20  N   UNL     1       2.242   8.164  18.535  0.00  0.00    +0.000 N 
ATOM     21  H   UNL     1       3.056   8.032  17.945  0.00  0.00    +0.000 HD
BRANCH  20  22
ATOM     22  C   UNL     1       1.286   9.189  18.111  0.00  0.00    +0.000 C 
BRANCH  22  23
ATOM     23  C   UNL     1       1.920  10.550  17.787  0.00  0.00    +0.000 C 
BRANCH  23  24
ATOM     24  C   UNL     1       1.633  11.600  18.823  0.00  0.00    +0.000 A 
ATOM     25  C   UNL     1       0.743  11.541  19.876  0.00  0.00    +0.000 A 
ATOM     26  C   UNL     1       0.720  12.737  20.645  0.00  0.00    +0.000 A 
ATOM     27  C   UNL     1       1.587  13.684  20.144  0.00  0.00    +0.000 A 
ATOM     28  S   UNL     1       2.424  13.120  18.762  0.00  0.00    +0.000 S 
ENDBRANCH  23  24
ENDBRANCH  22  23
ENDBRANCH  20  22
ENDBRANCH  18  20
ENDBRANCH  16  18
ENDBRANCH   7  16
TORSDOF 6
ENDMDL
