MODEL 1
REMARK VINA RESULT:      -7.1      0.000      0.000
REMARK  Name = 
REMARK  7 active torsions:
REMARK  status: ('A' for Active; 'I' for Inactive)
REMARK    1  A    between atoms: C_1  and  C_2
REMARK    2  A    between atoms: C_2  and  C_3
REMARK    3  A    between atoms: C_2  and  C_4
REMARK    4  A    between atoms: C_8  and  C_9
REMARK    5  A    between atoms: C_10  and  C_11
REMARK    6  A    between atoms: N_19  and  C_20
REMARK    7  A    between atoms: C_20  and  C_21
REMARK                            x       y       z     vdW  Elec       q    Type
REMARK                         _______ _______ _______ _____ _____    ______ ____
ROOT
ATOM      1  C   UNL     1       3.934   5.128  18.042  0.00  0.00    +0.000 A 
ATOM      2  C   UNL     1       5.263   5.160  17.602  0.00  0.00    +0.000 A 
ATOM      3  N   UNL     1       5.558   4.064  16.819  0.00  0.00    +0.000 NA
ATOM      4  C   UNL     1       4.454   3.362  16.775  0.00  0.00    +0.000 A 
ATOM      5  N   UNL     1       3.461   3.930  17.527  0.00  0.00    +0.000 N 
ENDROOT
BRANCH   1  10
ATOM      6  C   UNL     1       1.988   8.110  18.585  0.00  0.00    +0.000 A 
ATOM      7  N   UNL     1       1.697   8.137  19.897  0.00  0.00    +0.000 NA
ATOM      8  C   UNL     1       2.168   7.118  20.634  0.00  0.00    +0.000 A 
ATOM      9  C   UNL     1       2.933   6.098  20.123  0.00  0.00    +0.000 A 
ATOM     10  C   UNL     1       3.139   6.123  18.766  0.00  0.00    +0.000 A 
ATOM     11  N   UNL     1       2.656   7.109  17.984  0.00  0.00    +0.000 NA
BRANCH   6  13
ATOM     12  C   UNL     1       0.090   9.577  17.936  0.00  0.00    +0.000 C 
ATOM     13  C   UNL     1       1.572   9.282  17.728  0.00  0.00    +0.000 C 
ATOM     14  C   UNL     1       2.430  10.516  18.019  0.00  0.00    +0.000 C 
ENDBRANCH   6  13
ENDBRANCH   1  10
BRANCH   2  15
ATOM     15  C   UNL     1       6.243   6.218  17.837  0.00  0.00    +0.000 A 
ATOM     16  C   UNL     1       6.185   7.442  17.154  0.00  0.00    +0.000 A 
ATOM     17  C   UNL     1       7.212   8.381  17.278  0.00  0.00    +0.000 A 
ATOM     18  C   UNL     1       8.284   8.132  18.130  0.00  0.00    +0.000 A 
ATOM     19  C   UNL     1       8.316   6.957  18.879  0.00  0.00    +0.000 A 
ATOM     20  C   UNL     1       7.298   6.007  18.737  0.00  0.00    +0.000 A 
ENDBRANCH   2  15
BRANCH   5  21
ATOM     21  C   UNL     1       2.133   3.351  17.655  0.00  0.00    +0.000 C 
BRANCH  21  22
ATOM     22  C   UNL     1       1.795   3.089  19.080  0.00  0.00    +0.000 A 
ATOM     23  C   UNL     1       0.665   3.260  19.857  0.00  0.00    +0.000 A 
ATOM     24  C   UNL     1       0.995   2.812  21.159  0.00  0.00    +0.000 A 
ATOM     25  C   UNL     1       2.303   2.391  21.098  0.00  0.00    +0.000 A 
ATOM     26  O   UNL     1       2.795   2.553  19.842  0.00  0.00    +0.000 OA
ENDBRANCH  21  22
ENDBRANCH   5  21
TORSDOF 5
ENDMDL
MODEL 2
REMARK VINA RESULT:      -7.0      2.012      5.643
REMARK  Name = 
REMARK  7 active torsions:
REMARK  status: ('A' for Active; 'I' for Inactive)
REMARK    1  A    between atoms: C_1  and  C_2
REMARK    2  A    between atoms: C_2  and  C_3
REMARK    3  A    between atoms: C_2  and  C_4
REMARK    4  A    between atoms: C_8  and  C_9
REMARK    5  A    between atoms: C_10  and  C_11
REMARK    6  A    between atoms: N_19  and  C_20
REMARK    7  A    between atoms: C_20  and  C_21
REMARK                            x       y       z     vdW  Elec       q    Type
REMARK                         _______ _______ _______ _____ _____    ______ ____
ROOT
ATOM      1  C   UNL     1       3.892   5.765  18.117  0.00  0.00    +0.000 A 
ATOM      2  C   UNL     1       3.788   4.457  18.603  0.00  0.00    +0.000 A 
ATOM      3  N   UNL     1       4.860   3.687  18.205  0.00  0.00    +0.000 NA
ATOM      4  C   UNL     1       5.610   4.483  17.486  0.00  0.00    +0.000 A 
ATOM      5  N   UNL     1       5.056   5.730  17.363  0.00  0.00    +0.000 N 
ENDROOT
BRANCH   1  10
ATOM      6  C   UNL     1       1.784   8.039  19.952  0.00  0.00    +0.000 A 
ATOM      7  N   UNL     1       1.482   9.039  19.107  0.00  0.00    +0.000 NA
ATOM      8  C   UNL     1       2.003   8.956  17.872  0.00  0.00    +0.000 A 
ATOM      9  C   UNL     1       2.783   7.909  17.444  0.00  0.00    +0.000 A 
ATOM     10  C   UNL     1       3.083   6.957  18.387  0.00  0.00    +0.000 A 
ATOM     11  N   UNL     1       2.609   7.021  19.647  0.00  0.00    +0.000 NA
BRANCH   6  13
ATOM     12  C   UNL     1       1.739   9.139  22.180  0.00  0.00    +0.000 C 
ATOM     13  C   UNL     1       1.143   8.030  21.319  0.00  0.00    +0.000 C 
ATOM     14  C   UNL     1      -0.379   8.160  21.220  0.00  0.00    +0.000 C 
ENDBRANCH   6  13
ENDBRANCH   1  10
BRANCH   2  15
ATOM     15  C   UNL     1       2.749   3.925  19.483  0.00  0.00    +0.000 A 
ATOM     16  C   UNL     1       2.971   3.734  20.855  0.00  0.00    +0.000 A 
ATOM     17  C   UNL     1       2.023   3.086  21.651  0.00  0.00    +0.000 A 
ATOM     18  C   UNL     1       0.817   2.669  21.096  0.00  0.00    +0.000 A 
ATOM     19  C   UNL     1       0.545   2.925  19.753  0.00  0.00    +0.000 A 
ATOM     20  C   UNL     1       1.505   3.553  18.952  0.00  0.00    +0.000 A 
ENDBRANCH   2  15
BRANCH   5  21
ATOM     21  C   UNL     1       5.681   6.806  16.611  0.00  0.00    +0.000 C 
BRANCH  21  22
ATOM     22  C   UNL     1       6.816   7.402  17.366  0.00  0.00    +0.000 A 
ATOM     23  C   UNL     1       7.725   6.923  18.291  0.00  0.00    +0.000 A 
ATOM     24  C   UNL     1       8.563   8.009  18.638  0.00  0.00    +0.000 A 
ATOM     25  C   UNL     1       8.120   9.083  17.902  0.00  0.00    +0.000 A 
ATOM     26  O   UNL     1       7.064   8.724  17.127  0.00  0.00    +0.000 OA
ENDBRANCH  21  22
ENDBRANCH   5  21
TORSDOF 5
ENDMDL
MODEL 3
REMARK VINA RESULT:      -7.0      2.346      5.960
REMARK  Name = 
REMARK  7 active torsions:
REMARK  status: ('A' for Active; 'I' for Inactive)
REMARK    1  A    between atoms: C_1  and  C_2
REMARK    2  A    between atoms: C_2  and  C_3
REMARK    3  A    between atoms: C_2  and  C_4
REMARK    4  A    between atoms: C_8  and  C_9
REMARK    5  A    between atoms: C_10  and  C_11
REMARK    6  A    between atoms: N_19  and  C_20
REMARK    7  A    between atoms: C_20  and  C_21
REMARK                            x       y       z     vdW  Elec       q    Type
REMARK                         _______ _______ _______ _____ _____    ______ ____
ROOT
ATOM      1  C   UNL     1       3.606   5.776  17.808  0.00  0.00    +0.000 A 
ATOM      2  C   UNL     1       3.487   7.171  17.822  0.00  0.00    +0.000 A 
ATOM      3  N   UNL     1       4.500   7.767  17.100  0.00  0.00    +0.000 NA
ATOM      4  C   UNL     1       5.235   6.781  16.655  0.00  0.00    +0.000 A 
ATOM      5  N   UNL     1       4.772   5.566  17.086  0.00  0.00    +0.000 N 
ENDROOT
BRANCH   1  10
ATOM      6  C   UNL     1       2.207   3.371  20.097  0.00  0.00    +0.000 A 
ATOM      7  N   UNL     1       1.217   2.751  19.433  0.00  0.00    +0.000 NA
ATOM      8  C   UNL     1       1.003   3.149  18.169  0.00  0.00    +0.000 A 
ATOM      9  C   UNL     1       1.751   4.114  17.538  0.00  0.00    +0.000 A 
ATOM     10  C   UNL     1       2.708   4.731  18.307  0.00  0.00    +0.000 A 
ATOM     11  N   UNL     1       2.931   4.385  19.590  0.00  0.00    +0.000 NA
BRANCH   6  13
ATOM     12  C   UNL     1       1.309   2.364  22.183  0.00  0.00    +0.000 C 
ATOM     13  C   UNL     1       2.557   2.893  21.486  0.00  0.00    +0.000 C 
ATOM     14  C   UNL     1       3.663   1.834  21.446  0.00  0.00    +0.000 C 
ENDBRANCH   6  13
ENDBRANCH   1  10
BRANCH   2  15
ATOM     15  C   UNL     1       2.417   7.957  18.433  0.00  0.00    +0.000 A 
ATOM     16  C   UNL     1       1.704   8.923  17.707  0.00  0.00    +0.000 A 
ATOM     17  C   UNL     1       0.792   9.768  18.342  0.00  0.00    +0.000 A 
ATOM     18  C   UNL     1       0.539   9.622  19.703  0.00  0.00    +0.000 A 
ATOM     19  C   UNL     1       1.177   8.613  20.422  0.00  0.00    +0.000 A 
ATOM     20  C   UNL     1       2.108   7.782  19.790  0.00  0.00    +0.000 A 
ENDBRANCH   2  15
BRANCH   5  21
ATOM     21  C   UNL     1       5.408   4.305  16.740  0.00  0.00    +0.000 C 
BRANCH  21  22
ATOM     22  C   UNL     1       5.959   4.342  15.358  0.00  0.00    +0.000 A 
ATOM     23  C   UNL     1       5.474   4.000  14.110  0.00  0.00    +0.000 A 
ATOM     24  C   UNL     1       6.507   4.275  13.182  0.00  0.00    +0.000 A 
ATOM     25  C   UNL     1       7.558   4.771  13.917  0.00  0.00    +0.000 A 
ATOM     26  O   UNL     1       7.235   4.818  15.236  0.00  0.00    +0.000 OA
ENDBRANCH  21  22
ENDBRANCH   5  21
TORSDOF 5
ENDMDL
MODEL 4
REMARK VINA RESULT:      -6.9      2.768      5.920
REMARK  Name = 
REMARK  7 active torsions:
REMARK  status: ('A' for Active; 'I' for Inactive)
REMARK    1  A    between atoms: C_1  and  C_2
REMARK    2  A    between atoms: C_2  and  C_3
REMARK    3  A    between atoms: C_2  and  C_4
REMARK    4  A    between atoms: C_8  and  C_9
REMARK    5  A    between atoms: C_10  and  C_11
REMARK    6  A    between atoms: N_19  and  C_20
REMARK    7  A    between atoms: C_20  and  C_21
REMARK                            x       y       z     vdW  Elec       q    Type
REMARK                         _______ _______ _______ _____ _____    ______ ____
ROOT
ATOM      1  C   UNL     1       4.577   5.426  17.467  0.00  0.00    +0.000 A 
ATOM      2  C   UNL     1       3.976   6.681  17.316  0.00  0.00    +0.000 A 
ATOM      3  N   UNL     1       4.368   7.287  16.142  0.00  0.00    +0.000 NA
ATOM      4  C   UNL     1       5.194   6.444  15.576  0.00  0.00    +0.000 A 
ATOM      5  N   UNL     1       5.391   5.330  16.348  0.00  0.00    +0.000 N 
ENDROOT
BRANCH   1  10
ATOM      6  C   UNL     1       2.782   3.093  19.544  0.00  0.00    +0.000 A 
ATOM      7  N   UNL     1       3.702   2.485  20.311  0.00  0.00    +0.000 NA
ATOM      8  C   UNL     1       4.977   2.866  20.130  0.00  0.00    +0.000 A 
ATOM      9  C   UNL     1       5.361   3.841  19.241  0.00  0.00    +0.000 A 
ATOM     10  C   UNL     1       4.363   4.372  18.463  0.00  0.00    +0.000 A 
ATOM     11  N   UNL     1       3.076   3.993  18.588  0.00  0.00    +0.000 NA
BRANCH   6  13
ATOM     12  C   UNL     1       0.613   3.995  20.357  0.00  0.00    +0.000 C 
ATOM     13  C   UNL     1       1.323   2.776  19.776  0.00  0.00    +0.000 C 
ATOM     14  C   UNL     1       0.647   2.300  18.488  0.00  0.00    +0.000 C 
ENDBRANCH   6  13
ENDBRANCH   1  10
BRANCH   2  15
ATOM     15  C   UNL     1       2.994   7.300  18.206  0.00  0.00    +0.000 A 
ATOM     16  C   UNL     1       2.245   8.419  17.814  0.00  0.00    +0.000 A 
ATOM     17  C   UNL     1       1.425   9.087  18.726  0.00  0.00    +0.000 A 
ATOM     18  C   UNL     1       1.301   8.612  20.028  0.00  0.00    +0.000 A 
ATOM     19  C   UNL     1       1.974   7.453  20.411  0.00  0.00    +0.000 A 
ATOM     20  C   UNL     1       2.813   6.798  19.503  0.00  0.00    +0.000 A 
ENDBRANCH   2  15
BRANCH   5  21
ATOM     21  C   UNL     1       6.267   4.238  15.956  0.00  0.00    +0.000 C 
BRANCH  21  22
ATOM     22  C   UNL     1       6.629   4.329  14.515  0.00  0.00    +0.000 A 
ATOM     23  C   UNL     1       6.161   3.737  13.357  0.00  0.00    +0.000 A 
ATOM     24  C   UNL     1       6.942   4.250  12.294  0.00  0.00    +0.000 A 
ATOM     25  C   UNL     1       7.835   5.126  12.864  0.00  0.00    +0.000 A 
ATOM     26  O   UNL     1       7.652   5.182  14.209  0.00  0.00    +0.000 OA
ENDBRANCH  21  22
ENDBRANCH   5  21
TORSDOF 5
ENDMDL
MODEL 5
REMARK VINA RESULT:      -6.9      1.013      2.086
REMARK  Name = 
REMARK  7 active torsions:
REMARK  status: ('A' for Active; 'I' for Inactive)
REMARK    1  A    between atoms: C_1  and  C_2
REMARK    2  A    between atoms: C_2  and  C_3
REMARK    3  A    between atoms: C_2  and  C_4
REMARK    4  A    between atoms: C_8  and  C_9
REMARK    5  A    between atoms: C_10  and  C_11
REMARK    6  A    between atoms: N_19  and  C_20
REMARK    7  A    between atoms: C_20  and  C_21
REMARK                            x       y       z     vdW  Elec       q    Type
REMARK                         _______ _______ _______ _____ _____    ______ ____
ROOT
ATOM      1  C   UNL     1       3.926   5.587  18.013  0.00  0.00    +0.000 A 
ATOM      2  C   UNL     1       5.290   5.383  17.770  0.00  0.00    +0.000 A 
ATOM      3  N   UNL     1       5.538   4.090  17.363  0.00  0.00    +0.000 NA
ATOM      4  C   UNL     1       4.371   3.498  17.359  0.00  0.00    +0.000 A 
ATOM      5  N   UNL     1       3.374   4.336  17.782  0.00  0.00    +0.000 N 
ENDROOT
BRANCH   1  10
ATOM      6  C   UNL     1       1.909   7.893  19.910  0.00  0.00    +0.000 A 
ATOM      7  N   UNL     1       1.681   8.945  19.105  0.00  0.00    +0.000 NA
ATOM      8  C   UNL     1       2.222   8.886  17.877  0.00  0.00    +0.000 A 
ATOM      9  C   UNL     1       2.952   7.817  17.417  0.00  0.00    +0.000 A 
ATOM     10  C   UNL     1       3.179   6.810  18.322  0.00  0.00    +0.000 A 
ATOM     11  N   UNL     1       2.683   6.844  19.575  0.00  0.00    +0.000 NA
BRANCH   6  13
ATOM     12  C   UNL     1       1.780   8.987  22.137  0.00  0.00    +0.000 C 
ATOM     13  C   UNL     1       1.241   7.859  21.264  0.00  0.00    +0.000 C 
ATOM     14  C   UNL     1      -0.283   7.937  21.132  0.00  0.00    +0.000 C 
ENDBRANCH   6  13
ENDBRANCH   1  10
BRANCH   2  15
ATOM     15  C   UNL     1       6.356   6.381  17.842  0.00  0.00    +0.000 A 
ATOM     16  C   UNL     1       7.475   6.206  18.669  0.00  0.00    +0.000 A 
ATOM     17  C   UNL     1       8.407   7.232  18.842  0.00  0.00    +0.000 A 
ATOM     18  C   UNL     1       8.260   8.428  18.145  0.00  0.00    +0.000 A 
ATOM     19  C   UNL     1       7.199   8.588  17.256  0.00  0.00    +0.000 A 
ATOM     20  C   UNL     1       6.254   7.568  17.102  0.00  0.00    +0.000 A 
ENDBRANCH   2  15
BRANCH   5  21
ATOM     21  C   UNL     1       1.981   3.929  17.877  0.00  0.00    +0.000 C 
BRANCH  21  22
ATOM     22  C   UNL     1       1.650   3.460  19.250  0.00  0.00    +0.000 A 
ATOM     23  C   UNL     1       0.787   3.890  20.241  0.00  0.00    +0.000 A 
ATOM     24  C   UNL     1       0.946   3.002  21.332  0.00  0.00    +0.000 A 
ATOM     25  C   UNL     1       1.891   2.082  20.941  0.00  0.00    +0.000 A 
ATOM     26  O   UNL     1       2.322   2.350  19.680  0.00  0.00    +0.000 OA
ENDBRANCH  21  22
ENDBRANCH   5  21
TORSDOF 5
ENDMDL
MODEL 6
REMARK VINA RESULT:      -6.6      1.418      2.561
REMARK  Name = 
REMARK  7 active torsions:
REMARK  status: ('A' for Active; 'I' for Inactive)
REMARK    1  A    between atoms: C_1  and  C_2
REMARK    2  A    between atoms: C_2  and  C_3
REMARK    3  A    between atoms: C_2  and  C_4
REMARK    4  A    between atoms: C_8  and  C_9
REMARK    5  A    between atoms: C_10  and  C_11
REMARK    6  A    between atoms: N_19  and  C_20
REMARK    7  A    between atoms: C_20  and  C_21
REMARK                            x       y       z     vdW  Elec       q    Type
REMARK                         _______ _______ _______ _____ _____    ______ ____
ROOT
ATOM      1  C   UNL     1       4.778   5.354  17.197  0.00  0.00    +0.000 A 
ATOM      2  C   UNL     1       6.176   5.357  17.122  0.00  0.00    +0.000 A 
ATOM      3  N   UNL     1       6.643   4.268  16.417  0.00  0.00    +0.000 NA
ATOM      4  C   UNL     1       5.574   3.598  16.067  0.00  0.00    +0.000 A 
ATOM      5  N   UNL     1       4.430   4.180  16.545  0.00  0.00    +0.000 N 
ENDROOT
BRANCH   1  10
ATOM      6  C   UNL     1       2.257   6.807  19.321  0.00  0.00    +0.000 A 
ATOM      7  N   UNL     1       1.990   8.021  18.813  0.00  0.00    +0.000 NA
ATOM      8  C   UNL     1       2.678   8.375  17.716  0.00  0.00    +0.000 A 
ATOM      9  C   UNL     1       3.594   7.560  17.096  0.00  0.00    +0.000 A 
ATOM     10  C   UNL     1       3.842   6.357  17.712  0.00  0.00    +0.000 A 
ATOM     11  N   UNL     1       3.198   5.978  18.833  0.00  0.00    +0.000 NA
BRANCH   6  13
ATOM     12  C   UNL     1       2.176   5.187  21.204  0.00  0.00    +0.000 C 
ATOM     13  C   UNL     1       1.440   6.317  20.494  0.00  0.00    +0.000 C 
ATOM     14  C   UNL     1       1.113   7.461  21.458  0.00  0.00    +0.000 C 
ENDBRANCH   6  13
ENDBRANCH   1  10
BRANCH   2  15
ATOM     15  C   UNL     1       7.083   6.383  17.634  0.00  0.00    +0.000 A 
ATOM     16  C   UNL     1       7.848   6.182  18.792  0.00  0.00    +0.000 A 
ATOM     17  C   UNL     1       8.591   7.224  19.350  0.00  0.00    +0.000 A 
ATOM     18  C   UNL     1       8.625   8.467  18.725  0.00  0.00    +0.000 A 
ATOM     19  C   UNL     1       7.938   8.660  17.528  0.00  0.00    +0.000 A 
ATOM     20  C   UNL     1       7.174   7.622  16.983  0.00  0.00    +0.000 A 
ENDBRANCH   2  15
BRANCH   5  21
ATOM     21  C   UNL     1       3.103   3.636  16.305  0.00  0.00    +0.000 C 
BRANCH  21  22
ATOM     22  C   UNL     1       2.553   2.999  17.533  0.00  0.00    +0.000 A 
ATOM     23  C   UNL     1       3.062   2.151  18.498  0.00  0.00    +0.000 A 
ATOM     24  C   UNL     1       2.014   1.904  19.417  0.00  0.00    +0.000 A 
ATOM     25  C   UNL     1       0.931   2.618  18.960  0.00  0.00    +0.000 A 
ATOM     26  O   UNL     1       1.248   3.286  17.821  0.00  0.00    +0.000 OA
ENDBRANCH  21  22
ENDBRANCH   5  21
TORSDOF 5
ENDMDL
MODEL 7
REMARK VINA RESULT:      -6.5      6.866     10.863
REMARK  Name = 
REMARK  7 active torsions:
REMARK  status: ('A' for Active; 'I' for Inactive)
REMARK    1  A    between atoms: C_1  and  C_2
REMARK    2  A    between atoms: C_2  and  C_3
REMARK    3  A    between atoms: C_2  and  C_4
REMARK    4  A    between atoms: C_8  and  C_9
REMARK    5  A    between atoms: C_10  and  C_11
REMARK    6  A    between atoms: N_19  and  C_20
REMARK    7  A    between atoms: C_20  and  C_21
REMARK                            x       y       z     vdW  Elec       q    Type
REMARK                         _______ _______ _______ _____ _____    ______ ____
ROOT
ATOM      1  C   UNL     1      -3.181  12.687  21.470  0.00  0.00    +0.000 A 
ATOM      2  C   UNL     1      -4.576  12.717  21.590  0.00  0.00    +0.000 A 
ATOM      3  N   UNL     1      -4.967  12.667  22.911  0.00  0.00    +0.000 NA
ATOM      4  C   UNL     1      -3.855  12.599  23.599  0.00  0.00    +0.000 A 
ATOM      5  N   UNL     1      -2.755  12.562  22.784  0.00  0.00    +0.000 N 
ENDROOT
BRANCH   1  10
ATOM      6  C   UNL     1      -1.500  11.850  18.395  0.00  0.00    +0.000 A 
ATOM      7  N   UNL     1      -0.720  12.902  18.093  0.00  0.00    +0.000 NA
ATOM      8  C   UNL     1      -0.754  13.936  18.949  0.00  0.00    +0.000 A 
ATOM      9  C   UNL     1      -1.509  13.950  20.097  0.00  0.00    +0.000 A 
ATOM     10  C   UNL     1      -2.314  12.856  20.301  0.00  0.00    +0.000 A 
ATOM     11  N   UNL     1      -2.335  11.812  19.450  0.00  0.00    +0.000 NA
BRANCH   6  13
ATOM     12  C   UNL     1      -0.251   9.747  17.957  0.00  0.00    +0.000 C 
ATOM     13  C   UNL     1      -1.424  10.619  17.523  0.00  0.00    +0.000 C 
ATOM     14  C   UNL     1      -2.740   9.837  17.552  0.00  0.00    +0.000 C 
ENDBRANCH   6  13
ENDBRANCH   1  10
BRANCH   2  15
ATOM     15  C   UNL     1      -5.549  12.860  20.508  0.00  0.00    +0.000 A 
ATOM     16  C   UNL     1      -5.836  14.107  19.934  0.00  0.00    +0.000 A 
ATOM     17  C   UNL     1      -6.874  14.249  19.010  0.00  0.00    +0.000 A 
ATOM     18  C   UNL     1      -7.603  13.134  18.606  0.00  0.00    +0.000 A 
ATOM     19  C   UNL     1      -7.276  11.874  19.105  0.00  0.00    +0.000 A 
ATOM     20  C   UNL     1      -6.252  11.737  20.048  0.00  0.00    +0.000 A 
ENDBRANCH   2  15
BRANCH   5  21
ATOM     21  C   UNL     1      -1.394  12.481  23.292  0.00  0.00    +0.000 C 
BRANCH  21  22
ATOM     22  C   UNL     1      -0.715  11.246  22.815  0.00  0.00    +0.000 A 
ATOM     23  C   UNL     1      -0.836   9.899  23.101  0.00  0.00    +0.000 A 
ATOM     24  C   UNL     1       0.116   9.225  22.300  0.00  0.00    +0.000 A 
ATOM     25  C   UNL     1       0.757  10.199  21.570  0.00  0.00    +0.000 A 
ATOM     26  O   UNL     1       0.259  11.425  21.873  0.00  0.00    +0.000 OA
ENDBRANCH  21  22
ENDBRANCH   5  21
TORSDOF 5
ENDMDL
MODEL 8
REMARK VINA RESULT:      -6.5      2.693      5.974
REMARK  Name = 
REMARK  7 active torsions:
REMARK  status: ('A' for Active; 'I' for Inactive)
REMARK    1  A    between atoms: C_1  and  C_2
REMARK    2  A    between atoms: C_2  and  C_3
REMARK    3  A    between atoms: C_2  and  C_4
REMARK    4  A    between atoms: C_8  and  C_9
REMARK    5  A    between atoms: C_10  and  C_11
REMARK    6  A    between atoms: N_19  and  C_20
REMARK    7  A    between atoms: C_20  and  C_21
REMARK                            x       y       z     vdW  Elec       q    Type
REMARK                         _______ _______ _______ _____ _____    ______ ____
ROOT
ATOM      1  C   UNL     1       4.595   5.492  17.305  0.00  0.00    +0.000 A 
ATOM      2  C   UNL     1       4.086   6.787  17.148  0.00  0.00    +0.000 A 
ATOM      3  N   UNL     1       4.504   7.349  15.961  0.00  0.00    +0.000 NA
ATOM      4  C   UNL     1       5.258   6.441  15.394  0.00  0.00    +0.000 A 
ATOM      5  N   UNL     1       5.383   5.324  16.176  0.00  0.00    +0.000 N 
ENDROOT
BRANCH   1  10
ATOM      6  C   UNL     1       2.665   3.361  19.476  0.00  0.00    +0.000 A 
ATOM      7  N   UNL     1       3.552   2.664  20.206  0.00  0.00    +0.000 NA
ATOM      8  C   UNL     1       4.850   2.912  19.967  0.00  0.00    +0.000 A 
ATOM      9  C   UNL     1       5.292   3.839  19.055  0.00  0.00    +0.000 A 
ATOM     10  C   UNL     1       4.319   4.469  18.317  0.00  0.00    +0.000 A 
ATOM     11  N   UNL     1       3.007   4.224  18.502  0.00  0.00    +0.000 NA
BRANCH   6  13
ATOM     12  C   UNL     1       0.579   2.182  18.817  0.00  0.00    +0.000 C 
ATOM     13  C   UNL     1       1.194   3.196  19.776  0.00  0.00    +0.000 C 
ATOM     14  C   UNL     1       0.967   2.792  21.235  0.00  0.00    +0.000 C 
ENDBRANCH   6  13
ENDBRANCH   1  10
BRANCH   2  15
ATOM     15  C   UNL     1       3.167   7.486  18.044  0.00  0.00    +0.000 A 
ATOM     16  C   UNL     1       2.927   7.039  19.351  0.00  0.00    +0.000 A 
ATOM     17  C   UNL     1       1.936   7.627  20.140  0.00  0.00    +0.000 A 
ATOM     18  C   UNL     1       1.209   8.709  19.651  0.00  0.00    +0.000 A 
ATOM     19  C   UNL     1       1.491   9.219  18.385  0.00  0.00    +0.000 A 
ATOM     20  C   UNL     1       2.468   8.614  17.588  0.00  0.00    +0.000 A 
ENDBRANCH   2  15
BRANCH   5  21
ATOM     21  C   UNL     1       6.171   4.165  15.785  0.00  0.00    +0.000 C 
BRANCH  21  22
ATOM     22  C   UNL     1       6.434   4.163  14.321  0.00  0.00    +0.000 A 
ATOM     23  C   UNL     1       7.384   4.747  13.504  0.00  0.00    +0.000 A 
ATOM     24  C   UNL     1       7.080   4.353  12.179  0.00  0.00    +0.000 A 
ATOM     25  C   UNL     1       5.967   3.550  12.266  0.00  0.00    +0.000 A 
ATOM     26  O   UNL     1       5.570   3.427  13.560  0.00  0.00    +0.000 OA
ENDBRANCH  21  22
ENDBRANCH   5  21
TORSDOF 5
ENDMDL
MODEL 9
REMARK VINA RESULT:      -6.5      2.485      6.050
REMARK  Name = 
REMARK  7 active torsions:
REMARK  status: ('A' for Active; 'I' for Inactive)
REMARK    1  A    between atoms: C_1  and  C_2
REMARK    2  A    between atoms: C_2  and  C_3
REMARK    3  A    between atoms: C_2  and  C_4
REMARK    4  A    between atoms: C_8  and  C_9
REMARK    5  A    between atoms: C_10  and  C_11
REMARK    6  A    between atoms: N_19  and  C_20
REMARK    7  A    between atoms: C_20  and  C_21
REMARK                            x       y       z     vdW  Elec       q    Type
REMARK                         _______ _______ _______ _____ _____    ______ ____
ROOT
ATOM      1  C   UNL     1       4.087   5.374  17.388  0.00  0.00    +0.000 A 
ATOM      2  C   UNL     1       3.931   6.762  17.481  0.00  0.00    +0.000 A 
ATOM      3  N   UNL     1       4.863   7.425  16.711  0.00  0.00    +0.000 NA
ATOM      4  C   UNL     1       5.586   6.484  16.158  0.00  0.00    +0.000 A 
ATOM      5  N   UNL     1       5.194   5.236  16.563  0.00  0.00    +0.000 N 
ENDROOT
BRANCH   1  10
ATOM      6  C   UNL     1       2.682   3.079  19.783  0.00  0.00    +0.000 A 
ATOM      7  N   UNL     1       1.882   2.252  19.089  0.00  0.00    +0.000 NA
ATOM      8  C   UNL     1       1.805   2.467  17.766  0.00  0.00    +0.000 A 
ATOM      9  C   UNL     1       2.509   3.447  17.111  0.00  0.00    +0.000 A 
ATOM     10  C   UNL     1       3.262   4.278  17.904  0.00  0.00    +0.000 A 
ATOM     11  N   UNL     1       3.341   4.119  19.240  0.00  0.00    +0.000 NA
BRANCH   6  13
ATOM     12  C   UNL     1       1.549   2.497  21.917  0.00  0.00    +0.000 C 
ATOM     13  C   UNL     1       2.885   2.820  21.257  0.00  0.00    +0.000 C 
ATOM     14  C   UNL     1       3.905   1.702  21.489  0.00  0.00    +0.000 C 
ENDBRANCH   6  13
ENDBRANCH   1  10
BRANCH   2  15
ATOM     15  C   UNL     1       2.893   7.484  18.216  0.00  0.00    +0.000 A 
ATOM     16  C   UNL     1       2.210   8.571  17.651  0.00  0.00    +0.000 A 
ATOM     17  C   UNL     1       1.332   9.342  18.417  0.00  0.00    +0.000 A 
ATOM     18  C   UNL     1       1.084   9.001  19.744  0.00  0.00    +0.000 A 
ATOM     19  C   UNL     1       1.691   7.875  20.296  0.00  0.00    +0.000 A 
ATOM     20  C   UNL     1       2.588   7.117  19.535  0.00  0.00    +0.000 A 
ENDBRANCH   2  15
BRANCH   5  21
ATOM     21  C   UNL     1       5.835   4.015  16.103  0.00  0.00    +0.000 C 
BRANCH  21  22
ATOM     22  C   UNL     1       6.284   4.142  14.690  0.00  0.00    +0.000 A 
ATOM     23  C   UNL     1       7.294   4.837  14.052  0.00  0.00    +0.000 A 
ATOM     24  C   UNL     1       7.188   4.533  12.673  0.00  0.00    +0.000 A 
ATOM     25  C   UNL     1       6.125   3.669  12.554  0.00  0.00    +0.000 A 
ATOM     26  O   UNL     1       5.573   3.424  13.770  0.00  0.00    +0.000 OA
ENDBRANCH  21  22
ENDBRANCH   5  21
TORSDOF 5
ENDMDL
