MODEL 1
REMARK VINA RESULT:      -8.9      0.000      0.000
REMARK  Name = 
REMARK  14 active torsions:
REMARK  status: ('A' for Active; 'I' for Inactive)
REMARK    1  A    between atoms: C_1  and  C_2
REMARK    2  A    between atoms: C_2  and  C_3
REMARK    3  A    between atoms: C_5  and  C_6
REMARK    4  A    between atoms: C_6  and  C_7
REMARK    5  A    between atoms: N_9  and  C_10
REMARK    6  A    between atoms: C_10  and  C_11
REMARK    7  A    between atoms: C_11  and  C_12
REMARK    8  A    between atoms: C_12  and  N_13
REMARK    9  A    between atoms: C_14  and  C_16
REMARK   10  A    between atoms: N_19  and  C_20
REMARK   11  A    between atoms: C_20  and  C_21
REMARK   12  A    between atoms: C_23  and  C_24
REMARK   13  A    between atoms: C_29  and  C_30
REMARK   14  A    between atoms: C_32  and  C_33
REMARK                            x       y       z     vdW  Elec       q    Type
REMARK                         _______ _______ _______ _____ _____    ______ ____
ROOT
ATOM      1  C   UNL     1       7.827   5.554  18.347  0.00  0.00    +0.000 C 
ATOM      2  C   UNL     1       7.410   4.533  17.287  0.00  0.00    +0.000 C 
ATOM      3  C   UNL     1       5.925   4.661  16.944  0.00  0.00    +0.000 C 
ATOM      4  N   UNL     1       5.070   4.477  18.129  0.00  0.00    +0.000 NA
ATOM      5  C   UNL     1       5.440   5.415  19.209  0.00  0.00    +0.000 C 
ATOM      6  C   UNL     1       6.929   5.377  19.573  0.00  0.00    +0.000 C 
ENDROOT
BRANCH   1   8
ATOM      7  N   UNL     1       8.340   7.920  18.659  0.00  0.00    +0.000 N 
ATOM      8  C   UNL     1       7.780   6.986  17.815  0.00  0.00    +0.000 C 
ATOM      9  O   UNL     1       7.282   7.293  16.736  0.00  0.00    +0.000 OA
ATOM     10  H   UNL     1       8.650   7.641  19.581  0.00  0.00    +0.000 HD
BRANCH   7  11
ATOM     11  C   UNL     1       8.430   9.306  18.258  0.00  0.00    +0.000 C 
BRANCH  11  12
ATOM     12  C   UNL     1       9.468  10.099  19.043  0.00  0.00    +0.000 C 
BRANCH  12  13
ATOM     13  C   UNL     1       9.855  11.413  18.351  0.00  0.00    +0.000 C 
BRANCH  13  18
ATOM     14  C   UNL     1       8.132  14.643  19.344  0.00  0.00    +0.000 C 
ATOM     15  C   UNL     1       7.912  14.360  20.836  0.00  0.00    +0.000 C 
ATOM     16  C   UNL     1       9.048  13.518  21.424  0.00  0.00    +0.000 C 
ATOM     17  C   UNL     1       9.289  12.266  20.566  0.00  0.00    +0.000 C 
ATOM     18  N   UNL     1       9.559  12.608  19.162  0.00  0.00    +0.000 NA
ATOM     19  C   UNL     1       8.412  13.335  18.585  0.00  0.00    +0.000 C 
BRANCH  14  21
ATOM     20  C   UNL     1       6.098  14.625  17.776  0.00  0.00    +0.000 C 
ATOM     21  C   UNL     1       6.914  15.407  18.793  0.00  0.00    +0.000 C 
ENDBRANCH  14  21
BRANCH  16  22
ATOM     22  C   UNL     1       8.765  13.088  22.875  0.00  0.00    +0.000 C 
ATOM     23  C   UNL     1       7.905  11.840  22.983  0.00  0.00    +0.000 C 
ENDBRANCH  16  22
ENDBRANCH  13  18
ENDBRANCH  12  13
ENDBRANCH  11  12
ENDBRANCH   7  11
ENDBRANCH   1   8
BRANCH   4  24
ATOM     24  C   UNL     1       3.646   4.724  17.787  0.00  0.00    +0.000 C 
BRANCH  24  25
ATOM     25  C   UNL     1       2.895   5.424  18.874  0.00  0.00    +0.000 A 
ATOM     26  N   UNL     1       2.640   6.776  18.763  0.00  0.00    +0.000 NA
ATOM     27  C   UNL     1       1.986   7.088  19.867  0.00  0.00    +0.000 A 
ATOM     28  O   UNL     1       1.792   6.019  20.704  0.00  0.00    +0.000 OA
ATOM     29  C   UNL     1       2.370   4.961  20.065  0.00  0.00    +0.000 A 
ATOM     30  C   UNL     1       2.284   3.660  20.741  0.00  0.00    +0.000 C 
BRANCH  27  31
ATOM     31  C   UNL     1       1.438   8.374  20.310  0.00  0.00    +0.000 A 
ATOM     32  C   UNL     1       1.198   8.593  21.682  0.00  0.00    +0.000 A 
ATOM     33  C   UNL     1       0.667   9.800  22.144  0.00  0.00    +0.000 A 
ATOM     34  C   UNL     1       0.373  10.812  21.244  0.00  0.00    +0.000 A 
ATOM     35  C   UNL     1       0.604  10.627  19.882  0.00  0.00    +0.000 A 
ATOM     36  C   UNL     1       1.130   9.412  19.399  0.00  0.00    +0.000 A 
ATOM     37  C   UNL     1       1.345   9.270  17.915  0.00  0.00    +0.000 C 
ENDBRANCH  27  31
ENDBRANCH  24  25
ENDBRANCH   4  24
TORSDOF 10
ENDMDL
MODEL 2
REMARK VINA RESULT:      -8.8      0.947      1.089
REMARK  Name = 
REMARK  14 active torsions:
REMARK  status: ('A' for Active; 'I' for Inactive)
REMARK    1  A    between atoms: C_1  and  C_2
REMARK    2  A    between atoms: C_2  and  C_3
REMARK    3  A    between atoms: C_5  and  C_6
REMARK    4  A    between atoms: C_6  and  C_7
REMARK    5  A    between atoms: N_9  and  C_10
REMARK    6  A    between atoms: C_10  and  C_11
REMARK    7  A    between atoms: C_11  and  C_12
REMARK    8  A    between atoms: C_12  and  N_13
REMARK    9  A    between atoms: C_14  and  C_16
REMARK   10  A    between atoms: N_19  and  C_20
REMARK   11  A    between atoms: C_20  and  C_21
REMARK   12  A    between atoms: C_23  and  C_24
REMARK   13  A    between atoms: C_29  and  C_30
REMARK   14  A    between atoms: C_32  and  C_33
REMARK                            x       y       z     vdW  Elec       q    Type
REMARK                         _______ _______ _______ _____ _____    ______ ____
ROOT
ATOM      1  C   UNL     1       7.688   5.577  18.208  0.00  0.00    +0.000 C 
ATOM      2  C   UNL     1       7.280   4.525  17.175  0.00  0.00    +0.000 C 
ATOM      3  C   UNL     1       5.773   4.558  16.912  0.00  0.00    +0.000 C 
ATOM      4  N   UNL     1       4.997   4.328  18.143  0.00  0.00    +0.000 NA
ATOM      5  C   UNL     1       5.364   5.296  19.198  0.00  0.00    +0.000 C 
ATOM      6  C   UNL     1       6.870   5.353  19.481  0.00  0.00    +0.000 C 
ENDROOT
BRANCH   1   8
ATOM      7  N   UNL     1       8.266   7.945  18.347  0.00  0.00    +0.000 N 
ATOM      8  C   UNL     1       7.523   7.001  17.674  0.00  0.00    +0.000 C 
ATOM      9  O   UNL     1       6.788   7.292  16.735  0.00  0.00    +0.000 OA
ATOM     10  H   UNL     1       8.780   7.680  19.177  0.00  0.00    +0.000 HD
BRANCH   7  11
ATOM     11  C   UNL     1       8.264   9.323  17.911  0.00  0.00    +0.000 C 
BRANCH  11  12
ATOM     12  C   UNL     1       9.029  10.256  18.840  0.00  0.00    +0.000 C 
BRANCH  12  13
ATOM     13  C   UNL     1      10.046  11.131  18.095  0.00  0.00    +0.000 C 
BRANCH  13  18
ATOM     14  C   UNL     1       8.447  14.569  18.166  0.00  0.00    +0.000 C 
ATOM     15  C   UNL     1       8.712  14.938  19.633  0.00  0.00    +0.000 C 
ATOM     16  C   UNL     1      10.037  14.353  20.130  0.00  0.00    +0.000 C 
ATOM     17  C   UNL     1      10.109  12.848  19.828  0.00  0.00    +0.000 C 
ATOM     18  N   UNL     1       9.912  12.568  18.397  0.00  0.00    +0.000 NA
ATOM     19  C   UNL     1       8.590  13.052  17.959  0.00  0.00    +0.000 C 
BRANCH  14  21
ATOM     20  C   UNL     1       6.243  15.655  18.914  0.00  0.00    +0.000 C 
ATOM     21  C   UNL     1       7.061  15.103  17.757  0.00  0.00    +0.000 C 
ENDBRANCH  14  21
BRANCH  16  22
ATOM     22  C   UNL     1      10.242  14.575  21.640  0.00  0.00    +0.000 C 
ATOM     23  C   UNL     1       9.851  15.967  22.109  0.00  0.00    +0.000 C 
ENDBRANCH  16  22
ENDBRANCH  13  18
ENDBRANCH  12  13
ENDBRANCH  11  12
ENDBRANCH   7  11
ENDBRANCH   1   8
BRANCH   4  24
ATOM     24  C   UNL     1       3.544   4.484  17.877  0.00  0.00    +0.000 C 
BRANCH  24  25
ATOM     25  C   UNL     1       2.830   5.244  18.948  0.00  0.00    +0.000 A 
ATOM     26  N   UNL     1       2.596   6.594  18.784  0.00  0.00    +0.000 NA
ATOM     27  C   UNL     1       1.973   6.966  19.887  0.00  0.00    +0.000 A 
ATOM     28  O   UNL     1       1.779   5.938  20.775  0.00  0.00    +0.000 OA
ATOM     29  C   UNL     1       2.325   4.843  20.170  0.00  0.00    +0.000 A 
ATOM     30  C   UNL     1       2.232   3.574  20.905  0.00  0.00    +0.000 C 
BRANCH  27  31
ATOM     31  C   UNL     1       1.457   8.280  20.286  0.00  0.00    +0.000 A 
ATOM     32  C   UNL     1       1.126   8.518  21.636  0.00  0.00    +0.000 A 
ATOM     33  C   UNL     1       0.623   9.752  22.053  0.00  0.00    +0.000 A 
ATOM     34  C   UNL     1       0.446  10.772  21.132  0.00  0.00    +0.000 A 
ATOM     35  C   UNL     1       0.768  10.568  19.792  0.00  0.00    +0.000 A 
ATOM     36  C   UNL     1       1.269   9.326  19.352  0.00  0.00    +0.000 A 
ATOM     37  C   UNL     1       1.586   9.165  17.888  0.00  0.00    +0.000 C 
ENDBRANCH  27  31
ENDBRANCH  24  25
ENDBRANCH   4  24
TORSDOF 10
ENDMDL
MODEL 3
REMARK VINA RESULT:      -8.2      1.424      1.799
REMARK  Name = 
REMARK  14 active torsions:
REMARK  status: ('A' for Active; 'I' for Inactive)
REMARK    1  A    between atoms: C_1  and  C_2
REMARK    2  A    between atoms: C_2  and  C_3
REMARK    3  A    between atoms: C_5  and  C_6
REMARK    4  A    between atoms: C_6  and  C_7
REMARK    5  A    between atoms: N_9  and  C_10
REMARK    6  A    between atoms: C_10  and  C_11
REMARK    7  A    between atoms: C_11  and  C_12
REMARK    8  A    between atoms: C_12  and  N_13
REMARK    9  A    between atoms: C_14  and  C_16
REMARK   10  A    between atoms: N_19  and  C_20
REMARK   11  A    between atoms: C_20  and  C_21
REMARK   12  A    between atoms: C_23  and  C_24
REMARK   13  A    between atoms: C_29  and  C_30
REMARK   14  A    between atoms: C_32  and  C_33
REMARK                            x       y       z     vdW  Elec       q    Type
REMARK                         _______ _______ _______ _____ _____    ______ ____
ROOT
ATOM      1  C   UNL     1       7.759   5.741  18.330  0.00  0.00    +0.000 C 
ATOM      2  C   UNL     1       7.346   4.823  17.178  0.00  0.00    +0.000 C 
ATOM      3  C   UNL     1       5.863   4.988  16.840  0.00  0.00    +0.000 C 
ATOM      4  N   UNL     1       5.001   4.698  17.999  0.00  0.00    +0.000 NA
ATOM      5  C   UNL     1       5.367   5.533  19.162  0.00  0.00    +0.000 C 
ATOM      6  C   UNL     1       6.854   5.456  19.529  0.00  0.00    +0.000 C 
ENDROOT
BRANCH   1   8
ATOM      7  N   UNL     1       8.520   8.031  18.700  0.00  0.00    +0.000 N 
ATOM      8  C   UNL     1       7.720   7.217  17.930  0.00  0.00    +0.000 C 
ATOM      9  O   UNL     1       7.032   7.653  17.012  0.00  0.00    +0.000 OA
ATOM     10  H   UNL     1       8.993   7.649  19.509  0.00  0.00    +0.000 HD
BRANCH   7  11
ATOM     11  C   UNL     1       8.638   9.439  18.396  0.00  0.00    +0.000 C 
BRANCH  11  12
ATOM     12  C   UNL     1       9.422  10.223  19.441  0.00  0.00    +0.000 C 
BRANCH  12  13
ATOM     13  C   UNL     1       8.743  11.546  19.821  0.00  0.00    +0.000 C 
BRANCH  13  18
ATOM     14  C   UNL     1      10.530  14.682  18.657  0.00  0.00    +0.000 C 
ATOM     15  C   UNL     1      10.440  15.513  19.944  0.00  0.00    +0.000 C 
ATOM     16  C   UNL     1      10.515  14.629  21.192  0.00  0.00    +0.000 C 
ATOM     17  C   UNL     1       9.495  13.483  21.101  0.00  0.00    +0.000 C 
ATOM     18  N   UNL     1       9.676  12.686  19.878  0.00  0.00    +0.000 NA
ATOM     19  C   UNL     1       9.505  13.535  18.685  0.00  0.00    +0.000 C 
BRANCH  14  21
ATOM     20  C   UNL     1      11.646  16.247  16.953  0.00  0.00    +0.000 C 
ATOM     21  C   UNL     1      10.353  15.615  17.444  0.00  0.00    +0.000 C 
ENDBRANCH  14  21
BRANCH  16  22
ATOM     22  C   UNL     1      10.265  15.425  22.486  0.00  0.00    +0.000 C 
ATOM     23  C   UNL     1      10.855  16.825  22.462  0.00  0.00    +0.000 C 
ENDBRANCH  16  22
ENDBRANCH  13  18
ENDBRANCH  12  13
ENDBRANCH  11  12
ENDBRANCH   7  11
ENDBRANCH   1   8
BRANCH   4  24
ATOM     24  C   UNL     1       3.579   4.981  17.674  0.00  0.00    +0.000 C 
BRANCH  24  25
ATOM     25  C   UNL     1       2.827   5.593  18.811  0.00  0.00    +0.000 A 
ATOM     26  N   UNL     1       2.544   6.943  18.792  0.00  0.00    +0.000 NA
ATOM     27  C   UNL     1       1.897   7.169  19.920  0.00  0.00    +0.000 A 
ATOM     28  O   UNL     1       1.734   6.045  20.689  0.00  0.00    +0.000 OA
ATOM     29  C   UNL     1       2.327   5.042  19.975  0.00  0.00    +0.000 A 
ATOM     30  C   UNL     1       2.275   3.698  20.567  0.00  0.00    +0.000 C 
BRANCH  27  31
ATOM     31  C   UNL     1       1.328   8.412  20.453  0.00  0.00    +0.000 A 
ATOM     32  C   UNL     1       1.062   8.521  21.833  0.00  0.00    +0.000 A 
ATOM     33  C   UNL     1       0.510   9.683  22.377  0.00  0.00    +0.000 A 
ATOM     34  C   UNL     1       0.222  10.760  21.554  0.00  0.00    +0.000 A 
ATOM     35  C   UNL     1       0.478  10.684  20.186  0.00  0.00    +0.000 A 
ATOM     36  C   UNL     1       1.026   9.515  19.619  0.00  0.00    +0.000 A 
ATOM     37  C   UNL     1       1.268   9.491  18.133  0.00  0.00    +0.000 C 
ENDBRANCH  27  31
ENDBRANCH  24  25
ENDBRANCH   4  24
TORSDOF 10
ENDMDL
MODEL 4
REMARK VINA RESULT:      -8.0      5.771      9.997
REMARK  Name = 
REMARK  14 active torsions:
REMARK  status: ('A' for Active; 'I' for Inactive)
REMARK    1  A    between atoms: C_1  and  C_2
REMARK    2  A    between atoms: C_2  and  C_3
REMARK    3  A    between atoms: C_5  and  C_6
REMARK    4  A    between atoms: C_6  and  C_7
REMARK    5  A    between atoms: N_9  and  C_10
REMARK    6  A    between atoms: C_10  and  C_11
REMARK    7  A    between atoms: C_11  and  C_12
REMARK    8  A    between atoms: C_12  and  N_13
REMARK    9  A    between atoms: C_14  and  C_16
REMARK   10  A    between atoms: N_19  and  C_20
REMARK   11  A    between atoms: C_20  and  C_21
REMARK   12  A    between atoms: C_23  and  C_24
REMARK   13  A    between atoms: C_29  and  C_30
REMARK   14  A    between atoms: C_32  and  C_33
REMARK                            x       y       z     vdW  Elec       q    Type
REMARK                         _______ _______ _______ _____ _____    ______ ____
ROOT
ATOM      1  C   UNL     1      -2.397  10.760  17.063  0.00  0.00    +0.000 C 
ATOM      2  C   UNL     1      -3.209  11.491  15.992  0.00  0.00    +0.000 C 
ATOM      3  C   UNL     1      -4.530  12.018  16.558  0.00  0.00    +0.000 C 
ATOM      4  N   UNL     1      -5.359  10.934  17.112  0.00  0.00    +0.000 NA
ATOM      5  C   UNL     1      -4.622  10.164  18.136  0.00  0.00    +0.000 C 
ATOM      6  C   UNL     1      -3.262   9.645  17.654  0.00  0.00    +0.000 C 
ENDROOT
BRANCH   1   8
ATOM      7  N   UNL     1      -1.097  12.736  17.669  0.00  0.00    +0.000 N 
ATOM      8  C   UNL     1      -1.885  11.711  18.145  0.00  0.00    +0.000 C 
ATOM      9  O   UNL     1      -2.137  11.579  19.339  0.00  0.00    +0.000 OA
ATOM     10  H   UNL     1      -0.832  12.752  16.693  0.00  0.00    +0.000 HD
BRANCH   7  11
ATOM     11  C   UNL     1      -0.598  13.753  18.567  0.00  0.00    +0.000 C 
BRANCH  11  12
ATOM     12  C   UNL     1       0.893  14.021  18.413  0.00  0.00    +0.000 C 
BRANCH  12  13
ATOM     13  C   UNL     1       1.756  13.060  19.243  0.00  0.00    +0.000 C 
BRANCH  13  18
ATOM     14  C   UNL     1       1.348   9.352  18.555  0.00  0.00    +0.000 C 
ATOM     15  C   UNL     1       1.177   8.848  19.995  0.00  0.00    +0.000 C 
ATOM     16  C   UNL     1       0.443   9.871  20.867  0.00  0.00    +0.000 C 
ATOM     17  C   UNL     1       1.106  11.253  20.749  0.00  0.00    +0.000 C 
ATOM     18  N   UNL     1       1.180  11.707  19.352  0.00  0.00    +0.000 NA
ATOM     19  C   UNL     1       1.973  10.758  18.549  0.00  0.00    +0.000 C 
BRANCH  14  21
ATOM     20  C   UNL     1       2.564   7.090  18.556  0.00  0.00    +0.000 C 
ATOM     21  C   UNL     1       2.174   8.324  17.759  0.00  0.00    +0.000 C 
ENDBRANCH  14  21
BRANCH  16  22
ATOM     22  C   UNL     1       0.405   9.454  22.348  0.00  0.00    +0.000 C 
ATOM     23  C   UNL     1      -0.717  10.112  23.136  0.00  0.00    +0.000 C 
ENDBRANCH  16  22
ENDBRANCH  13  18
ENDBRANCH  12  13
ENDBRANCH  11  12
ENDBRANCH   7  11
ENDBRANCH   1   8
BRANCH   4  24
ATOM     24  C   UNL     1      -6.576  11.489  17.757  0.00  0.00    +0.000 C 
BRANCH  24  25
ATOM     25  C   UNL     1      -6.272  12.347  18.943  0.00  0.00    +0.000 A 
ATOM     26  N   UNL     1      -5.799  11.765  20.101  0.00  0.00    +0.000 NA
ATOM     27  C   UNL     1      -5.646  12.768  20.946  0.00  0.00    +0.000 A 
ATOM     28  O   UNL     1      -5.990  13.985  20.413  0.00  0.00    +0.000 OA
ATOM     29  C   UNL     1      -6.386  13.710  19.135  0.00  0.00    +0.000 A 
ATOM     30  C   UNL     1      -6.792  14.859  18.315  0.00  0.00    +0.000 C 
BRANCH  27  31
ATOM     31  C   UNL     1      -5.160  12.775  22.330  0.00  0.00    +0.000 A 
ATOM     32  C   UNL     1      -3.775  12.858  22.581  0.00  0.00    +0.000 A 
ATOM     33  C   UNL     1      -3.271  12.856  23.884  0.00  0.00    +0.000 A 
ATOM     34  C   UNL     1      -4.142  12.778  24.959  0.00  0.00    +0.000 A 
ATOM     35  C   UNL     1      -5.517  12.700  24.742  0.00  0.00    +0.000 A 
ATOM     36  C   UNL     1      -6.041  12.692  23.433  0.00  0.00    +0.000 A 
ATOM     37  C   UNL     1      -7.534  12.593  23.266  0.00  0.00    +0.000 C 
ENDBRANCH  27  31
ENDBRANCH  24  25
ENDBRANCH   4  24
TORSDOF 10
ENDMDL
MODEL 5
REMARK VINA RESULT:      -7.9      4.578      8.210
REMARK  Name = 
REMARK  14 active torsions:
REMARK  status: ('A' for Active; 'I' for Inactive)
REMARK    1  A    between atoms: C_1  and  C_2
REMARK    2  A    between atoms: C_2  and  C_3
REMARK    3  A    between atoms: C_5  and  C_6
REMARK    4  A    between atoms: C_6  and  C_7
REMARK    5  A    between atoms: N_9  and  C_10
REMARK    6  A    between atoms: C_10  and  C_11
REMARK    7  A    between atoms: C_11  and  C_12
REMARK    8  A    between atoms: C_12  and  N_13
REMARK    9  A    between atoms: C_14  and  C_16
REMARK   10  A    between atoms: N_19  and  C_20
REMARK   11  A    between atoms: C_20  and  C_21
REMARK   12  A    between atoms: C_23  and  C_24
REMARK   13  A    between atoms: C_29  and  C_30
REMARK   14  A    between atoms: C_32  and  C_33
REMARK                            x       y       z     vdW  Elec       q    Type
REMARK                         _______ _______ _______ _____ _____    ______ ____
ROOT
ATOM      1  C   UNL     1       2.727   7.203  19.723  0.00  0.00    +0.000 C 
ATOM      2  C   UNL     1       1.972   8.185  20.621  0.00  0.00    +0.000 C 
ATOM      3  C   UNL     1       0.690   8.681  19.949  0.00  0.00    +0.000 C 
ATOM      4  N   UNL     1       0.966   9.343  18.662  0.00  0.00    +0.000 NA
ATOM      5  C   UNL     1       1.723   8.456  17.754  0.00  0.00    +0.000 C 
ATOM      6  C   UNL     1       2.999   7.881  18.379  0.00  0.00    +0.000 C 
ENDROOT
BRANCH   1   8
ATOM      7  N   UNL     1       2.191   5.264  18.340  0.00  0.00    +0.000 N 
ATOM      8  C   UNL     1       1.970   5.886  19.548  0.00  0.00    +0.000 C 
ATOM      9  O   UNL     1       1.219   5.417  20.399  0.00  0.00    +0.000 OA
ATOM     10  H   UNL     1       2.737   5.732  17.628  0.00  0.00    +0.000 HD
BRANCH   7  11
ATOM     11  C   UNL     1       1.596   3.977  18.060  0.00  0.00    +0.000 C 
BRANCH  11  12
ATOM     12  C   UNL     1       2.473   3.076  17.199  0.00  0.00    +0.000 C 
BRANCH  12  13
ATOM     13  C   UNL     1       3.949   3.111  17.619  0.00  0.00    +0.000 C 
BRANCH  13  18
ATOM     14  C   UNL     1       6.453   5.946  17.344  0.00  0.00    +0.000 C 
ATOM     15  C   UNL     1       7.109   5.571  16.007  0.00  0.00    +0.000 C 
ATOM     16  C   UNL     1       6.106   4.920  15.050  0.00  0.00    +0.000 C 
ATOM     17  C   UNL     1       5.370   3.764  15.746  0.00  0.00    +0.000 C 
ATOM     18  N   UNL     1       4.709   4.203  16.985  0.00  0.00    +0.000 NA
ATOM     19  C   UNL     1       5.705   4.738  17.932  0.00  0.00    +0.000 C 
BRANCH  14  21
ATOM     20  C   UNL     1       7.855   5.597  19.467  0.00  0.00    +0.000 C 
ATOM     21  C   UNL     1       7.531   6.505  18.292  0.00  0.00    +0.000 C 
ENDBRANCH  14  21
BRANCH  16  22
ATOM     22  C   UNL     1       6.779   4.392  13.770  0.00  0.00    +0.000 C 
ATOM     23  C   UNL     1       5.842   3.598  12.874  0.00  0.00    +0.000 C 
ENDBRANCH  16  22
ENDBRANCH  13  18
ENDBRANCH  12  13
ENDBRANCH  11  12
ENDBRANCH   7  11
ENDBRANCH   1   8
BRANCH   4  24
ATOM     24  C   UNL     1      -0.303   9.705  17.982  0.00  0.00    +0.000 C 
BRANCH  24  25
ATOM     25  C   UNL     1      -0.846  11.028  18.418  0.00  0.00    +0.000 A 
ATOM     26  N   UNL     1       0.020  12.005  18.864  0.00  0.00    +0.000 NA
ATOM     27  C   UNL     1      -0.755  13.025  19.180  0.00  0.00    +0.000 A 
ATOM     28  O   UNL     1      -2.088  12.781  18.969  0.00  0.00    +0.000 OA
ATOM     29  C   UNL     1      -2.140  11.508  18.480  0.00  0.00    +0.000 A 
ATOM     30  C   UNL     1      -3.472  10.991  18.137  0.00  0.00    +0.000 C 
BRANCH  27  31
ATOM     31  C   UNL     1      -0.408  14.354  19.698  0.00  0.00    +0.000 A 
ATOM     32  C   UNL     1      -0.106  15.395  18.797  0.00  0.00    +0.000 A 
ATOM     33  C   UNL     1       0.240  16.670  19.250  0.00  0.00    +0.000 A 
ATOM     34  C   UNL     1       0.283  16.930  20.610  0.00  0.00    +0.000 A 
ATOM     35  C   UNL     1      -0.016  15.923  21.525  0.00  0.00    +0.000 A 
ATOM     36  C   UNL     1      -0.358  14.627  21.085  0.00  0.00    +0.000 A 
ATOM     37  C   UNL     1      -0.658  13.579  22.124  0.00  0.00    +0.000 C 
ENDBRANCH  27  31
ENDBRANCH  24  25
ENDBRANCH   4  24
TORSDOF 10
ENDMDL
MODEL 6
REMARK VINA RESULT:      -7.8      3.823      6.747
REMARK  Name = 
REMARK  14 active torsions:
REMARK  status: ('A' for Active; 'I' for Inactive)
REMARK    1  A    between atoms: C_1  and  C_2
REMARK    2  A    between atoms: C_2  and  C_3
REMARK    3  A    between atoms: C_5  and  C_6
REMARK    4  A    between atoms: C_6  and  C_7
REMARK    5  A    between atoms: N_9  and  C_10
REMARK    6  A    between atoms: C_10  and  C_11
REMARK    7  A    between atoms: C_11  and  C_12
REMARK    8  A    between atoms: C_12  and  N_13
REMARK    9  A    between atoms: C_14  and  C_16
REMARK   10  A    between atoms: N_19  and  C_20
REMARK   11  A    between atoms: C_20  and  C_21
REMARK   12  A    between atoms: C_23  and  C_24
REMARK   13  A    between atoms: C_29  and  C_30
REMARK   14  A    between atoms: C_32  and  C_33
REMARK                            x       y       z     vdW  Elec       q    Type
REMARK                         _______ _______ _______ _____ _____    ______ ____
ROOT
ATOM      1  C   UNL     1       1.090   2.702  18.585  0.00  0.00    +0.000 C 
ATOM      2  C   UNL     1       1.032   3.880  17.609  0.00  0.00    +0.000 C 
ATOM      3  C   UNL     1       1.852   5.066  18.120  0.00  0.00    +0.000 C 
ATOM      4  N   UNL     1       1.385   5.529  19.438  0.00  0.00    +0.000 NA
ATOM      5  C   UNL     1       1.387   4.429  20.425  0.00  0.00    +0.000 C 
ATOM      6  C   UNL     1       0.622   3.185  19.959  0.00  0.00    +0.000 C 
ENDROOT
BRANCH   1   8
ATOM      7  N   UNL     1       3.026   2.037  19.914  0.00  0.00    +0.000 N 
ATOM      8  C   UNL     1       2.484   2.078  18.649  0.00  0.00    +0.000 C 
ATOM      9  O   UNL     1       3.084   1.655  17.665  0.00  0.00    +0.000 OA
ATOM     10  H   UNL     1       2.542   2.485  20.682  0.00  0.00    +0.000 HD
BRANCH   7  11
ATOM     11  C   UNL     1       4.309   1.411  20.140  0.00  0.00    +0.000 C 
BRANCH  11  12
ATOM     12  C   UNL     1       5.426   2.405  20.434  0.00  0.00    +0.000 C 
BRANCH  12  13
ATOM     13  C   UNL     1       5.114   3.816  19.917  0.00  0.00    +0.000 C 
BRANCH  13  18
ATOM     14  C   UNL     1       6.292   4.685  16.418  0.00  0.00    +0.000 C 
ATOM     15  C   UNL     1       6.994   6.018  16.715  0.00  0.00    +0.000 C 
ATOM     16  C   UNL     1       7.641   6.018  18.102  0.00  0.00    +0.000 C 
ATOM     17  C   UNL     1       6.626   5.580  19.170  0.00  0.00    +0.000 C 
ATOM     18  N   UNL     1       6.039   4.267  18.861  0.00  0.00    +0.000 NA
ATOM     19  C   UNL     1       5.337   4.314  17.565  0.00  0.00    +0.000 C 
BRANCH  14  21
ATOM     20  C   UNL     1       6.328   4.105  13.916  0.00  0.00    +0.000 C 
ATOM     21  C   UNL     1       5.583   4.785  15.054  0.00  0.00    +0.000 C 
ENDBRANCH  14  21
BRANCH  16  22
ATOM     22  C   UNL     1       8.208   7.398  18.482  0.00  0.00    +0.000 C 
ATOM     23  C   UNL     1       7.686   8.530  17.612  0.00  0.00    +0.000 C 
ENDBRANCH  16  22
ENDBRANCH  13  18
ENDBRANCH  12  13
ENDBRANCH  11  12
ENDBRANCH   7  11
ENDBRANCH   1   8
BRANCH   4  24
ATOM     24  C   UNL     1       2.274   6.600  19.958  0.00  0.00    +0.000 C 
BRANCH  24  25
ATOM     25  C   UNL     1       2.083   7.909  19.262  0.00  0.00    +0.000 A 
ATOM     26  N   UNL     1       1.197   8.832  19.779  0.00  0.00    +0.000 NA
ATOM     27  C   UNL     1       1.247   9.854  18.945  0.00  0.00    +0.000 A 
ATOM     28  O   UNL     1       2.117   9.662  17.902  0.00  0.00    +0.000 OA
ATOM     29  C   UNL     1       2.650   8.422  18.112  0.00  0.00    +0.000 A 
ATOM     30  C   UNL     1       3.651   7.967  17.138  0.00  0.00    +0.000 C 
BRANCH  27  31
ATOM     31  C   UNL     1       0.537  11.137  18.976  0.00  0.00    +0.000 A 
ATOM     32  C   UNL     1      -0.814  11.176  19.375  0.00  0.00    +0.000 A 
ATOM     33  C   UNL     1      -1.528  12.377  19.408  0.00  0.00    +0.000 A 
ATOM     34  C   UNL     1      -0.902  13.560  19.050  0.00  0.00    +0.000 A 
ATOM     35  C   UNL     1       0.434  13.554  18.657  0.00  0.00    +0.000 A 
ATOM     36  C   UNL     1       1.166  12.350  18.609  0.00  0.00    +0.000 A 
ATOM     37  C   UNL     1       2.604  12.408  18.163  0.00  0.00    +0.000 C 
ENDBRANCH  27  31
ENDBRANCH  24  25
ENDBRANCH   4  24
TORSDOF 10
ENDMDL
MODEL 7
REMARK VINA RESULT:      -7.7      3.235      7.068
REMARK  Name = 
REMARK  14 active torsions:
REMARK  status: ('A' for Active; 'I' for Inactive)
REMARK    1  A    between atoms: C_1  and  C_2
REMARK    2  A    between atoms: C_2  and  C_3
REMARK    3  A    between atoms: C_5  and  C_6
REMARK    4  A    between atoms: C_6  and  C_7
REMARK    5  A    between atoms: N_9  and  C_10
REMARK    6  A    between atoms: C_10  and  C_11
REMARK    7  A    between atoms: C_11  and  C_12
REMARK    8  A    between atoms: C_12  and  N_13
REMARK    9  A    between atoms: C_14  and  C_16
REMARK   10  A    between atoms: N_19  and  C_20
REMARK   11  A    between atoms: C_20  and  C_21
REMARK   12  A    between atoms: C_23  and  C_24
REMARK   13  A    between atoms: C_29  and  C_30
REMARK   14  A    between atoms: C_32  and  C_33
REMARK                            x       y       z     vdW  Elec       q    Type
REMARK                         _______ _______ _______ _____ _____    ______ ____
ROOT
ATOM      1  C   UNL     1       0.368  14.238  20.571  0.00  0.00    +0.000 C 
ATOM      2  C   UNL     1       1.596  13.356  20.802  0.00  0.00    +0.000 C 
ATOM      3  C   UNL     1       1.780  12.349  19.665  0.00  0.00    +0.000 C 
ATOM      4  N   UNL     1       0.603  11.477  19.509  0.00  0.00    +0.000 NA
ATOM      5  C   UNL     1      -0.629  12.268  19.312  0.00  0.00    +0.000 C 
ATOM      6  C   UNL     1      -0.854  13.335  20.390  0.00  0.00    +0.000 C 
ENDROOT
BRANCH   1   8
ATOM      7  N   UNL     1       1.770  15.826  19.358  0.00  0.00    +0.000 N 
ATOM      8  C   UNL     1       0.553  15.181  19.382  0.00  0.00    +0.000 C 
ATOM      9  O   UNL     1      -0.303  15.366  18.522  0.00  0.00    +0.000 OA
ATOM     10  H   UNL     1       2.407  15.723  20.137  0.00  0.00    +0.000 HD
BRANCH   7  11
ATOM     11  C   UNL     1       2.115  16.696  18.256  0.00  0.00    +0.000 C 
BRANCH  11  12
ATOM     12  C   UNL     1       3.141  16.095  17.304  0.00  0.00    +0.000 C 
BRANCH  12  13
ATOM     13  C   UNL     1       3.880  14.895  17.912  0.00  0.00    +0.000 C 
BRANCH  13  18
ATOM     14  C   UNL     1       6.205  15.420  20.862  0.00  0.00    +0.000 C 
ATOM     15  C   UNL     1       7.490  14.814  20.279  0.00  0.00    +0.000 C 
ATOM     16  C   UNL     1       7.590  15.052  18.769  0.00  0.00    +0.000 C 
ATOM     17  C   UNL     1       6.298  14.606  18.067  0.00  0.00    +0.000 C 
ATOM     18  N   UNL     1       5.113  15.271  18.628  0.00  0.00    +0.000 NA
ATOM     19  C   UNL     1       4.978  14.952  20.061  0.00  0.00    +0.000 C 
BRANCH  14  21
ATOM     20  C   UNL     1       5.500  13.703  22.637  0.00  0.00    +0.000 C 
ATOM     21  C   UNL     1       6.118  15.064  22.358  0.00  0.00    +0.000 C 
ENDBRANCH  14  21
BRANCH  16  22
ATOM     22  C   UNL     1       8.787  14.315  18.141  0.00  0.00    +0.000 C 
ATOM     23  C   UNL     1       8.446  12.921  17.638  0.00  0.00    +0.000 C 
ENDBRANCH  16  22
ENDBRANCH  13  18
ENDBRANCH  12  13
ENDBRANCH  11  12
ENDBRANCH   7  11
ENDBRANCH   1   8
BRANCH   4  24
ATOM     24  C   UNL     1       0.764  10.593  18.326  0.00  0.00    +0.000 C 
BRANCH  24  25
ATOM     25  C   UNL     1       1.481   9.319  18.638  0.00  0.00    +0.000 A 
ATOM     26  N   UNL     1       2.214   8.692  17.651  0.00  0.00    +0.000 NA
ATOM     27  C   UNL     1       2.702   7.610  18.229  0.00  0.00    +0.000 A 
ATOM     28  O   UNL     1       2.335   7.483  19.544  0.00  0.00    +0.000 OA
ATOM     29  C   UNL     1       1.559   8.577  19.800  0.00  0.00    +0.000 A 
ATOM     30  C   UNL     1       1.042   8.708  21.169  0.00  0.00    +0.000 C 
BRANCH  27  31
ATOM     31  C   UNL     1       3.570   6.558  17.688  0.00  0.00    +0.000 A 
ATOM     32  C   UNL     1       4.862   6.888  17.230  0.00  0.00    +0.000 A 
ATOM     33  C   UNL     1       5.714   5.918  16.699  0.00  0.00    +0.000 A 
ATOM     34  C   UNL     1       5.295   4.599  16.622  0.00  0.00    +0.000 A 
ATOM     35  C   UNL     1       4.026   4.241  17.072  0.00  0.00    +0.000 A 
ATOM     36  C   UNL     1       3.149   5.210  17.603  0.00  0.00    +0.000 A 
ATOM     37  C   UNL     1       1.786   4.762  18.060  0.00  0.00    +0.000 C 
ENDBRANCH  27  31
ENDBRANCH  24  25
ENDBRANCH   4  24
TORSDOF 10
ENDMDL
MODEL 8
REMARK VINA RESULT:      -7.7      1.821      3.153
REMARK  Name = 
REMARK  14 active torsions:
REMARK  status: ('A' for Active; 'I' for Inactive)
REMARK    1  A    between atoms: C_1  and  C_2
REMARK    2  A    between atoms: C_2  and  C_3
REMARK    3  A    between atoms: C_5  and  C_6
REMARK    4  A    between atoms: C_6  and  C_7
REMARK    5  A    between atoms: N_9  and  C_10
REMARK    6  A    between atoms: C_10  and  C_11
REMARK    7  A    between atoms: C_11  and  C_12
REMARK    8  A    between atoms: C_12  and  N_13
REMARK    9  A    between atoms: C_14  and  C_16
REMARK   10  A    between atoms: N_19  and  C_20
REMARK   11  A    between atoms: C_20  and  C_21
REMARK   12  A    between atoms: C_23  and  C_24
REMARK   13  A    between atoms: C_29  and  C_30
REMARK   14  A    between atoms: C_32  and  C_33
REMARK                            x       y       z     vdW  Elec       q    Type
REMARK                         _______ _______ _______ _____ _____    ______ ____
ROOT
ATOM      1  C   UNL     1       8.019   5.585  18.545  0.00  0.00    +0.000 C 
ATOM      2  C   UNL     1       7.674   4.470  17.556  0.00  0.00    +0.000 C 
ATOM      3  C   UNL     1       6.198   4.518  17.156  0.00  0.00    +0.000 C 
ATOM      4  N   UNL     1       5.310   4.395  18.324  0.00  0.00    +0.000 NA
ATOM      5  C   UNL     1       5.610   5.427  19.338  0.00  0.00    +0.000 C 
ATOM      6  C   UNL     1       7.085   5.471  19.752  0.00  0.00    +0.000 C 
ENDROOT
BRANCH   1   8
ATOM      7  N   UNL     1       8.397   7.992  18.704  0.00  0.00    +0.000 N 
ATOM      8  C   UNL     1       7.943   6.969  17.900  0.00  0.00    +0.000 C 
ATOM      9  O   UNL     1       7.507   7.168  16.770  0.00  0.00    +0.000 OA
ATOM     10  H   UNL     1       8.654   7.799  19.663  0.00  0.00    +0.000 HD
BRANCH   7  11
ATOM     11  C   UNL     1       8.450   9.346  18.203  0.00  0.00    +0.000 C 
BRANCH  11  12
ATOM     12  C   UNL     1       9.217  10.300  19.110  0.00  0.00    +0.000 C 
BRANCH  12  13
ATOM     13  C   UNL     1      10.141  11.244  18.329  0.00  0.00    +0.000 C 
BRANCH  13  18
ATOM     14  C   UNL     1       9.898  14.450  20.341  0.00  0.00    +0.000 C 
ATOM     15  C   UNL     1      10.567  15.417  19.353  0.00  0.00    +0.000 C 
ATOM     16  C   UNL     1      10.275  15.029  17.901  0.00  0.00    +0.000 C 
ATOM     17  C   UNL     1      10.602  13.546  17.663  0.00  0.00    +0.000 C 
ATOM     18  N   UNL     1       9.880  12.670  18.598  0.00  0.00    +0.000 NA
ATOM     19  C   UNL     1      10.248  12.994  19.989  0.00  0.00    +0.000 C 
BRANCH  14  21
ATOM     20  C   UNL     1       9.757  16.176  22.239  0.00  0.00    +0.000 C 
ATOM     21  C   UNL     1      10.308  14.836  21.775  0.00  0.00    +0.000 C 
ENDBRANCH  14  21
BRANCH  16  22
ATOM     22  C   UNL     1      11.067  15.887  16.898  0.00  0.00    +0.000 C 
ATOM     23  C   UNL     1      11.087  17.367  17.246  0.00  0.00    +0.000 C 
ENDBRANCH  16  22
ENDBRANCH  13  18
ENDBRANCH  12  13
ENDBRANCH  11  12
ENDBRANCH   7  11
ENDBRANCH   1   8
BRANCH   4  24
ATOM     24  C   UNL     1       3.891   4.563  17.918  0.00  0.00    +0.000 C 
BRANCH  24  25
ATOM     25  C   UNL     1       3.479   5.996  17.804  0.00  0.00    +0.000 A 
ATOM     26  N   UNL     1       2.590   6.523  18.718  0.00  0.00    +0.000 NA
ATOM     27  C   UNL     1       2.424   7.777  18.344  0.00  0.00    +0.000 A 
ATOM     28  O   UNL     1       3.152   8.114  17.231  0.00  0.00    +0.000 OA
ATOM     29  C   UNL     1       3.825   6.975  16.894  0.00  0.00    +0.000 A 
ATOM     30  C   UNL     1       4.718   7.062  15.730  0.00  0.00    +0.000 C 
BRANCH  27  31
ATOM     31  C   UNL     1       1.606   8.842  18.936  0.00  0.00    +0.000 A 
ATOM     32  C   UNL     1       1.277   9.977  18.167  0.00  0.00    +0.000 A 
ATOM     33  C   UNL     1       0.509  11.016  18.697  0.00  0.00    +0.000 A 
ATOM     34  C   UNL     1       0.052  10.938  20.003  0.00  0.00    +0.000 A 
ATOM     35  C   UNL     1       0.357   9.827  20.786  0.00  0.00    +0.000 A 
ATOM     36  C   UNL     1       1.138   8.773  20.269  0.00  0.00    +0.000 A 
ATOM     37  C   UNL     1       1.443   7.605  21.170  0.00  0.00    +0.000 C 
ENDBRANCH  27  31
ENDBRANCH  24  25
ENDBRANCH   4  24
TORSDOF 10
ENDMDL
MODEL 9
REMARK VINA RESULT:      -7.7      4.457      8.735
REMARK  Name = 
REMARK  14 active torsions:
REMARK  status: ('A' for Active; 'I' for Inactive)
REMARK    1  A    between atoms: C_1  and  C_2
REMARK    2  A    between atoms: C_2  and  C_3
REMARK    3  A    between atoms: C_5  and  C_6
REMARK    4  A    between atoms: C_6  and  C_7
REMARK    5  A    between atoms: N_9  and  C_10
REMARK    6  A    between atoms: C_10  and  C_11
REMARK    7  A    between atoms: C_11  and  C_12
REMARK    8  A    between atoms: C_12  and  N_13
REMARK    9  A    between atoms: C_14  and  C_16
REMARK   10  A    between atoms: N_19  and  C_20
REMARK   11  A    between atoms: C_20  and  C_21
REMARK   12  A    between atoms: C_23  and  C_24
REMARK   13  A    between atoms: C_29  and  C_30
REMARK   14  A    between atoms: C_32  and  C_33
REMARK                            x       y       z     vdW  Elec       q    Type
REMARK                         _______ _______ _______ _____ _____    ______ ____
ROOT
ATOM      1  C   UNL     1       1.017   8.975  21.788  0.00  0.00    +0.000 C 
ATOM      2  C   UNL     1      -0.508   9.075  21.849  0.00  0.00    +0.000 C 
ATOM      3  C   UNL     1      -1.073   9.735  20.589  0.00  0.00    +0.000 C 
ATOM      4  N   UNL     1      -0.525  11.087  20.385  0.00  0.00    +0.000 NA
ATOM      5  C   UNL     1       0.952  11.067  20.347  0.00  0.00    +0.000 C 
ATOM      6  C   UNL     1       1.589  10.375  21.558  0.00  0.00    +0.000 C 
ENDROOT
BRANCH   1   8
ATOM      7  N   UNL     1       1.543   6.681  21.139  0.00  0.00    +0.000 N 
ATOM      8  C   UNL     1       1.486   7.990  20.716  0.00  0.00    +0.000 C 
ATOM      9  O   UNL     1       1.797   8.325  19.577  0.00  0.00    +0.000 OA
ATOM     10  H   UNL     1       1.374   6.461  22.112  0.00  0.00    +0.000 HD
BRANCH   7  11
ATOM     11  C   UNL     1       1.902   5.629  20.215  0.00  0.00    +0.000 C 
BRANCH  11  12
ATOM     12  C   UNL     1       3.316   5.761  19.665  0.00  0.00    +0.000 C 
BRANCH  12  13
ATOM     13  C   UNL     1       3.967   4.402  19.373  0.00  0.00    +0.000 C 
BRANCH  13  18
ATOM     14  C   UNL     1       5.974   4.626  16.162  0.00  0.00    +0.000 C 
ATOM     15  C   UNL     1       6.950   5.744  16.555  0.00  0.00    +0.000 C 
ATOM     16  C   UNL     1       7.300   5.689  18.045  0.00  0.00    +0.000 C 
ATOM     17  C   UNL     1       6.022   5.630  18.896  0.00  0.00    +0.000 C 
ATOM     18  N   UNL     1       5.162   4.500  18.514  0.00  0.00    +0.000 NA
ATOM     19  C   UNL     1       4.756   4.621  17.102  0.00  0.00    +0.000 C 
BRANCH  14  21
ATOM     20  C   UNL     1       6.239   3.782  13.751  0.00  0.00    +0.000 C 
ATOM     21  C   UNL     1       5.588   4.794  14.681  0.00  0.00    +0.000 C 
ENDBRANCH  14  21
BRANCH  16  22
ATOM     22  C   UNL     1       8.147   6.895  18.490  0.00  0.00    +0.000 C 
ATOM     23  C   UNL     1       7.877   8.157  17.686  0.00  0.00    +0.000 C 
ENDBRANCH  16  22
ENDBRANCH  13  18
ENDBRANCH  12  13
ENDBRANCH  11  12
ENDBRANCH   7  11
ENDBRANCH   1   8
BRANCH   4  24
ATOM     24  C   UNL     1      -1.000  11.652  19.096  0.00  0.00    +0.000 C 
BRANCH  24  25
ATOM     25  C   UNL     1      -2.481  11.844  19.050  0.00  0.00    +0.000 A 
ATOM     26  N   UNL     1      -3.132  12.385  20.140  0.00  0.00    +0.000 NA
ATOM     27  C   UNL     1      -4.406  12.409  19.796  0.00  0.00    +0.000 A 
ATOM     28  O   UNL     1      -4.639  11.915  18.538  0.00  0.00    +0.000 OA
ATOM     29  C   UNL     1      -3.408  11.559  18.066  0.00  0.00    +0.000 A 
ATOM     30  C   UNL     1      -3.362  11.013  16.703  0.00  0.00    +0.000 C 
BRANCH  27  31
ATOM     31  C   UNL     1      -5.578  12.889  20.536  0.00  0.00    +0.000 A 
ATOM     32  C   UNL     1      -6.622  11.993  20.845  0.00  0.00    +0.000 A 
ATOM     33  C   UNL     1      -7.758  12.413  21.539  0.00  0.00    +0.000 A 
ATOM     34  C   UNL     1      -7.870  13.734  21.943  0.00  0.00    +0.000 A 
ATOM     35  C   UNL     1      -6.852  14.642  21.658  0.00  0.00    +0.000 A 
ATOM     36  C   UNL     1      -5.702  14.236  20.950  0.00  0.00    +0.000 A 
ATOM     37  C   UNL     1      -4.644  15.268  20.662  0.00  0.00    +0.000 C 
ENDBRANCH  27  31
ENDBRANCH  24  25
ENDBRANCH   4  24
TORSDOF 10
ENDMDL
