MODEL 1
REMARK VINA RESULT:      -7.6      0.000      0.000
REMARK  Name = 
REMARK  4 active torsions:
REMARK  status: ('A' for Active; 'I' for Inactive)
REMARK    1  A    between atoms: C_1  and  C_2
REMARK    2  A    between atoms: C_5  and  N_6
REMARK    3  A    between atoms: C_7  and  C_9
REMARK    4  A    between atoms: C_11  and  O_12
REMARK                            x       y       z     vdW  Elec       q    Type
REMARK                         _______ _______ _______ _____ _____    ______ ____
ROOT
ATOM      1  C   UNL     1       3.315   6.577  17.885  0.00  0.00    +0.000 A 
ATOM      2  C   UNL     1       4.526   6.970  17.309  0.00  0.00    +0.000 A 
ATOM      3  C   UNL     1       5.322   5.983  16.778  0.00  0.00    +0.000 A 
ATOM      4  N   UNL     1       5.003   4.684  16.767  0.00  0.00    +0.000 NA
ATOM      5  C   UNL     1       3.831   4.304  17.296  0.00  0.00    +0.000 A 
ATOM      6  C   UNL     1       3.525   2.949  17.281  0.00  0.00    +0.000 A 
ATOM      7  C   UNL     1       2.338   2.449  17.818  0.00  0.00    +0.000 A 
ATOM      8  C   UNL     1       1.421   3.324  18.375  0.00  0.00    +0.000 A 
ATOM      9  C   UNL     1       1.707   4.689  18.405  0.00  0.00    +0.000 A 
ATOM     10  C   UNL     1       2.918   5.210  17.874  0.00  0.00    +0.000 A 
ENDROOT
BRANCH   1  12
ATOM     11  N   UNL     1       1.888   8.539  17.643  0.00  0.00    +0.000 N 
ATOM     12  C   UNL     1       2.452   7.616  18.516  0.00  0.00    +0.000 C 
ATOM     13  O   UNL     1       2.272   7.584  19.728  0.00  0.00    +0.000 OA
ATOM     14  H   UNL     1       1.945   8.371  16.649  0.00  0.00    +0.000 HD
BRANCH  11  19
ATOM     15  C   UNL     1      -0.736  13.363  19.272  0.00  0.00    +0.000 C 
ATOM     16  C   UNL     1      -0.064  12.094  18.844  0.00  0.00    +0.000 A 
ATOM     17  C   UNL     1      -0.815  10.957  18.538  0.00  0.00    +0.000 A 
ATOM     18  C   UNL     1      -0.187   9.779  18.122  0.00  0.00    +0.000 A 
ATOM     19  C   UNL     1       1.204   9.716  18.020  0.00  0.00    +0.000 A 
ATOM     20  C   UNL     1       1.960  10.842  18.355  0.00  0.00    +0.000 A 
ATOM     21  C   UNL     1       1.332  12.029  18.747  0.00  0.00    +0.000 A 
ENDBRANCH  11  19
ENDBRANCH   1  12
BRANCH   3  22
ATOM     22  O   UNL     1       6.535   6.272  16.228  0.00  0.00    +0.000 OA
ATOM     23  H   UNL     1       7.096   6.686  16.898  0.00  0.00    +0.000 HD
ENDBRANCH   3  22
TORSDOF 3
ENDMDL
MODEL 2
REMARK VINA RESULT:      -7.6      0.080      1.053
REMARK  Name = 
REMARK  4 active torsions:
REMARK  status: ('A' for Active; 'I' for Inactive)
REMARK    1  A    between atoms: C_1  and  C_2
REMARK    2  A    between atoms: C_5  and  N_6
REMARK    3  A    between atoms: C_7  and  C_9
REMARK    4  A    between atoms: C_11  and  O_12
REMARK                            x       y       z     vdW  Elec       q    Type
REMARK                         _______ _______ _______ _____ _____    ______ ____
ROOT
ATOM      1  C   UNL     1       3.296   6.553  17.876  0.00  0.00    +0.000 A 
ATOM      2  C   UNL     1       4.489   6.934  17.257  0.00  0.00    +0.000 A 
ATOM      3  C   UNL     1       5.260   5.938  16.705  0.00  0.00    +0.000 A 
ATOM      4  N   UNL     1       4.931   4.641  16.713  0.00  0.00    +0.000 NA
ATOM      5  C   UNL     1       3.775   4.273  17.283  0.00  0.00    +0.000 A 
ATOM      6  C   UNL     1       3.458   2.920  17.287  0.00  0.00    +0.000 A 
ATOM      7  C   UNL     1       2.286   2.433  17.866  0.00  0.00    +0.000 A 
ATOM      8  C   UNL     1       1.395   3.319  18.448  0.00  0.00    +0.000 A 
ATOM      9  C   UNL     1       1.692   4.681  18.461  0.00  0.00    +0.000 A 
ATOM     10  C   UNL     1       2.888   5.190  17.886  0.00  0.00    +0.000 A 
ENDROOT
BRANCH   1  12
ATOM     11  N   UNL     1       1.926   8.560  17.677  0.00  0.00    +0.000 N 
ATOM     12  C   UNL     1       2.462   7.603  18.529  0.00  0.00    +0.000 C 
ATOM     13  O   UNL     1       2.281   7.550  19.740  0.00  0.00    +0.000 OA
ATOM     14  H   UNL     1       1.979   8.413  16.680  0.00  0.00    +0.000 HD
BRANCH  11  19
ATOM     15  C   UNL     1      -0.856  13.327  19.212  0.00  0.00    +0.000 C 
ATOM     16  C   UNL     1      -0.114  12.087  18.812  0.00  0.00    +0.000 A 
ATOM     17  C   UNL     1       1.281  12.080  18.748  0.00  0.00    +0.000 A 
ATOM     18  C   UNL     1       1.972  10.918  18.392  0.00  0.00    +0.000 A 
ATOM     19  C   UNL     1       1.276   9.748  18.080  0.00  0.00    +0.000 A 
ATOM     20  C   UNL     1      -0.121   9.761  18.113  0.00  0.00    +0.000 A 
ATOM     21  C   UNL     1      -0.812  10.915  18.494  0.00  0.00    +0.000 A 
ENDBRANCH  11  19
ENDBRANCH   1  12
BRANCH   3  22
ATOM     22  O   UNL     1       6.456   6.214  16.114  0.00  0.00    +0.000 OA
ATOM     23  H   UNL     1       6.550   5.671  15.319  0.00  0.00    +0.000 HD
ENDBRANCH   3  22
TORSDOF 3
ENDMDL
MODEL 3
REMARK VINA RESULT:      -7.5      2.224      2.326
REMARK  Name = 
REMARK  4 active torsions:
REMARK  status: ('A' for Active; 'I' for Inactive)
REMARK    1  A    between atoms: C_1  and  C_2
REMARK    2  A    between atoms: C_5  and  N_6
REMARK    3  A    between atoms: C_7  and  C_9
REMARK    4  A    between atoms: C_11  and  O_12
REMARK                            x       y       z     vdW  Elec       q    Type
REMARK                         _______ _______ _______ _____ _____    ______ ____
ROOT
ATOM      1  C   UNL     1       3.412   5.689  18.991  0.00  0.00    +0.000 A 
ATOM      2  C   UNL     1       4.800   5.842  19.036  0.00  0.00    +0.000 A 
ATOM      3  C   UNL     1       5.560   4.697  19.097  0.00  0.00    +0.000 A 
ATOM      4  N   UNL     1       5.054   3.458  19.102  0.00  0.00    +0.000 NA
ATOM      5  C   UNL     1       3.724   3.305  19.033  0.00  0.00    +0.000 A 
ATOM      6  C   UNL     1       3.221   2.010  19.048  0.00  0.00    +0.000 A 
ATOM      7  C   UNL     1       1.852   1.744  18.995  0.00  0.00    +0.000 A 
ATOM      8  C   UNL     1       0.956   2.796  18.911  0.00  0.00    +0.000 A 
ATOM      9  C   UNL     1       1.437   4.106  18.899  0.00  0.00    +0.000 A 
ATOM     10  C   UNL     1       2.827   4.392  18.966  0.00  0.00    +0.000 A 
ENDROOT
BRANCH   1  12
ATOM     11  N   UNL     1       2.287   7.470  20.219  0.00  0.00    +0.000 N 
ATOM     12  C   UNL     1       2.558   6.912  18.976  0.00  0.00    +0.000 C 
ATOM     13  O   UNL     1       2.177   7.357  17.900  0.00  0.00    +0.000 OA
ATOM     14  H   UNL     1       2.795   7.140  21.026  0.00  0.00    +0.000 HD
BRANCH  11  19
ATOM     15  C   UNL     1      -1.404  11.755  21.131  0.00  0.00    +0.000 C 
ATOM     16  C   UNL     1      -0.442  10.628  20.907  0.00  0.00    +0.000 A 
ATOM     17  C   UNL     1      -0.251   9.648  21.884  0.00  0.00    +0.000 A 
ATOM     18  C   UNL     1       0.634   8.588  21.665  0.00  0.00    +0.000 A 
ATOM     19  C   UNL     1       1.353   8.499  20.471  0.00  0.00    +0.000 A 
ATOM     20  C   UNL     1       1.186   9.494  19.505  0.00  0.00    +0.000 A 
ATOM     21  C   UNL     1       0.282  10.542  19.711  0.00  0.00    +0.000 A 
ENDBRANCH  11  19
ENDBRANCH   1  12
BRANCH   3  22
ATOM     22  O   UNL     1       6.919   4.753  19.181  0.00  0.00    +0.000 OA
ATOM     23  H   UNL     1       7.171   5.011  20.078  0.00  0.00    +0.000 HD
ENDBRANCH   3  22
TORSDOF 3
ENDMDL
MODEL 4
REMARK VINA RESULT:      -7.5      2.111      2.171
REMARK  Name = 
REMARK  4 active torsions:
REMARK  status: ('A' for Active; 'I' for Inactive)
REMARK    1  A    between atoms: C_1  and  C_2
REMARK    2  A    between atoms: C_5  and  N_6
REMARK    3  A    between atoms: C_7  and  C_9
REMARK    4  A    between atoms: C_11  and  O_12
REMARK                            x       y       z     vdW  Elec       q    Type
REMARK                         _______ _______ _______ _____ _____    ______ ____
ROOT
ATOM      1  C   UNL     1       3.126   6.710  17.841  0.00  0.00    +0.000 A 
ATOM      2  C   UNL     1       4.333   7.119  17.269  0.00  0.00    +0.000 A 
ATOM      3  C   UNL     1       5.172   6.138  16.796  0.00  0.00    +0.000 A 
ATOM      4  N   UNL     1       4.898   4.829  16.837  0.00  0.00    +0.000 NA
ATOM      5  C   UNL     1       3.730   4.432  17.361  0.00  0.00    +0.000 A 
ATOM      6  C   UNL     1       3.470   3.068  17.401  0.00  0.00    +0.000 A 
ATOM      7  C   UNL     1       2.290   2.552  17.939  0.00  0.00    +0.000 A 
ATOM      8  C   UNL     1       1.333   3.418  18.440  0.00  0.00    +0.000 A 
ATOM      9  C   UNL     1       1.573   4.792  18.415  0.00  0.00    +0.000 A 
ATOM     10  C   UNL     1       2.775   5.331  17.883  0.00  0.00    +0.000 A 
ENDROOT
BRANCH   1  12
ATOM     11  N   UNL     1       2.224   7.856  19.795  0.00  0.00    +0.000 N 
ATOM     12  C   UNL     1       2.216   7.746  18.410  0.00  0.00    +0.000 C 
ATOM     13  O   UNL     1       1.553   8.438  17.646  0.00  0.00    +0.000 OA
ATOM     14  H   UNL     1       2.937   7.373  20.321  0.00  0.00    +0.000 HD
BRANCH  11  19
ATOM     15  C   UNL     1      -1.348  11.090  22.893  0.00  0.00    +0.000 C 
ATOM     16  C   UNL     1      -0.419  10.231  22.090  0.00  0.00    +0.000 A 
ATOM     17  C   UNL     1      -0.356   8.852  22.306  0.00  0.00    +0.000 A 
ATOM     18  C   UNL     1       0.499   8.050  21.544  0.00  0.00    +0.000 A 
ATOM     19  C   UNL     1       1.316   8.618  20.564  0.00  0.00    +0.000 A 
ATOM     20  C   UNL     1       1.278  10.000  20.367  0.00  0.00    +0.000 A 
ATOM     21  C   UNL     1       0.405  10.801  21.111  0.00  0.00    +0.000 A 
ENDBRANCH  11  19
ENDBRANCH   1  12
BRANCH   3  22
ATOM     22  O   UNL     1       6.386   6.444  16.256  0.00  0.00    +0.000 OA
ATOM     23  H   UNL     1       6.272   7.143  15.597  0.00  0.00    +0.000 HD
ENDBRANCH   3  22
TORSDOF 3
ENDMDL
MODEL 5
REMARK VINA RESULT:      -7.5      2.243      2.418
REMARK  Name = 
REMARK  4 active torsions:
REMARK  status: ('A' for Active; 'I' for Inactive)
REMARK    1  A    between atoms: C_1  and  C_2
REMARK    2  A    between atoms: C_5  and  N_6
REMARK    3  A    between atoms: C_7  and  C_9
REMARK    4  A    between atoms: C_11  and  O_12
REMARK                            x       y       z     vdW  Elec       q    Type
REMARK                         _______ _______ _______ _____ _____    ______ ____
ROOT
ATOM      1  C   UNL     1       3.422   5.673  18.965  0.00  0.00    +0.000 A 
ATOM      2  C   UNL     1       4.815   5.772  18.993  0.00  0.00    +0.000 A 
ATOM      3  C   UNL     1       5.531   4.600  19.047  0.00  0.00    +0.000 A 
ATOM      4  N   UNL     1       4.979   3.381  19.060  0.00  0.00    +0.000 NA
ATOM      5  C   UNL     1       3.643   3.279  19.007  0.00  0.00    +0.000 A 
ATOM      6  C   UNL     1       3.091   2.005  19.030  0.00  0.00    +0.000 A 
ATOM      7  C   UNL     1       1.712   1.791  18.994  0.00  0.00    +0.000 A 
ATOM      8  C   UNL     1       0.856   2.877  18.919  0.00  0.00    +0.000 A 
ATOM      9  C   UNL     1       1.387   4.166  18.898  0.00  0.00    +0.000 A 
ATOM     10  C   UNL     1       2.787   4.399  18.948  0.00  0.00    +0.000 A 
ENDROOT
BRANCH   1  12
ATOM     11  N   UNL     1       2.322   7.460  20.207  0.00  0.00    +0.000 N 
ATOM     12  C   UNL     1       2.615   6.928  18.957  0.00  0.00    +0.000 C 
ATOM     13  O   UNL     1       2.289   7.418  17.882  0.00  0.00    +0.000 OA
ATOM     14  H   UNL     1       2.789   7.088  21.020  0.00  0.00    +0.000 HD
BRANCH  11  19
ATOM     15  C   UNL     1      -1.429  11.637  21.345  0.00  0.00    +0.000 C 
ATOM     16  C   UNL     1      -0.445  10.551  21.033  0.00  0.00    +0.000 A 
ATOM     17  C   UNL     1       0.175  10.488  19.783  0.00  0.00    +0.000 A 
ATOM     18  C   UNL     1       1.106   9.483  19.500  0.00  0.00    +0.000 A 
ATOM     19  C   UNL     1       1.419   8.517  20.458  0.00  0.00    +0.000 A 
ATOM     20  C   UNL     1       0.777   8.559  21.698  0.00  0.00    +0.000 A 
ATOM     21  C   UNL     1      -0.135   9.578  21.992  0.00  0.00    +0.000 A 
ENDBRANCH  11  19
ENDBRANCH   1  12
BRANCH   3  22
ATOM     22  O   UNL     1       6.892   4.604  19.114  0.00  0.00    +0.000 OA
ATOM     23  H   UNL     1       7.221   5.472  18.843  0.00  0.00    +0.000 HD
ENDBRANCH   3  22
TORSDOF 3
ENDMDL
MODEL 6
REMARK VINA RESULT:      -7.4      1.999      2.117
REMARK  Name = 
REMARK  4 active torsions:
REMARK  status: ('A' for Active; 'I' for Inactive)
REMARK    1  A    between atoms: C_1  and  C_2
REMARK    2  A    between atoms: C_5  and  N_6
REMARK    3  A    between atoms: C_7  and  C_9
REMARK    4  A    between atoms: C_11  and  O_12
REMARK                            x       y       z     vdW  Elec       q    Type
REMARK                         _______ _______ _______ _____ _____    ______ ____
ROOT
ATOM      1  C   UNL     1       3.299   6.670  17.703  0.00  0.00    +0.000 A 
ATOM      2  C   UNL     1       4.521   6.955  17.088  0.00  0.00    +0.000 A 
ATOM      3  C   UNL     1       5.269   5.889  16.646  0.00  0.00    +0.000 A 
ATOM      4  N   UNL     1       4.894   4.610  16.754  0.00  0.00    +0.000 NA
ATOM      5  C   UNL     1       3.710   4.332  17.320  0.00  0.00    +0.000 A 
ATOM      6  C   UNL     1       3.345   2.996  17.430  0.00  0.00    +0.000 A 
ATOM      7  C   UNL     1       2.141   2.601  18.015  0.00  0.00    +0.000 A 
ATOM      8  C   UNL     1       1.268   3.563  18.494  0.00  0.00    +0.000 A 
ATOM      9  C   UNL     1       1.614   4.911  18.398  0.00  0.00    +0.000 A 
ATOM     10  C   UNL     1       2.842   5.327  17.817  0.00  0.00    +0.000 A 
ENDROOT
BRANCH   1  12
ATOM     11  N   UNL     1       2.317   7.815  19.618  0.00  0.00    +0.000 N 
ATOM     12  C   UNL     1       2.488   7.800  18.239  0.00  0.00    +0.000 C 
ATOM     13  O   UNL     1       2.053   8.641  17.461  0.00  0.00    +0.000 OA
ATOM     14  H   UNL     1       2.866   7.187  20.187  0.00  0.00    +0.000 HD
BRANCH  11  19
ATOM     15  C   UNL     1      -1.280  11.113  22.619  0.00  0.00    +0.000 C 
ATOM     16  C   UNL     1      -0.342  10.259  21.820  0.00  0.00    +0.000 A 
ATOM     17  C   UNL     1      -0.204  10.446  20.443  0.00  0.00    +0.000 A 
ATOM     18  C   UNL     1       0.685   9.659  19.704  0.00  0.00    +0.000 A 
ATOM     19  C   UNL     1       1.436   8.662  20.328  0.00  0.00    +0.000 A 
ATOM     20  C   UNL     1       1.276   8.451  21.700  0.00  0.00    +0.000 A 
ATOM     21  C   UNL     1       0.408   9.254  22.446  0.00  0.00    +0.000 A 
ENDBRANCH  11  19
ENDBRANCH   1  12
BRANCH   3  22
ATOM     22  O   UNL     1       6.490   6.073  16.068  0.00  0.00    +0.000 OA
ATOM     23  H   UNL     1       6.994   6.714  16.587  0.00  0.00    +0.000 HD
ENDBRANCH   3  22
TORSDOF 3
ENDMDL
MODEL 7
REMARK VINA RESULT:      -7.4      2.173      2.356
REMARK  Name = 
REMARK  4 active torsions:
REMARK  status: ('A' for Active; 'I' for Inactive)
REMARK    1  A    between atoms: C_1  and  C_2
REMARK    2  A    between atoms: C_5  and  N_6
REMARK    3  A    between atoms: C_7  and  C_9
REMARK    4  A    between atoms: C_11  and  O_12
REMARK                            x       y       z     vdW  Elec       q    Type
REMARK                         _______ _______ _______ _____ _____    ______ ____
ROOT
ATOM      1  C   UNL     1       3.565   5.764  18.917  0.00  0.00    +0.000 A 
ATOM      2  C   UNL     1       4.876   5.629  18.452  0.00  0.00    +0.000 A 
ATOM      3  C   UNL     1       5.527   4.450  18.729  0.00  0.00    +0.000 A 
ATOM      4  N   UNL     1       4.981   3.429  19.399  0.00  0.00    +0.000 NA
ATOM      5  C   UNL     1       3.715   3.543  19.827  0.00  0.00    +0.000 A 
ATOM      6  C   UNL     1       3.171   2.475  20.528  0.00  0.00    +0.000 A 
ATOM      7  C   UNL     1       1.868   2.499  21.027  0.00  0.00    +0.000 A 
ATOM      8  C   UNL     1       1.076   3.614  20.810  0.00  0.00    +0.000 A 
ATOM      9  C   UNL     1       1.601   4.702  20.113  0.00  0.00    +0.000 A 
ATOM     10  C   UNL     1       2.930   4.696  19.611  0.00  0.00    +0.000 A 
ENDROOT
BRANCH   1  12
ATOM     11  N   UNL     1       2.246   7.619  19.792  0.00  0.00    +0.000 N 
ATOM     12  C   UNL     1       2.850   7.050  18.677  0.00  0.00    +0.000 C 
ATOM     13  O   UNL     1       2.857   7.532  17.550  0.00  0.00    +0.000 OA
ATOM     14  H   UNL     1       2.452   7.243  20.705  0.00  0.00    +0.000 HD
BRANCH  11  19
ATOM     15  C   UNL     1      -1.460  11.986  19.851  0.00  0.00    +0.000 C 
ATOM     16  C   UNL     1      -0.487  10.847  19.820  0.00  0.00    +0.000 A 
ATOM     17  C   UNL     1       0.231  10.553  18.658  0.00  0.00    +0.000 A 
ATOM     18  C   UNL     1       1.152   9.501  18.638  0.00  0.00    +0.000 A 
ATOM     19  C   UNL     1       1.357   8.716  19.774  0.00  0.00    +0.000 A 
ATOM     20  C   UNL     1       0.618   8.989  20.928  0.00  0.00    +0.000 A 
ATOM     21  C   UNL     1      -0.285  10.057  20.959  0.00  0.00    +0.000 A 
ENDBRANCH  11  19
ENDBRANCH   1  12
BRANCH   3  22
ATOM     22  O   UNL     1       6.819   4.247  18.345  0.00  0.00    +0.000 OA
ATOM     23  H   UNL     1       7.173   5.069  17.978  0.00  0.00    +0.000 HD
ENDBRANCH   3  22
TORSDOF 3
ENDMDL
MODEL 8
REMARK VINA RESULT:      -7.3      2.438      3.483
REMARK  Name = 
REMARK  4 active torsions:
REMARK  status: ('A' for Active; 'I' for Inactive)
REMARK    1  A    between atoms: C_1  and  C_2
REMARK    2  A    between atoms: C_5  and  N_6
REMARK    3  A    between atoms: C_7  and  C_9
REMARK    4  A    between atoms: C_11  and  O_12
REMARK                            x       y       z     vdW  Elec       q    Type
REMARK                         _______ _______ _______ _____ _____    ______ ____
ROOT
ATOM      1  C   UNL     1       3.005   6.057  17.990  0.00  0.00    +0.000 A 
ATOM      2  C   UNL     1       2.158   4.946  17.978  0.00  0.00    +0.000 A 
ATOM      3  C   UNL     1       2.676   3.762  17.507  0.00  0.00    +0.000 A 
ATOM      4  N   UNL     1       3.934   3.609  17.078  0.00  0.00    +0.000 NA
ATOM      5  C   UNL     1       4.758   4.666  17.111  0.00  0.00    +0.000 A 
ATOM      6  C   UNL     1       6.058   4.487  16.652  0.00  0.00    +0.000 A 
ATOM      7  C   UNL     1       6.989   5.525  16.632  0.00  0.00    +0.000 A 
ATOM      8  C   UNL     1       6.622   6.778  17.094  0.00  0.00    +0.000 A 
ATOM      9  C   UNL     1       5.322   6.984  17.556  0.00  0.00    +0.000 A 
ATOM     10  C   UNL     1       4.360   5.939  17.570  0.00  0.00    +0.000 A 
ENDROOT
BRANCH   1  12
ATOM     11  N   UNL     1       2.122   7.441  19.792  0.00  0.00    +0.000 N 
ATOM     12  C   UNL     1       2.460   7.368  18.446  0.00  0.00    +0.000 C 
ATOM     13  O   UNL     1       2.367   8.286  17.640  0.00  0.00    +0.000 OA
ATOM     14  H   UNL     1       2.407   6.696  20.410  0.00  0.00    +0.000 HD
BRANCH  11  19
ATOM     15  C   UNL     1      -0.803  11.613  22.411  0.00  0.00    +0.000 C 
ATOM     16  C   UNL     1      -0.040  10.529  21.712  0.00  0.00    +0.000 A 
ATOM     17  C   UNL     1       0.117  10.548  20.324  0.00  0.00    +0.000 A 
ATOM     18  C   UNL     1       0.845   9.545  19.676  0.00  0.00    +0.000 A 
ATOM     19  C   UNL     1       1.412   8.498  20.405  0.00  0.00    +0.000 A 
ATOM     20  C   UNL     1       1.230   8.459  21.789  0.00  0.00    +0.000 A 
ATOM     21  C   UNL     1       0.525   9.475  22.443  0.00  0.00    +0.000 A 
ENDBRANCH  11  19
ENDBRANCH   1  12
BRANCH   3  22
ATOM     22  O   UNL     1       1.911   2.637  17.426  0.00  0.00    +0.000 OA
ATOM     23  H   UNL     1       1.242   2.758  16.738  0.00  0.00    +0.000 HD
ENDBRANCH   3  22
TORSDOF 3
ENDMDL
MODEL 9
REMARK VINA RESULT:      -7.3      2.529      2.634
REMARK  Name = 
REMARK  4 active torsions:
REMARK  status: ('A' for Active; 'I' for Inactive)
REMARK    1  A    between atoms: C_1  and  C_2
REMARK    2  A    between atoms: C_5  and  N_6
REMARK    3  A    between atoms: C_7  and  C_9
REMARK    4  A    between atoms: C_11  and  O_12
REMARK                            x       y       z     vdW  Elec       q    Type
REMARK                         _______ _______ _______ _____ _____    ______ ____
ROOT
ATOM      1  C   UNL     1       3.012   6.233  18.902  0.00  0.00    +0.000 A 
ATOM      2  C   UNL     1       4.143   6.300  18.083  0.00  0.00    +0.000 A 
ATOM      3  C   UNL     1       4.841   5.134  17.874  0.00  0.00    +0.000 A 
ATOM      4  N   UNL     1       4.498   3.948  18.389  0.00  0.00    +0.000 NA
ATOM      5  C   UNL     1       3.399   3.873  19.155  0.00  0.00    +0.000 A 
ATOM      6  C   UNL     1       3.066   2.634  19.686  0.00  0.00    +0.000 A 
ATOM      7  C   UNL     1       1.952   2.452  20.506  0.00  0.00    +0.000 A 
ATOM      8  C   UNL     1       1.135   3.532  20.795  0.00  0.00    +0.000 A 
ATOM      9  C   UNL     1       1.451   4.787  20.276  0.00  0.00    +0.000 A 
ATOM     10  C   UNL     1       2.590   4.990  19.451  0.00  0.00    +0.000 A 
ENDROOT
BRANCH   1  12
ATOM     11  N   UNL     1       1.986   7.729  20.531  0.00  0.00    +0.000 N 
ATOM     12  C   UNL     1       2.263   7.489  19.190  0.00  0.00    +0.000 C 
ATOM     13  O   UNL     1       1.965   8.230  18.260  0.00  0.00    +0.000 OA
ATOM     14  H   UNL     1       2.432   7.157  21.233  0.00  0.00    +0.000 HD
BRANCH  11  19
ATOM     15  C   UNL     1      -1.524  11.712  22.682  0.00  0.00    +0.000 C 
ATOM     16  C   UNL     1      -0.609  10.675  22.104  0.00  0.00    +0.000 A 
ATOM     17  C   UNL     1      -0.420  10.580  20.724  0.00  0.00    +0.000 A 
ATOM     18  C   UNL     1       0.449   9.624  20.188  0.00  0.00    +0.000 A 
ATOM     19  C   UNL     1       1.129   8.737  21.025  0.00  0.00    +0.000 A 
ATOM     20  C   UNL     1       0.918   8.810  22.404  0.00  0.00    +0.000 A 
ATOM     21  C   UNL     1       0.070   9.782  22.944  0.00  0.00    +0.000 A 
ENDBRANCH  11  19
ENDBRANCH   1  12
BRANCH   3  22
ATOM     22  O   UNL     1       5.976   5.115  17.119  0.00  0.00    +0.000 OA
ATOM     23  H   UNL     1       6.618   4.517  17.527  0.00  0.00    +0.000 HD
ENDBRANCH   3  22
TORSDOF 3
ENDMDL
