MODEL 1
REMARK VINA RESULT:      -6.9      0.000      0.000
REMARK  Name = 
REMARK  15 active torsions:
REMARK  status: ('A' for Active; 'I' for Inactive)
REMARK    1  A    between atoms: C_1  and  O_2
REMARK    2  A    between atoms: O_2  and  C_3
REMARK    3  A    between atoms: C_3  and  C_5
REMARK    4  A    between atoms: C_6  and  C_7
REMARK    5  A    between atoms: N_9  and  C_10
REMARK    6  A    between atoms: C_10  and  C_11
REMARK    7  A    between atoms: C_11  and  N_12
REMARK    8  A    between atoms: C_11  and  C_21
REMARK    9  A    between atoms: C_13  and  CA_15
REMARK   10  A    between atoms: CA_15  and  N_16
REMARK   11  A    between atoms: CA_15  and  CB_17
REMARK   12  A    between atoms: CB_17  and  CG_18
REMARK   13  A    between atoms: CG_18  and  SD_19
REMARK   14  A    between atoms: SD_19  and  CE_20
REMARK   15  A    between atoms: C_21  and  O_23
REMARK                            x       y       z     vdW  Elec       q    Type
REMARK                         _______ _______ _______ _____ _____    ______ ____
ROOT
ATOM      1  C   UNK A   2       6.800   4.873  18.258  0.00  0.00    +0.000 C 
ENDROOT
BRANCH   1   2
ATOM      2  N   UNK A   2       5.505   5.453  17.925  0.00  0.00    +0.000 N 
ATOM      3  C   MET A   1       4.458   5.456  18.820  0.00  0.00    +0.000 C 
ATOM      4  O   MET A   1       4.591   5.107  19.989  0.00  0.00    +0.000 OA
ATOM      5  H   UNK A   2       5.173   5.340  16.968  0.00  0.00    +0.000 HD
BRANCH   3   6
ATOM      6  CA  MET A   1       3.126   5.959  18.189  0.00  0.00    +0.000 C 
BRANCH   6   7
ATOM      7  N   MET A   1       2.465   6.904  19.137  0.00  0.00    +0.000 NA
ATOM      8  H1  MET A   1       2.721   7.854  18.863  0.00  0.00    +0.000 HD
ATOM      9  H2  MET A   1       2.866   6.765  20.065  0.00  0.00    +0.000 HD
ENDBRANCH   6   7
BRANCH   6  10
ATOM     10  CB  MET A   1       2.216   4.765  17.851  0.00  0.00    +0.000 C 
BRANCH  10  11
ATOM     11  CG  MET A   1       1.445   4.158  19.030  0.00  0.00    +0.000 C 
BRANCH  11  12
ATOM     12  SD  MET A   1       1.742   2.369  19.204  0.00  0.00    +0.000 S 
ATOM     13  CE  MET A   1       2.976   2.153  17.898  0.00  0.00    +0.000 C 
ENDBRANCH  11  12
ENDBRANCH  10  11
ENDBRANCH   6  10
ENDBRANCH   3   6
ENDBRANCH   1   2
BRANCH   1  14
ATOM     14  C   UNK A   2       7.640   5.857  19.082  0.00  0.00    +0.000 C 
ATOM     15  O   UNK A   2       8.114   6.898  18.644  0.00  0.00    +0.000 OA
BRANCH  14  16
ATOM     16  O   UNK A   2       7.770   5.505  20.384  0.00  0.00    +0.000 OA
ATOM     17  H   UNK A   2       8.699   5.272  20.606  0.00  0.00    +0.000 HD
ENDBRANCH  14  16
ENDBRANCH   1  14
BRANCH   1  18
ATOM     18  C   UNK A   2       7.595   4.578  16.975  0.00  0.00    +0.000 C 
BRANCH  18  21
ATOM     19  C   UNK A   2       6.857   4.671  14.625  0.00  0.00    +0.000 C 
ATOM     20  O   UNK A   2       7.681   5.518  14.313  0.00  0.00    +0.000 OA
ATOM     21  N   UNK A   2       6.766   4.104  15.870  0.00  0.00    +0.000 N 
ATOM     22  H   UNK A   2       6.039   3.434  16.075  0.00  0.00    +0.000 HD
BRANCH  19  24
ATOM     23  C   UNK A   2       6.211   3.302  12.715  0.00  0.00    +0.000 C 
ATOM     24  C   UNK A   2       5.845   4.148  13.687  0.00  0.00    +0.000 C 
BRANCH  23  25
ATOM     25  C   UNK A   2       5.180   2.822  11.774  0.00  0.00    +0.000 C 
ATOM     26  O   UNK A   2       4.146   3.413  11.525  0.00  0.00    +0.000 OA
BRANCH  25  28
ATOM     27  C   UNK A   2       7.007   1.555  11.091  0.00  0.00    +0.000 C 
ATOM     28  O   UNK A   2       5.590   1.641  11.257  0.00  0.00    +0.000 OA
ENDBRANCH  25  28
ENDBRANCH  23  25
ENDBRANCH  19  24
ENDBRANCH  18  21
ENDBRANCH   1  18
TORSDOF 13
ENDMDL
MODEL 2
REMARK VINA RESULT:      -6.5      1.663      2.313
REMARK  Name = 
REMARK  15 active torsions:
REMARK  status: ('A' for Active; 'I' for Inactive)
REMARK    1  A    between atoms: C_1  and  O_2
REMARK    2  A    between atoms: O_2  and  C_3
REMARK    3  A    between atoms: C_3  and  C_5
REMARK    4  A    between atoms: C_6  and  C_7
REMARK    5  A    between atoms: N_9  and  C_10
REMARK    6  A    between atoms: C_10  and  C_11
REMARK    7  A    between atoms: C_11  and  N_12
REMARK    8  A    between atoms: C_11  and  C_21
REMARK    9  A    between atoms: C_13  and  CA_15
REMARK   10  A    between atoms: CA_15  and  N_16
REMARK   11  A    between atoms: CA_15  and  CB_17
REMARK   12  A    between atoms: CB_17  and  CG_18
REMARK   13  A    between atoms: CG_18  and  SD_19
REMARK   14  A    between atoms: SD_19  and  CE_20
REMARK   15  A    between atoms: C_21  and  O_23
REMARK                            x       y       z     vdW  Elec       q    Type
REMARK                         _______ _______ _______ _____ _____    ______ ____
ROOT
ATOM      1  C   UNK A   2       7.155   4.685  17.698  0.00  0.00    +0.000 C 
ENDROOT
BRANCH   1   2
ATOM      2  N   UNK A   2       6.170   3.805  18.313  0.00  0.00    +0.000 N 
ATOM      3  C   MET A   1       4.858   4.187  18.480  0.00  0.00    +0.000 C 
ATOM      4  O   MET A   1       4.408   5.221  17.997  0.00  0.00    +0.000 OA
ATOM      5  H   UNK A   2       6.484   3.214  19.082  0.00  0.00    +0.000 HD
BRANCH   3   6
ATOM      6  CA  MET A   1       4.034   3.166  19.319  0.00  0.00    +0.000 C 
BRANCH   6   7
ATOM      7  N   MET A   1       4.969   2.200  19.965  0.00  0.00    +0.000 NA
ATOM      8  H1  MET A   1       4.827   1.286  19.531  0.00  0.00    +0.000 HD
ATOM      9  H2  MET A   1       4.696   2.087  20.943  0.00  0.00    +0.000 HD
ENDBRANCH   6   7
BRANCH   6  10
ATOM     10  CB  MET A   1       3.008   2.450  18.422  0.00  0.00    +0.000 C 
BRANCH  10  11
ATOM     11  CG  MET A   1       1.552   2.502  18.899  0.00  0.00    +0.000 C 
BRANCH  11  12
ATOM     12  SD  MET A   1       1.306   3.706  20.244  0.00  0.00    +0.000 S 
ATOM     13  CE  MET A   1       1.400   2.581  21.658  0.00  0.00    +0.000 C 
ENDBRANCH  11  12
ENDBRANCH  10  11
ENDBRANCH   6  10
ENDBRANCH   3   6
ENDBRANCH   1   2
BRANCH   1  14
ATOM     14  C   UNK A   2       7.562   5.805  18.663  0.00  0.00    +0.000 C 
ATOM     15  O   UNK A   2       7.793   5.642  19.855  0.00  0.00    +0.000 OA
BRANCH  14  16
ATOM     16  O   UNK A   2       7.709   7.012  18.066  0.00  0.00    +0.000 OA
ATOM     17  H   UNK A   2       8.562   7.436  18.311  0.00  0.00    +0.000 HD
ENDBRANCH  14  16
ENDBRANCH   1  14
BRANCH   1  18
ATOM     18  C   UNK A   2       6.556   5.366  16.456  0.00  0.00    +0.000 C 
BRANCH  18  21
ATOM     19  C   UNK A   2       6.974   4.705  14.118  0.00  0.00    +0.000 C 
ATOM     20  O   UNK A   2       7.771   5.610  13.918  0.00  0.00    +0.000 OA
ATOM     21  N   UNK A   2       6.372   4.460  15.325  0.00  0.00    +0.000 N 
ATOM     22  H   UNK A   2       5.694   3.718  15.417  0.00  0.00    +0.000 HD
BRANCH  19  24
ATOM     23  C   UNK A   2       5.270   3.700  12.695  0.00  0.00    +0.000 C 
ATOM     24  C   UNK A   2       6.555   3.754  13.071  0.00  0.00    +0.000 C 
BRANCH  23  25
ATOM     25  C   UNK A   2       4.878   2.715  11.668  0.00  0.00    +0.000 C 
ATOM     26  O   UNK A   2       5.608   1.844  11.234  0.00  0.00    +0.000 OA
BRANCH  25  28
ATOM     27  C   UNK A   2       3.463   3.936  10.283  0.00  0.00    +0.000 C 
ATOM     28  O   UNK A   2       3.594   2.955  11.314  0.00  0.00    +0.000 OA
ENDBRANCH  25  28
ENDBRANCH  23  25
ENDBRANCH  19  24
ENDBRANCH  18  21
ENDBRANCH   1  18
TORSDOF 13
ENDMDL
MODEL 3
REMARK VINA RESULT:      -6.4      1.079      1.695
REMARK  Name = 
REMARK  15 active torsions:
REMARK  status: ('A' for Active; 'I' for Inactive)
REMARK    1  A    between atoms: C_1  and  O_2
REMARK    2  A    between atoms: O_2  and  C_3
REMARK    3  A    between atoms: C_3  and  C_5
REMARK    4  A    between atoms: C_6  and  C_7
REMARK    5  A    between atoms: N_9  and  C_10
REMARK    6  A    between atoms: C_10  and  C_11
REMARK    7  A    between atoms: C_11  and  N_12
REMARK    8  A    between atoms: C_11  and  C_21
REMARK    9  A    between atoms: C_13  and  CA_15
REMARK   10  A    between atoms: CA_15  and  N_16
REMARK   11  A    between atoms: CA_15  and  CB_17
REMARK   12  A    between atoms: CB_17  and  CG_18
REMARK   13  A    between atoms: CG_18  and  SD_19
REMARK   14  A    between atoms: SD_19  and  CE_20
REMARK   15  A    between atoms: C_21  and  O_23
REMARK                            x       y       z     vdW  Elec       q    Type
REMARK                         _______ _______ _______ _____ _____    ______ ____
ROOT
ATOM      1  C   UNK A   2       6.965   4.647  18.458  0.00  0.00    +0.000 C 
ENDROOT
BRANCH   1   2
ATOM      2  N   UNK A   2       5.517   4.745  18.590  0.00  0.00    +0.000 N 
ATOM      3  C   MET A   1       4.822   5.853  18.160  0.00  0.00    +0.000 C 
ATOM      4  O   MET A   1       5.351   6.753  17.515  0.00  0.00    +0.000 OA
ATOM      5  H   UNK A   2       5.094   4.344  19.426  0.00  0.00    +0.000 HD
BRANCH   3   6
ATOM      6  CA  MET A   1       3.318   5.817  18.565  0.00  0.00    +0.000 C 
BRANCH   6   7
ATOM      7  N   MET A   1       3.208   5.992  20.043  0.00  0.00    +0.000 NA
ATOM      8  H1  MET A   1       2.620   6.808  20.220  0.00  0.00    +0.000 HD
ATOM      9  H2  MET A   1       4.130   6.229  20.411  0.00  0.00    +0.000 HD
ENDBRANCH   6   7
BRANCH   6  10
ATOM     10  CB  MET A   1       2.677   4.497  18.100  0.00  0.00    +0.000 C 
BRANCH  10  11
ATOM     11  CG  MET A   1       1.466   4.020  18.912  0.00  0.00    +0.000 C 
BRANCH  11  12
ATOM     12  SD  MET A   1       1.750   2.397  19.690  0.00  0.00    +0.000 S 
ATOM     13  CE  MET A   1       1.745   2.905  21.426  0.00  0.00    +0.000 C 
ENDBRANCH  11  12
ENDBRANCH  10  11
ENDBRANCH   6  10
ENDBRANCH   3   6
ENDBRANCH   1   2
BRANCH   1  14
ATOM     14  C   UNK A   2       7.665   5.610  19.424  0.00  0.00    +0.000 C 
ATOM     15  O   UNK A   2       7.825   5.396  20.619  0.00  0.00    +0.000 OA
BRANCH  14  16
ATOM     16  O   UNK A   2       8.162   6.718  18.824  0.00  0.00    +0.000 OA
ATOM     17  H   UNK A   2       9.028   6.539  18.391  0.00  0.00    +0.000 HD
ENDBRANCH  14  16
ENDBRANCH   1  14
BRANCH   1  18
ATOM     18  C   UNK A   2       7.397   5.051  17.038  0.00  0.00    +0.000 C 
BRANCH  18  21
ATOM     19  C   UNK A   2       6.859   4.663  14.664  0.00  0.00    +0.000 C 
ATOM     20  O   UNK A   2       7.684   5.470  14.260  0.00  0.00    +0.000 OA
ATOM     21  N   UNK A   2       6.678   4.341  15.984  0.00  0.00    +0.000 N 
ATOM     22  H   UNK A   2       5.954   3.692  16.257  0.00  0.00    +0.000 HD
BRANCH  19  24
ATOM     23  C   UNK A   2       6.378   3.509  12.573  0.00  0.00    +0.000 C 
ATOM     24  C   UNK A   2       5.945   3.928  13.769  0.00  0.00    +0.000 C 
BRANCH  23  25
ATOM     25  C   UNK A   2       5.429   2.805  11.688  0.00  0.00    +0.000 C 
ATOM     26  O   UNK A   2       5.558   1.654  11.316  0.00  0.00    +0.000 OA
BRANCH  25  28
ATOM     27  C   UNK A   2       3.345   3.025  10.679  0.00  0.00    +0.000 C 
ATOM     28  O   UNK A   2       4.421   3.653  11.381  0.00  0.00    +0.000 OA
ENDBRANCH  25  28
ENDBRANCH  23  25
ENDBRANCH  19  24
ENDBRANCH  18  21
ENDBRANCH   1  18
TORSDOF 13
ENDMDL
MODEL 4
REMARK VINA RESULT:      -6.2      1.912      2.779
REMARK  Name = 
REMARK  15 active torsions:
REMARK  status: ('A' for Active; 'I' for Inactive)
REMARK    1  A    between atoms: C_1  and  O_2
REMARK    2  A    between atoms: O_2  and  C_3
REMARK    3  A    between atoms: C_3  and  C_5
REMARK    4  A    between atoms: C_6  and  C_7
REMARK    5  A    between atoms: N_9  and  C_10
REMARK    6  A    between atoms: C_10  and  C_11
REMARK    7  A    between atoms: C_11  and  N_12
REMARK    8  A    between atoms: C_11  and  C_21
REMARK    9  A    between atoms: C_13  and  CA_15
REMARK   10  A    between atoms: CA_15  and  N_16
REMARK   11  A    between atoms: CA_15  and  CB_17
REMARK   12  A    between atoms: CB_17  and  CG_18
REMARK   13  A    between atoms: CG_18  and  SD_19
REMARK   14  A    between atoms: SD_19  and  CE_20
REMARK   15  A    between atoms: C_21  and  O_23
REMARK                            x       y       z     vdW  Elec       q    Type
REMARK                         _______ _______ _______ _____ _____    ______ ____
ROOT
ATOM      1  C   UNK A   2       5.109   4.986  18.513  0.00  0.00    +0.000 C 
ENDROOT
BRANCH   1   2
ATOM      2  N   UNK A   2       4.223   3.834  18.415  0.00  0.00    +0.000 N 
ATOM      3  C   MET A   1       4.369   2.734  19.231  0.00  0.00    +0.000 C 
ATOM      4  O   MET A   1       5.152   2.714  20.175  0.00  0.00    +0.000 OA
ATOM      5  H   UNK A   2       3.903   3.565  17.486  0.00  0.00    +0.000 HD
BRANCH   3   6
ATOM      6  CA  MET A   1       3.433   1.556  18.829  0.00  0.00    +0.000 C 
BRANCH   6   7
ATOM      7  N   MET A   1       4.165   0.647  17.899  0.00  0.00    +0.000 NA
ATOM      8  H1  MET A   1       5.122   0.550  18.243  0.00  0.00    +0.000 HD
ATOM      9  H2  MET A   1       4.242   1.106  16.990  0.00  0.00    +0.000 HD
ENDBRANCH   6   7
BRANCH   6  10
ATOM     10  CB  MET A   1       2.142   2.100  18.191  0.00  0.00    +0.000 C 
BRANCH  10  11
ATOM     11  CG  MET A   1       0.929   2.205  19.124  0.00  0.00    +0.000 C 
BRANCH  11  12
ATOM     12  SD  MET A   1       0.925   3.753  20.085  0.00  0.00    +0.000 S 
ATOM     13  CE  MET A   1       1.738   3.160  21.589  0.00  0.00    +0.000 C 
ENDBRANCH  11  12
ENDBRANCH  10  11
ENDBRANCH   6  10
ENDBRANCH   3   6
ENDBRANCH   1   2
BRANCH   1  14
ATOM     14  C   UNK A   2       4.393   6.263  18.056  0.00  0.00    +0.000 C 
ATOM     15  O   UNK A   2       4.963   7.276  17.670  0.00  0.00    +0.000 OA
BRANCH  14  16
ATOM     16  O   UNK A   2       3.042   6.160  18.053  0.00  0.00    +0.000 OA
ATOM     17  H   UNK A   2       2.704   5.847  17.184  0.00  0.00    +0.000 HD
ENDBRANCH  14  16
ENDBRANCH   1  14
BRANCH   1  18
ATOM     18  C   UNK A   2       6.322   4.803  17.585  0.00  0.00    +0.000 C 
BRANCH  18  21
ATOM     19  C   UNK A   2       5.908   4.863  15.155  0.00  0.00    +0.000 C 
ATOM     20  O   UNK A   2       6.185   6.049  15.054  0.00  0.00    +0.000 OA
ATOM     21  N   UNK A   2       5.997   4.147  16.320  0.00  0.00    +0.000 N 
ATOM     22  H   UNK A   2       5.719   3.177  16.347  0.00  0.00    +0.000 HD
BRANCH  19  24
ATOM     23  C   UNK A   2       6.296   3.683  13.058  0.00  0.00    +0.000 C 
ATOM     24  C   UNK A   2       5.437   4.045  14.021  0.00  0.00    +0.000 C 
BRANCH  23  25
ATOM     25  C   UNK A   2       5.786   2.893  11.921  0.00  0.00    +0.000 C 
ATOM     26  O   UNK A   2       4.648   2.952  11.496  0.00  0.00    +0.000 OA
BRANCH  25  28
ATOM     27  C   UNK A   2       6.367   0.809  11.068  0.00  0.00    +0.000 C 
ATOM     28  O   UNK A   2       6.792   2.117  11.455  0.00  0.00    +0.000 OA
ENDBRANCH  25  28
ENDBRANCH  23  25
ENDBRANCH  19  24
ENDBRANCH  18  21
ENDBRANCH   1  18
TORSDOF 13
ENDMDL
MODEL 5
REMARK VINA RESULT:      -6.2      2.054      2.745
REMARK  Name = 
REMARK  15 active torsions:
REMARK  status: ('A' for Active; 'I' for Inactive)
REMARK    1  A    between atoms: C_1  and  O_2
REMARK    2  A    between atoms: O_2  and  C_3
REMARK    3  A    between atoms: C_3  and  C_5
REMARK    4  A    between atoms: C_6  and  C_7
REMARK    5  A    between atoms: N_9  and  C_10
REMARK    6  A    between atoms: C_10  and  C_11
REMARK    7  A    between atoms: C_11  and  N_12
REMARK    8  A    between atoms: C_11  and  C_21
REMARK    9  A    between atoms: C_13  and  CA_15
REMARK   10  A    between atoms: CA_15  and  N_16
REMARK   11  A    between atoms: CA_15  and  CB_17
REMARK   12  A    between atoms: CB_17  and  CG_18
REMARK   13  A    between atoms: CG_18  and  SD_19
REMARK   14  A    between atoms: SD_19  and  CE_20
REMARK   15  A    between atoms: C_21  and  O_23
REMARK                            x       y       z     vdW  Elec       q    Type
REMARK                         _______ _______ _______ _____ _____    ______ ____
ROOT
ATOM      1  C   UNK A   2       6.237   5.611  17.910  0.00  0.00    +0.000 C 
ENDROOT
BRANCH   1   2
ATOM      2  N   UNK A   2       4.899   5.060  18.082  0.00  0.00    +0.000 N 
ATOM      3  C   MET A   1       4.650   4.015  18.944  0.00  0.00    +0.000 C 
ATOM      4  O   MET A   1       5.498   3.584  19.718  0.00  0.00    +0.000 OA
ATOM      5  H   UNK A   2       4.302   5.010  17.258  0.00  0.00    +0.000 HD
BRANCH   3   6
ATOM      6  CA  MET A   1       3.194   3.474  18.831  0.00  0.00    +0.000 C 
BRANCH   6   7
ATOM      7  N   MET A   1       3.094   2.590  17.632  0.00  0.00    +0.000 NA
ATOM      8  H1  MET A   1       3.405   1.655  17.904  0.00  0.00    +0.000 HD
ATOM      9  H2  MET A   1       3.766   2.913  16.934  0.00  0.00    +0.000 HD
ENDBRANCH   6   7
BRANCH   6  10
ATOM     10  CB  MET A   1       2.198   4.645  18.756  0.00  0.00    +0.000 C 
BRANCH  10  11
ATOM     11  CG  MET A   1       2.097   5.517  20.014  0.00  0.00    +0.000 C 
BRANCH  11  12
ATOM     12  SD  MET A   1       2.276   7.292  19.643  0.00  0.00    +0.000 S 
ATOM     13  CE  MET A   1       1.333   7.972  21.030  0.00  0.00    +0.000 C 
ENDBRANCH  11  12
ENDBRANCH  10  11
ENDBRANCH   6  10
ENDBRANCH   3   6
ENDBRANCH   1   2
BRANCH   1  14
ATOM     14  C   UNK A   2       6.183   6.937  17.141  0.00  0.00    +0.000 C 
ATOM     15  O   UNK A   2       7.097   7.751  17.100  0.00  0.00    +0.000 OA
BRANCH  14  16
ATOM     16  O   UNK A   2       5.037   7.116  16.441  0.00  0.00    +0.000 OA
ATOM     17  H   UNK A   2       5.208   7.531  15.565  0.00  0.00    +0.000 HD
ENDBRANCH  14  16
ENDBRANCH   1  14
BRANCH   1  18
ATOM     18  C   UNK A   2       7.103   4.652  17.076  0.00  0.00    +0.000 C 
BRANCH  18  21
ATOM     19  C   UNK A   2       6.795   4.645  14.630  0.00  0.00    +0.000 C 
ATOM     20  O   UNK A   2       7.729   5.407  14.428  0.00  0.00    +0.000 OA
ATOM     21  N   UNK A   2       6.442   4.169  15.866  0.00  0.00    +0.000 N 
ATOM     22  H   UNK A   2       5.637   3.569  15.972  0.00  0.00    +0.000 HD
BRANCH  19  24
ATOM     23  C   UNK A   2       6.312   3.090  12.817  0.00  0.00    +0.000 C 
ATOM     24  C   UNK A   2       5.921   4.137  13.555  0.00  0.00    +0.000 C 
BRANCH  23  25
ATOM     25  C   UNK A   2       5.430   2.626  11.729  0.00  0.00    +0.000 C 
ATOM     26  O   UNK A   2       5.565   1.575  11.133  0.00  0.00    +0.000 OA
BRANCH  25  28
ATOM     27  C   UNK A   2       3.417   3.117  10.672  0.00  0.00    +0.000 C 
ATOM     28  O   UNK A   2       4.472   3.561  11.528  0.00  0.00    +0.000 OA
ENDBRANCH  25  28
ENDBRANCH  23  25
ENDBRANCH  19  24
ENDBRANCH  18  21
ENDBRANCH   1  18
TORSDOF 13
ENDMDL
MODEL 6
REMARK VINA RESULT:      -6.2      2.235      2.781
REMARK  Name = 
REMARK  15 active torsions:
REMARK  status: ('A' for Active; 'I' for Inactive)
REMARK    1  A    between atoms: C_1  and  O_2
REMARK    2  A    between atoms: O_2  and  C_3
REMARK    3  A    between atoms: C_3  and  C_5
REMARK    4  A    between atoms: C_6  and  C_7
REMARK    5  A    between atoms: N_9  and  C_10
REMARK    6  A    between atoms: C_10  and  C_11
REMARK    7  A    between atoms: C_11  and  N_12
REMARK    8  A    between atoms: C_11  and  C_21
REMARK    9  A    between atoms: C_13  and  CA_15
REMARK   10  A    between atoms: CA_15  and  N_16
REMARK   11  A    between atoms: CA_15  and  CB_17
REMARK   12  A    between atoms: CB_17  and  CG_18
REMARK   13  A    between atoms: CG_18  and  SD_19
REMARK   14  A    between atoms: SD_19  and  CE_20
REMARK   15  A    between atoms: C_21  and  O_23
REMARK                            x       y       z     vdW  Elec       q    Type
REMARK                         _______ _______ _______ _____ _____    ______ ____
ROOT
ATOM      1  C   UNK A   2       6.375   5.311  18.401  0.00  0.00    +0.000 C 
ENDROOT
BRANCH   1   2
ATOM      2  N   UNK A   2       5.165   5.351  19.213  0.00  0.00    +0.000 N 
ATOM      3  C   MET A   1       4.376   4.238  19.396  0.00  0.00    +0.000 C 
ATOM      4  O   MET A   1       4.713   3.122  19.013  0.00  0.00    +0.000 OA
ATOM      5  H   UNK A   2       4.604   6.201  19.176  0.00  0.00    +0.000 HD
BRANCH   3   6
ATOM      6  CA  MET A   1       3.047   4.557  20.144  0.00  0.00    +0.000 C 
BRANCH   6   7
ATOM      7  N   MET A   1       2.014   3.554  19.750  0.00  0.00    +0.000 NA
ATOM      8  H1  MET A   1       2.202   2.691  20.265  0.00  0.00    +0.000 HD
ATOM      9  H2  MET A   1       2.145   3.323  18.765  0.00  0.00    +0.000 HD
ENDBRANCH   6   7
BRANCH   6  10
ATOM     10  CB  MET A   1       2.593   5.993  19.827  0.00  0.00    +0.000 C 
BRANCH  10  11
ATOM     11  CG  MET A   1       1.459   6.543  20.701  0.00  0.00    +0.000 C 
BRANCH  11  12
ATOM     12  SD  MET A   1       1.445   8.364  20.751  0.00  0.00    +0.000 S 
ATOM     13  CE  MET A   1      -0.156   8.617  21.556  0.00  0.00    +0.000 C 
ENDBRANCH  11  12
ENDBRANCH  10  11
ENDBRANCH   6  10
ENDBRANCH   3   6
ENDBRANCH   1   2
BRANCH   1  14
ATOM     14  C   UNK A   2       7.545   5.977  19.135  0.00  0.00    +0.000 C 
ATOM     15  O   UNK A   2       8.186   6.925  18.698  0.00  0.00    +0.000 OA
BRANCH  14  16
ATOM     16  O   UNK A   2       7.781   5.461  20.365  0.00  0.00    +0.000 OA
ATOM     17  H   UNK A   2       8.417   4.711  20.327  0.00  0.00    +0.000 HD
ENDBRANCH  14  16
ENDBRANCH   1  14
BRANCH   1  18
ATOM     18  C   UNK A   2       6.165   6.098  17.096  0.00  0.00    +0.000 C 
BRANCH  18  21
ATOM     19  C   UNK A   2       6.364   4.967  14.915  0.00  0.00    +0.000 C 
ATOM     20  O   UNK A   2       7.554   5.220  14.799  0.00  0.00    +0.000 OA
ATOM     21  N   UNK A   2       5.609   5.293  16.011  0.00  0.00    +0.000 N 
ATOM     22  H   UNK A   2       4.620   5.087  16.031  0.00  0.00    +0.000 HD
BRANCH  19  24
ATOM     23  C   UNK A   2       6.204   3.466  13.002  0.00  0.00    +0.000 C 
ATOM     24  C   UNK A   2       5.583   4.270  13.875  0.00  0.00    +0.000 C 
BRANCH  23  25
ATOM     25  C   UNK A   2       5.399   2.809  11.954  0.00  0.00    +0.000 C 
ATOM     26  O   UNK A   2       5.771   1.855  11.296  0.00  0.00    +0.000 OA
BRANCH  25  28
ATOM     27  C   UNK A   2       3.632   3.394  10.560  0.00  0.00    +0.000 C 
ATOM     28  O   UNK A   2       4.209   3.446  11.867  0.00  0.00    +0.000 OA
ENDBRANCH  25  28
ENDBRANCH  23  25
ENDBRANCH  19  24
ENDBRANCH  18  21
ENDBRANCH   1  18
TORSDOF 13
ENDMDL
MODEL 7
REMARK VINA RESULT:      -6.1      1.704      2.156
REMARK  Name = 
REMARK  15 active torsions:
REMARK  status: ('A' for Active; 'I' for Inactive)
REMARK    1  A    between atoms: C_1  and  O_2
REMARK    2  A    between atoms: O_2  and  C_3
REMARK    3  A    between atoms: C_3  and  C_5
REMARK    4  A    between atoms: C_6  and  C_7
REMARK    5  A    between atoms: N_9  and  C_10
REMARK    6  A    between atoms: C_10  and  C_11
REMARK    7  A    between atoms: C_11  and  N_12
REMARK    8  A    between atoms: C_11  and  C_21
REMARK    9  A    between atoms: C_13  and  CA_15
REMARK   10  A    between atoms: CA_15  and  N_16
REMARK   11  A    between atoms: CA_15  and  CB_17
REMARK   12  A    between atoms: CB_17  and  CG_18
REMARK   13  A    between atoms: CG_18  and  SD_19
REMARK   14  A    between atoms: SD_19  and  CE_20
REMARK   15  A    between atoms: C_21  and  O_23
REMARK                            x       y       z     vdW  Elec       q    Type
REMARK                         _______ _______ _______ _____ _____    ______ ____
ROOT
ATOM      1  C   UNK A   2       6.685   5.135  18.054  0.00  0.00    +0.000 C 
ENDROOT
BRANCH   1   2
ATOM      2  N   UNK A   2       5.833   4.472  19.033  0.00  0.00    +0.000 N 
ATOM      3  C   MET A   1       4.858   3.576  18.659  0.00  0.00    +0.000 C 
ATOM      4  O   MET A   1       4.741   3.173  17.506  0.00  0.00    +0.000 OA
ATOM      5  H   UNK A   2       5.546   5.014  19.847  0.00  0.00    +0.000 HD
BRANCH   3   6
ATOM      6  CA  MET A   1       3.956   3.134  19.849  0.00  0.00    +0.000 C 
BRANCH   6   7
ATOM      7  N   MET A   1       4.617   2.005  20.568  0.00  0.00    +0.000 NA
ATOM      8  H1  MET A   1       4.302   2.022  21.540  0.00  0.00    +0.000 HD
ATOM      9  H2  MET A   1       5.622   2.184  20.599  0.00  0.00    +0.000 HD
ENDBRANCH   6   7
BRANCH   6  10
ATOM     10  CB  MET A   1       2.559   2.740  19.337  0.00  0.00    +0.000 C 
BRANCH  10  11
ATOM     11  CG  MET A   1       1.432   3.736  19.637  0.00  0.00    +0.000 C 
BRANCH  11  12
ATOM     12  SD  MET A   1       1.987   5.111  20.696  0.00  0.00    +0.000 S 
ATOM     13  CE  MET A   1       2.398   6.316  19.410  0.00  0.00    +0.000 C 
ENDBRANCH  11  12
ENDBRANCH  10  11
ENDBRANCH   6  10
ENDBRANCH   3   6
ENDBRANCH   1   2
BRANCH   1  14
ATOM     14  C   UNK A   2       7.722   6.025  18.749  0.00  0.00    +0.000 C 
ATOM     15  O   UNK A   2       8.043   7.143  18.365  0.00  0.00    +0.000 OA
BRANCH  14  16
ATOM     16  O   UNK A   2       8.225   5.490  19.887  0.00  0.00    +0.000 OA
ATOM     17  H   UNK A   2       8.117   6.099  20.653  0.00  0.00    +0.000 HD
ENDBRANCH  14  16
ENDBRANCH   1  14
BRANCH   1  18
ATOM     18  C   UNK A   2       5.843   6.056  17.155  0.00  0.00    +0.000 C 
BRANCH  18  21
ATOM     19  C   UNK A   2       6.212   5.136  14.898  0.00  0.00    +0.000 C 
ATOM     20  O   UNK A   2       7.421   5.314  14.933  0.00  0.00    +0.000 OA
ATOM     21  N   UNK A   2       5.362   5.405  15.939  0.00  0.00    +0.000 N 
ATOM     22  H   UNK A   2       4.367   5.269  15.835  0.00  0.00    +0.000 HD
BRANCH  19  24
ATOM     23  C   UNK A   2       5.962   3.496  13.113  0.00  0.00    +0.000 C 
ATOM     24  C   UNK A   2       5.510   4.604  13.714  0.00  0.00    +0.000 C 
BRANCH  23  25
ATOM     25  C   UNK A   2       5.257   3.007  11.912  0.00  0.00    +0.000 C 
ATOM     26  O   UNK A   2       4.316   3.574  11.388  0.00  0.00    +0.000 OA
BRANCH  25  28
ATOM     27  C   UNK A   2       7.210   1.998  11.154  0.00  0.00    +0.000 C 
ATOM     28  O   UNK A   2       5.835   1.850  11.517  0.00  0.00    +0.000 OA
ENDBRANCH  25  28
ENDBRANCH  23  25
ENDBRANCH  19  24
ENDBRANCH  18  21
ENDBRANCH   1  18
TORSDOF 13
ENDMDL
MODEL 8
REMARK VINA RESULT:      -6.1      3.431      6.794
REMARK  Name = 
REMARK  15 active torsions:
REMARK  status: ('A' for Active; 'I' for Inactive)
REMARK    1  A    between atoms: C_1  and  O_2
REMARK    2  A    between atoms: O_2  and  C_3
REMARK    3  A    between atoms: C_3  and  C_5
REMARK    4  A    between atoms: C_6  and  C_7
REMARK    5  A    between atoms: N_9  and  C_10
REMARK    6  A    between atoms: C_10  and  C_11
REMARK    7  A    between atoms: C_11  and  N_12
REMARK    8  A    between atoms: C_11  and  C_21
REMARK    9  A    between atoms: C_13  and  CA_15
REMARK   10  A    between atoms: CA_15  and  N_16
REMARK   11  A    between atoms: CA_15  and  CB_17
REMARK   12  A    between atoms: CB_17  and  CG_18
REMARK   13  A    between atoms: CG_18  and  SD_19
REMARK   14  A    between atoms: SD_19  and  CE_20
REMARK   15  A    between atoms: C_21  and  O_23
REMARK                            x       y       z     vdW  Elec       q    Type
REMARK                         _______ _______ _______ _____ _____    ______ ____
ROOT
ATOM      1  C   UNK A   2       6.649   5.551  17.857  0.00  0.00    +0.000 C 
ENDROOT
BRANCH   1   2
ATOM      2  N   UNK A   2       5.888   4.488  18.502  0.00  0.00    +0.000 N 
ATOM      3  C   MET A   1       4.589   4.206  18.145  0.00  0.00    +0.000 C 
ATOM      4  O   MET A   1       4.045   4.727  17.176  0.00  0.00    +0.000 OA
ATOM      5  H   UNK A   2       6.038   4.343  19.499  0.00  0.00    +0.000 HD
BRANCH   3   6
ATOM      6  CA  MET A   1       3.918   3.161  19.084  0.00  0.00    +0.000 C 
BRANCH   6   7
ATOM      7  N   MET A   1       4.973   2.274  19.657  0.00  0.00    +0.000 NA
ATOM      8  H1  MET A   1       4.528   1.399  19.941  0.00  0.00    +0.000 HD
ATOM      9  H2  MET A   1       5.324   2.699  20.516  0.00  0.00    +0.000 HD
ENDBRANCH   6   7
BRANCH   6  10
ATOM     10  CB  MET A   1       2.859   2.356  18.310  0.00  0.00    +0.000 C 
BRANCH  10  11
ATOM     11  CG  MET A   1       1.563   2.053  19.072  0.00  0.00    +0.000 C 
BRANCH  11  12
ATOM     12  SD  MET A   1       1.041   3.440  20.132  0.00  0.00    +0.000 S 
ATOM     13  CE  MET A   1       1.411   2.720  21.751  0.00  0.00    +0.000 C 
ENDBRANCH  11  12
ENDBRANCH  10  11
ENDBRANCH   6  10
ENDBRANCH   3   6
ENDBRANCH   1   2
BRANCH   1  14
ATOM     14  C   UNK A   2       6.894   5.225  16.379  0.00  0.00    +0.000 C 
ATOM     15  O   UNK A   2       7.622   4.325  15.980  0.00  0.00    +0.000 OA
BRANCH  14  16
ATOM     16  O   UNK A   2       6.174   5.992  15.525  0.00  0.00    +0.000 OA
ATOM     17  H   UNK A   2       6.623   6.847  15.339  0.00  0.00    +0.000 HD
ENDBRANCH  14  16
ENDBRANCH   1  14
BRANCH   1  18
ATOM     18  C   UNK A   2       8.033   5.687  18.515  0.00  0.00    +0.000 C 
BRANCH  18  21
ATOM     19  C   UNK A   2       8.262   8.122  18.205  0.00  0.00    +0.000 C 
ATOM     20  O   UNK A   2       7.901   8.090  17.037  0.00  0.00    +0.000 OA
ATOM     21  N   UNK A   2       8.307   7.027  19.028  0.00  0.00    +0.000 N 
ATOM     22  H   UNK A   2       8.649   7.112  19.974  0.00  0.00    +0.000 HD
BRANCH  19  24
ATOM     23  C   UNK A   2       9.062  10.423  18.151  0.00  0.00    +0.000 C 
ATOM     24  C   UNK A   2       8.702   9.358  18.880  0.00  0.00    +0.000 C 
BRANCH  23  25
ATOM     25  C   UNK A   2       9.527  11.633  18.856  0.00  0.00    +0.000 C 
ATOM     26  O   UNK A   2       8.927  12.691  18.878  0.00  0.00    +0.000 OA
BRANCH  25  28
ATOM     27  C   UNK A   2      11.317  12.490  20.069  0.00  0.00    +0.000 C 
ATOM     28  O   UNK A   2      10.708  11.353  19.454  0.00  0.00    +0.000 OA
ENDBRANCH  25  28
ENDBRANCH  23  25
ENDBRANCH  19  24
ENDBRANCH  18  21
ENDBRANCH   1  18
TORSDOF 13
ENDMDL
MODEL 9
REMARK VINA RESULT:      -6.1      3.368      6.623
REMARK  Name = 
REMARK  15 active torsions:
REMARK  status: ('A' for Active; 'I' for Inactive)
REMARK    1  A    between atoms: C_1  and  O_2
REMARK    2  A    between atoms: O_2  and  C_3
REMARK    3  A    between atoms: C_3  and  C_5
REMARK    4  A    between atoms: C_6  and  C_7
REMARK    5  A    between atoms: N_9  and  C_10
REMARK    6  A    between atoms: C_10  and  C_11
REMARK    7  A    between atoms: C_11  and  N_12
REMARK    8  A    between atoms: C_11  and  C_21
REMARK    9  A    between atoms: C_13  and  CA_15
REMARK   10  A    between atoms: CA_15  and  N_16
REMARK   11  A    between atoms: CA_15  and  CB_17
REMARK   12  A    between atoms: CB_17  and  CG_18
REMARK   13  A    between atoms: CG_18  and  SD_19
REMARK   14  A    between atoms: SD_19  and  CE_20
REMARK   15  A    between atoms: C_21  and  O_23
REMARK                            x       y       z     vdW  Elec       q    Type
REMARK                         _______ _______ _______ _____ _____    ______ ____
ROOT
ATOM      1  C   UNK A   2       5.879   5.923  16.195  0.00  0.00    +0.000 C 
ENDROOT
BRANCH   1   2
ATOM      2  N   UNK A   2       4.689   5.507  16.925  0.00  0.00    +0.000 N 
ATOM      3  C   MET A   1       3.874   6.416  17.563  0.00  0.00    +0.000 C 
ATOM      4  O   MET A   1       4.015   7.628  17.438  0.00  0.00    +0.000 OA
ATOM      5  H   UNK A   2       4.736   4.628  17.438  0.00  0.00    +0.000 HD
BRANCH   3   6
ATOM      6  CA  MET A   1       2.770   5.735  18.426  0.00  0.00    +0.000 C 
BRANCH   6   7
ATOM      7  N   MET A   1       3.223   5.689  19.847  0.00  0.00    +0.000 NA
ATOM      8  H1  MET A   1       2.971   6.576  20.287  0.00  0.00    +0.000 HD
ATOM      9  H2  MET A   1       4.244   5.653  19.862  0.00  0.00    +0.000 HD
ENDBRANCH   6   7
BRANCH   6  10
ATOM     10  CB  MET A   1       2.466   4.328  17.881  0.00  0.00    +0.000 C 
BRANCH  10  11
ATOM     11  CG  MET A   1       1.312   3.582  18.563  0.00  0.00    +0.000 C 
BRANCH  11  12
ATOM     12  SD  MET A   1       1.896   2.206  19.604  0.00  0.00    +0.000 S 
ATOM     13  CE  MET A   1       1.346   2.812  21.218  0.00  0.00    +0.000 C 
ENDBRANCH  11  12
ENDBRANCH  10  11
ENDBRANCH   6  10
ENDBRANCH   3   6
ENDBRANCH   1   2
BRANCH   1  14
ATOM     14  C   UNK A   2       6.447   4.759  15.373  0.00  0.00    +0.000 C 
ATOM     15  O   UNK A   2       6.007   3.616  15.395  0.00  0.00    +0.000 OA
BRANCH  14  16
ATOM     16  O   UNK A   2       7.462   5.117  14.550  0.00  0.00    +0.000 OA
ATOM     17  H   UNK A   2       7.323   6.015  14.173  0.00  0.00    +0.000 HD
ENDBRANCH  14  16
ENDBRANCH   1  14
BRANCH   1  18
ATOM     18  C   UNK A   2       6.982   6.350  17.178  0.00  0.00    +0.000 C 
BRANCH  18  21
ATOM     19  C   UNK A   2       8.128   8.361  18.026  0.00  0.00    +0.000 C 
ATOM     20  O   UNK A   2       8.672   7.765  18.944  0.00  0.00    +0.000 OA
ATOM     21  N   UNK A   2       7.337   7.764  17.079  0.00  0.00    +0.000 N 
ATOM     22  H   UNK A   2       6.886   8.318  16.366  0.00  0.00    +0.000 HD
BRANCH  19  24
ATOM     23  C   UNK A   2       9.190  10.504  18.494  0.00  0.00    +0.000 C 
ATOM     24  C   UNK A   2       8.256   9.817  17.822  0.00  0.00    +0.000 C 
BRANCH  23  25
ATOM     25  C   UNK A   2       9.271  11.964  18.291  0.00  0.00    +0.000 C 
ATOM     26  O   UNK A   2       8.570  12.593  17.521  0.00  0.00    +0.000 OA
BRANCH  25  28
ATOM     27  C   UNK A   2      11.388  11.607  19.187  0.00  0.00    +0.000 C 
ATOM     28  O   UNK A   2      10.240  12.454  19.099  0.00  0.00    +0.000 OA
ENDBRANCH  25  28
ENDBRANCH  23  25
ENDBRANCH  19  24
ENDBRANCH  18  21
ENDBRANCH   1  18
TORSDOF 13
ENDMDL
