MODEL 1
REMARK VINA RESULT:      -8.0      0.000      0.000
REMARK  Name = 
REMARK  6 active torsions:
REMARK  status: ('A' for Active; 'I' for Inactive)
REMARK    1  A    between atoms: C_2  and  C_4
REMARK    2  A    between atoms: C_4  and  N_5
REMARK    3  A    between atoms: N_5  and  C_6
REMARK    4  A    between atoms: C_13  and  O_14
REMARK    5  A    between atoms: O_14  and  C_15
REMARK    6  A    between atoms: C_15  and  C_16
REMARK                            x       y       z     vdW  Elec       q    Type
REMARK                         _______ _______ _______ _____ _____    ______ ____
ROOT
ATOM      1  C   UNL     1       0.987  10.330  19.546  0.00  0.00    +0.000 A 
ATOM      2  C   UNL     1       0.650  10.677  20.794  0.00  0.00    +0.000 A 
ATOM      3  C   UNL     1       0.709   9.756  21.937  0.00  0.00    +0.000 A 
ATOM      4  O   UNL     1       0.321  10.116  23.044  0.00  0.00    +0.000 OA
ATOM      5  O   UNL     1       1.226   8.494  21.707  0.00  0.00    +0.000 OA
ATOM      6  C   UNL     1       1.598   8.094  20.410  0.00  0.00    +0.000 A 
ATOM      7  C   UNL     1       2.083   6.790  20.272  0.00  0.00    +0.000 A 
ATOM      8  C   UNL     1       2.425   6.318  19.006  0.00  0.00    +0.000 A 
ATOM      9  C   UNL     1       2.332   7.176  17.909  0.00  0.00    +0.000 A 
ATOM     10  C   UNL     1       1.855   8.480  18.066  0.00  0.00    +0.000 A 
ATOM     11  C   UNL     1       1.474   8.958  19.324  0.00  0.00    +0.000 A 
ENDROOT
BRANCH   1  12
ATOM     12  N   UNL     1       0.969  11.210  18.464  0.00  0.00    +0.000 N 
ATOM     13  H   UNL     1       1.706  10.956  17.804  0.00  0.00    +0.000 HD
BRANCH  12  14
ATOM     14  C   UNL     1       1.112  12.672  18.710  0.00  0.00    +0.000 C 
BRANCH  14  16
ATOM     15  N   UNL     1      -1.039  12.772  17.540  0.00  0.00    +0.000 N 
ATOM     16  C   UNL     1      -0.197  13.410  18.406  0.00  0.00    +0.000 C 
ATOM     17  O   UNL     1      -0.486  14.499  18.891  0.00  0.00    +0.000 OA
ATOM     18  H   UNL     1      -1.957  13.164  17.380  0.00  0.00    +0.000 HD
ATOM     19  H   UNL     1      -0.860  11.796  17.327  0.00  0.00    +0.000 HD
ENDBRANCH  14  16
ENDBRANCH  12  14
ENDBRANCH   1  12
BRANCH   8  20
ATOM     20  O   UNL     1       2.837   5.014  18.949  0.00  0.00    +0.000 OA
BRANCH  20  21
ATOM     21  C   UNL     1       4.056   4.736  19.644  0.00  0.00    +0.000 C 
BRANCH  21  22
ATOM     22  C   UNL     1       5.223   4.828  18.694  0.00  0.00    +0.000 A 
ATOM     23  C   UNL     1       6.457   5.326  19.138  0.00  0.00    +0.000 A 
ATOM     24  C   UNL     1       7.561   5.350  18.286  0.00  0.00    +0.000 A 
ATOM     25  C   UNL     1       7.444   4.872  16.982  0.00  0.00    +0.000 A 
ATOM     26  C   UNL     1       6.222   4.375  16.535  0.00  0.00    +0.000 A 
ATOM     27 CL   UNL     1       6.082   3.768  14.930  0.00  0.00    +0.000 Cl
ATOM     28  C   UNL     1       5.114   4.347  17.381  0.00  0.00    +0.000 A 
ENDBRANCH  21  22
ENDBRANCH  20  21
ENDBRANCH   8  20
TORSDOF 6
ENDMDL
MODEL 2
REMARK VINA RESULT:      -7.9      4.356      8.498
REMARK  Name = 
REMARK  6 active torsions:
REMARK  status: ('A' for Active; 'I' for Inactive)
REMARK    1  A    between atoms: C_2  and  C_4
REMARK    2  A    between atoms: C_4  and  N_5
REMARK    3  A    between atoms: N_5  and  C_6
REMARK    4  A    between atoms: C_13  and  O_14
REMARK    5  A    between atoms: O_14  and  C_15
REMARK    6  A    between atoms: C_15  and  C_16
REMARK                            x       y       z     vdW  Elec       q    Type
REMARK                         _______ _______ _______ _____ _____    ______ ____
ROOT
ATOM      1  C   UNL     1       4.322   4.388  16.927  0.00  0.00    +0.000 A 
ATOM      2  C   UNL     1       4.319   3.094  17.273  0.00  0.00    +0.000 A 
ATOM      3  C   UNL     1       3.688   2.584  18.498  0.00  0.00    +0.000 A 
ATOM      4  O   UNL     1       3.779   1.397  18.794  0.00  0.00    +0.000 OA
ATOM      5  O   UNL     1       2.991   3.490  19.277  0.00  0.00    +0.000 OA
ATOM      6  C   UNL     1       2.965   4.857  18.941  0.00  0.00    +0.000 A 
ATOM      7  C   UNL     1       2.258   5.700  19.803  0.00  0.00    +0.000 A 
ATOM      8  C   UNL     1       2.233   7.070  19.552  0.00  0.00    +0.000 A 
ATOM      9  C   UNL     1       2.866   7.568  18.411  0.00  0.00    +0.000 A 
ATOM     10  C   UNL     1       3.560   6.709  17.554  0.00  0.00    +0.000 A 
ATOM     11  C   UNL     1       3.625   5.336  17.810  0.00  0.00    +0.000 A 
ENDROOT
BRANCH   1  12
ATOM     12  N   UNL     1       4.887   4.873  15.748  0.00  0.00    +0.000 N 
ATOM     13  H   UNL     1       4.322   4.575  14.950  0.00  0.00    +0.000 HD
BRANCH  12  14
ATOM     14  C   UNL     1       6.297   4.524  15.416  0.00  0.00    +0.000 C 
BRANCH  14  16
ATOM     15  N   UNL     1       7.904   4.327  17.255  0.00  0.00    +0.000 N 
ATOM     16  C   UNL     1       7.271   5.183  16.398  0.00  0.00    +0.000 C 
ATOM     17  O   UNL     1       7.481   6.391  16.433  0.00  0.00    +0.000 OA
ATOM     18  H   UNL     1       8.628   4.693  17.857  0.00  0.00    +0.000 HD
ATOM     19  H   UNL     1       7.861   3.332  17.060  0.00  0.00    +0.000 HD
ENDBRANCH  14  16
ENDBRANCH  12  14
ENDBRANCH   1  12
BRANCH   8  20
ATOM     20  O   UNL     1       1.568   7.832  20.474  0.00  0.00    +0.000 OA
BRANCH  20  21
ATOM     21  C   UNL     1       1.218   9.146  20.031  0.00  0.00    +0.000 C 
BRANCH  21  22
ATOM     22  C   UNL     1       0.312   9.805  21.040  0.00  0.00    +0.000 A 
ATOM     23  C   UNL     1       0.262   9.331  22.360  0.00  0.00    +0.000 A 
ATOM     24  C   UNL     1      -0.520   9.977  23.317  0.00  0.00    +0.000 A 
ATOM     25  C   UNL     1      -1.256  11.108  22.966  0.00  0.00    +0.000 A 
ATOM     26  C   UNL     1      -1.209  11.585  21.658  0.00  0.00    +0.000 A 
ATOM     27 CL   UNL     1      -2.104  12.993  21.230  0.00  0.00    +0.000 Cl
ATOM     28  C   UNL     1      -0.429  10.944  20.696  0.00  0.00    +0.000 A 
ENDBRANCH  21  22
ENDBRANCH  20  21
ENDBRANCH   8  20
TORSDOF 6
ENDMDL
MODEL 3
REMARK VINA RESULT:      -7.9      4.325      8.497
REMARK  Name = 
REMARK  6 active torsions:
REMARK  status: ('A' for Active; 'I' for Inactive)
REMARK    1  A    between atoms: C_2  and  C_4
REMARK    2  A    between atoms: C_4  and  N_5
REMARK    3  A    between atoms: N_5  and  C_6
REMARK    4  A    between atoms: C_13  and  O_14
REMARK    5  A    between atoms: O_14  and  C_15
REMARK    6  A    between atoms: C_15  and  C_16
REMARK                            x       y       z     vdW  Elec       q    Type
REMARK                         _______ _______ _______ _____ _____    ______ ____
ROOT
ATOM      1  C   UNL     1       4.282   5.119  17.568  0.00  0.00    +0.000 A 
ATOM      2  C   UNL     1       4.424   3.982  18.260  0.00  0.00    +0.000 A 
ATOM      3  C   UNL     1       3.831   3.759  19.585  0.00  0.00    +0.000 A 
ATOM      4  O   UNL     1       4.056   2.720  20.198  0.00  0.00    +0.000 OA
ATOM      5  O   UNL     1       3.015   4.755  20.090  0.00  0.00    +0.000 OA
ATOM      6  C   UNL     1       2.835   5.962  19.389  0.00  0.00    +0.000 A 
ATOM      7  C   UNL     1       2.015   6.920  19.992  0.00  0.00    +0.000 A 
ATOM      8  C   UNL     1       1.834   8.154  19.370  0.00  0.00    +0.000 A 
ATOM      9  C   UNL     1       2.428   8.388  18.129  0.00  0.00    +0.000 A 
ATOM     10  C   UNL     1       3.237   7.415  17.535  0.00  0.00    +0.000 A 
ATOM     11  C   UNL     1       3.458   6.185  18.162  0.00  0.00    +0.000 A 
ENDROOT
BRANCH   1  12
ATOM     12  N   UNL     1       4.812   5.323  16.294  0.00  0.00    +0.000 N 
ATOM     13  H   UNL     1       4.052   5.489  15.631  0.00  0.00    +0.000 HD
BRANCH  12  14
ATOM     14  C   UNL     1       5.676   4.273  15.686  0.00  0.00    +0.000 C 
BRANCH  14  16
ATOM     15  N   UNL     1       7.814   4.328  16.881  0.00  0.00    +0.000 N 
ATOM     16  C   UNL     1       7.153   4.680  15.739  0.00  0.00    +0.000 C 
ATOM     17  O   UNL     1       7.721   5.282  14.834  0.00  0.00    +0.000 OA
ATOM     18  H   UNL     1       8.811   4.482  16.931  0.00  0.00    +0.000 HD
ATOM     19  H   UNL     1       7.373   3.660  17.506  0.00  0.00    +0.000 HD
ENDBRANCH  14  16
ENDBRANCH  12  14
ENDBRANCH   1  12
BRANCH   8  20
ATOM     20  O   UNL     1       1.063   9.056  20.052  0.00  0.00    +0.000 OA
BRANCH  20  21
ATOM     21  C   UNL     1       1.022  10.367  19.483  0.00  0.00    +0.000 C 
BRANCH  21  22
ATOM     22  C   UNL     1      -0.368  10.666  18.981  0.00  0.00    +0.000 A 
ATOM     23  C   UNL     1      -0.874   9.995  17.857  0.00  0.00    +0.000 A 
ATOM     24  C   UNL     1      -2.183  10.214  17.428  0.00  0.00    +0.000 A 
ATOM     25  C   UNL     1      -3.002  11.104  18.122  0.00  0.00    +0.000 A 
ATOM     26  C   UNL     1      -2.508  11.772  19.239  0.00  0.00    +0.000 A 
ATOM     27 CL   UNL     1      -3.526  12.856  20.106  0.00  0.00    +0.000 Cl
ATOM     28  C   UNL     1      -1.200  11.557  19.674  0.00  0.00    +0.000 A 
ENDBRANCH  21  22
ENDBRANCH  20  21
ENDBRANCH   8  20
TORSDOF 6
ENDMDL
MODEL 4
REMARK VINA RESULT:      -7.9      2.808      3.472
REMARK  Name = 
REMARK  6 active torsions:
REMARK  status: ('A' for Active; 'I' for Inactive)
REMARK    1  A    between atoms: C_2  and  C_4
REMARK    2  A    between atoms: C_4  and  N_5
REMARK    3  A    between atoms: N_5  and  C_6
REMARK    4  A    between atoms: C_13  and  O_14
REMARK    5  A    between atoms: O_14  and  C_15
REMARK    6  A    between atoms: C_15  and  C_16
REMARK                            x       y       z     vdW  Elec       q    Type
REMARK                         _______ _______ _______ _____ _____    ______ ____
ROOT
ATOM      1  C   UNL     1       0.091  11.052  20.500  0.00  0.00    +0.000 A 
ATOM      2  C   UNL     1      -0.052  10.903  21.823  0.00  0.00    +0.000 A 
ATOM      3  C   UNL     1       0.428   9.730  22.565  0.00  0.00    +0.000 A 
ATOM      4  O   UNL     1       0.205   9.622  23.766  0.00  0.00    +0.000 OA
ATOM      5  O   UNL     1       1.140   8.780  21.855  0.00  0.00    +0.000 OA
ATOM      6  C   UNL     1       1.318   8.904  20.464  0.00  0.00    +0.000 A 
ATOM      7  C   UNL     1       2.027   7.880  19.830  0.00  0.00    +0.000 A 
ATOM      8  C   UNL     1       2.198   7.921  18.447  0.00  0.00    +0.000 A 
ATOM      9  C   UNL     1       1.707   9.014  17.730  0.00  0.00    +0.000 A 
ATOM     10  C   UNL     1       1.009  10.035  18.382  0.00  0.00    +0.000 A 
ATOM     11  C   UNL     1       0.798   9.992  19.764  0.00  0.00    +0.000 A 
ENDROOT
BRANCH   1  12
ATOM     12  N   UNL     1      -0.330  12.180  19.796  0.00  0.00    +0.000 N 
ATOM     13  H   UNL     1      -0.005  13.022  20.275  0.00  0.00    +0.000 HD
BRANCH  12  14
ATOM     14  C   UNL     1      -1.784  12.379  19.538  0.00  0.00    +0.000 C 
BRANCH  14  16
ATOM     15  N   UNL     1      -1.674  12.177  17.098  0.00  0.00    +0.000 N 
ATOM     16  C   UNL     1      -2.214  11.672  18.248  0.00  0.00    +0.000 C 
ATOM     17  O   UNL     1      -2.990  10.723  18.224  0.00  0.00    +0.000 OA
ATOM     18  H   UNL     1      -1.844  11.690  16.230  0.00  0.00    +0.000 HD
ATOM     19  H   UNL     1      -0.890  12.817  17.176  0.00  0.00    +0.000 HD
ENDBRANCH  14  16
ENDBRANCH  12  14
ENDBRANCH   1  12
BRANCH   8  20
ATOM     20  O   UNL     1       2.853   6.853  17.897  0.00  0.00    +0.000 OA
BRANCH  20  21
ATOM     21  C   UNL     1       3.537   6.017  18.834  0.00  0.00    +0.000 C 
BRANCH  21  22
ATOM     22  C   UNL     1       2.823   4.696  18.962  0.00  0.00    +0.000 A 
ATOM     23  C   UNL     1       2.656   3.871  17.839  0.00  0.00    +0.000 A 
ATOM     24  C   UNL     1       2.059   2.617  17.961  0.00  0.00    +0.000 A 
ATOM     25  C   UNL     1       1.626   2.171  19.210  0.00  0.00    +0.000 A 
ATOM     26  C   UNL     1       1.789   2.984  20.329  0.00  0.00    +0.000 A 
ATOM     27 CL   UNL     1       1.271   2.426  21.873  0.00  0.00    +0.000 Cl
ATOM     28  C   UNL     1       2.386   4.239  20.214  0.00  0.00    +0.000 A 
ENDBRANCH  21  22
ENDBRANCH  20  21
ENDBRANCH   8  20
TORSDOF 6
ENDMDL
MODEL 5
REMARK VINA RESULT:      -7.9      2.011      2.321
REMARK  Name = 
REMARK  6 active torsions:
REMARK  status: ('A' for Active; 'I' for Inactive)
REMARK    1  A    between atoms: C_2  and  C_4
REMARK    2  A    between atoms: C_4  and  N_5
REMARK    3  A    between atoms: N_5  and  C_6
REMARK    4  A    between atoms: C_13  and  O_14
REMARK    5  A    between atoms: O_14  and  C_15
REMARK    6  A    between atoms: C_15  and  C_16
REMARK                            x       y       z     vdW  Elec       q    Type
REMARK                         _______ _______ _______ _____ _____    ______ ____
ROOT
ATOM      1  C   UNL     1      -0.103  10.989  19.562  0.00  0.00    +0.000 A 
ATOM      2  C   UNL     1      -0.450  11.362  20.800  0.00  0.00    +0.000 A 
ATOM      3  C   UNL     1      -0.104  10.597  22.006  0.00  0.00    +0.000 A 
ATOM      4  O   UNL     1      -0.511  10.956  23.105  0.00  0.00    +0.000 OA
ATOM      5  O   UNL     1       0.697   9.481  21.839  0.00  0.00    +0.000 OA
ATOM      6  C   UNL     1       1.088   9.061  20.555  0.00  0.00    +0.000 A 
ATOM      7  C   UNL     1       1.873   7.907  20.486  0.00  0.00    +0.000 A 
ATOM      8  C   UNL     1       2.255   7.413  19.240  0.00  0.00    +0.000 A 
ATOM      9  C   UNL     1       1.895   8.113  18.087  0.00  0.00    +0.000 A 
ATOM     10  C   UNL     1       1.118   9.271  18.175  0.00  0.00    +0.000 A 
ATOM     11  C   UNL     1       0.696   9.761  19.415  0.00  0.00    +0.000 A 
ENDROOT
BRANCH   1  12
ATOM     12  N   UNL     1      -0.396  11.730  18.418  0.00  0.00    +0.000 N 
ATOM     13  H   UNL     1       0.019  12.660  18.497  0.00  0.00    +0.000 HD
BRANCH  12  14
ATOM     14  C   UNL     1      -1.819  11.938  18.027  0.00  0.00    +0.000 C 
BRANCH  14  16
ATOM     15  N   UNL     1      -2.638  11.417  15.777  0.00  0.00    +0.000 N 
ATOM     16  C   UNL     1      -2.260  10.903  16.986  0.00  0.00    +0.000 C 
ATOM     17  O   UNL     1      -2.283   9.696  17.201  0.00  0.00    +0.000 OA
ATOM     18  H   UNL     1      -2.843  10.777  15.023  0.00  0.00    +0.000 HD
ATOM     19  H   UNL     1      -2.410  12.385  15.574  0.00  0.00    +0.000 HD
ENDBRANCH  14  16
ENDBRANCH  12  14
ENDBRANCH   1  12
BRANCH   8  20
ATOM     20  O   UNL     1       2.975   6.249  19.257  0.00  0.00    +0.000 OA
BRANCH  20  21
ATOM     21  C   UNL     1       2.865   5.455  18.072  0.00  0.00    +0.000 C 
BRANCH  21  22
ATOM     22  C   UNL     1       4.226   5.268  17.451  0.00  0.00    +0.000 A 
ATOM     23  C   UNL     1       4.474   4.174  16.609  0.00  0.00    +0.000 A 
ATOM     24  C   UNL     1       5.708   4.030  15.974  0.00  0.00    +0.000 A 
ATOM     25  C   UNL     1       6.706   4.984  16.171  0.00  0.00    +0.000 A 
ATOM     26  C   UNL     1       6.467   6.074  17.005  0.00  0.00    +0.000 A 
ATOM     27 CL   UNL     1       7.693   7.261  17.233  0.00  0.00    +0.000 Cl
ATOM     28  C   UNL     1       5.235   6.223  17.642  0.00  0.00    +0.000 A 
ENDBRANCH  21  22
ENDBRANCH  20  21
ENDBRANCH   8  20
TORSDOF 6
ENDMDL
MODEL 6
REMARK VINA RESULT:      -7.9      4.055      8.313
REMARK  Name = 
REMARK  6 active torsions:
REMARK  status: ('A' for Active; 'I' for Inactive)
REMARK    1  A    between atoms: C_2  and  C_4
REMARK    2  A    between atoms: C_4  and  N_5
REMARK    3  A    between atoms: N_5  and  C_6
REMARK    4  A    between atoms: C_13  and  O_14
REMARK    5  A    between atoms: O_14  and  C_15
REMARK    6  A    between atoms: C_15  and  C_16
REMARK                            x       y       z     vdW  Elec       q    Type
REMARK                         _______ _______ _______ _____ _____    ______ ____
ROOT
ATOM      1  C   UNL     1       4.785   5.227  17.372  0.00  0.00    +0.000 A 
ATOM      2  C   UNL     1       5.031   4.107  18.062  0.00  0.00    +0.000 A 
ATOM      3  C   UNL     1       4.448   3.821  19.381  0.00  0.00    +0.000 A 
ATOM      4  O   UNL     1       4.767   2.807  19.993  0.00  0.00    +0.000 OA
ATOM      5  O   UNL     1       3.531   4.730  19.878  0.00  0.00    +0.000 OA
ATOM      6  C   UNL     1       3.242   5.916  19.179  0.00  0.00    +0.000 A 
ATOM      7  C   UNL     1       2.324   6.786  19.774  0.00  0.00    +0.000 A 
ATOM      8  C   UNL     1       2.029   7.999  19.154  0.00  0.00    +0.000 A 
ATOM      9  C   UNL     1       2.611   8.295  17.920  0.00  0.00    +0.000 A 
ATOM     10  C   UNL     1       3.519   7.409  17.333  0.00  0.00    +0.000 A 
ATOM     11  C   UNL     1       3.853   6.204  17.959  0.00  0.00    +0.000 A 
ENDROOT
BRANCH   1  12
ATOM     12  N   UNL     1       5.306   5.487  16.105  0.00  0.00    +0.000 N 
ATOM     13  H   UNL     1       4.793   6.261  15.677  0.00  0.00    +0.000 HD
BRANCH  12  14
ATOM     14  C   UNL     1       5.339   4.396  15.091  0.00  0.00    +0.000 C 
BRANCH  14  16
ATOM     15  N   UNL     1       6.618   3.663  13.134  0.00  0.00    +0.000 N 
ATOM     16  C   UNL     1       6.591   4.499  14.214  0.00  0.00    +0.000 C 
ATOM     17  O   UNL     1       7.518   5.267  14.448  0.00  0.00    +0.000 OA
ATOM     18  H   UNL     1       7.371   3.756  12.467  0.00  0.00    +0.000 HD
ATOM     19  H   UNL     1       5.756   3.200  12.863  0.00  0.00    +0.000 HD
ENDBRANCH  14  16
ENDBRANCH  12  14
ENDBRANCH   1  12
BRANCH   8  20
ATOM     20  O   UNL     1       1.165   8.818  19.829  0.00  0.00    +0.000 OA
BRANCH  20  21
ATOM     21  C   UNL     1       1.122  10.168  19.360  0.00  0.00    +0.000 C 
BRANCH  21  22
ATOM     22  C   UNL     1      -0.281  10.520  18.935  0.00  0.00    +0.000 A 
ATOM     23  C   UNL     1      -1.029  11.453  19.668  0.00  0.00    +0.000 A 
ATOM     24  C   UNL     1      -2.300  11.837  19.243  0.00  0.00    +0.000 A 
ATOM     25  C   UNL     1      -2.836  11.295  18.076  0.00  0.00    +0.000 A 
ATOM     26  C   UNL     1      -2.099  10.370  17.341  0.00  0.00    +0.000 A 
ATOM     27 CL   UNL     1      -2.754   9.715  15.890  0.00  0.00    +0.000 Cl
ATOM     28  C   UNL     1      -0.827   9.982  17.760  0.00  0.00    +0.000 A 
ENDBRANCH  21  22
ENDBRANCH  20  21
ENDBRANCH   8  20
TORSDOF 6
ENDMDL
MODEL 7
REMARK VINA RESULT:      -7.9      1.202      1.463
REMARK  Name = 
REMARK  6 active torsions:
REMARK  status: ('A' for Active; 'I' for Inactive)
REMARK    1  A    between atoms: C_2  and  C_4
REMARK    2  A    between atoms: C_4  and  N_5
REMARK    3  A    between atoms: N_5  and  C_6
REMARK    4  A    between atoms: C_13  and  O_14
REMARK    5  A    between atoms: O_14  and  C_15
REMARK    6  A    between atoms: C_15  and  C_16
REMARK                            x       y       z     vdW  Elec       q    Type
REMARK                         _______ _______ _______ _____ _____    ______ ____
ROOT
ATOM      1  C   UNL     1       0.256  10.856  19.582  0.00  0.00    +0.000 A 
ATOM      2  C   UNL     1      -0.138  11.186  20.818  0.00  0.00    +0.000 A 
ATOM      3  C   UNL     1       0.084  10.335  21.995  0.00  0.00    +0.000 A 
ATOM      4  O   UNL     1      -0.363  10.663  23.090  0.00  0.00    +0.000 OA
ATOM      5  O   UNL     1       0.816   9.177  21.810  0.00  0.00    +0.000 OA
ATOM      6  C   UNL     1       1.254   8.799  20.527  0.00  0.00    +0.000 A 
ATOM      7  C   UNL     1       1.963   7.598  20.436  0.00  0.00    +0.000 A 
ATOM      8  C   UNL     1       2.384   7.146  19.186  0.00  0.00    +0.000 A 
ATOM      9  C   UNL     1       2.141   7.930  18.057  0.00  0.00    +0.000 A 
ATOM     10  C   UNL     1       1.439   9.134  18.168  0.00  0.00    +0.000 A 
ATOM     11  C   UNL     1       0.978   9.586  19.409  0.00  0.00    +0.000 A 
ENDROOT
BRANCH   1  12
ATOM     12  N   UNL     1       0.082  11.676  18.467  0.00  0.00    +0.000 N 
ATOM     13  H   UNL     1       0.496  11.231  17.647  0.00  0.00    +0.000 HD
BRANCH  12  14
ATOM     14  C   UNL     1       0.607  13.070  18.497  0.00  0.00    +0.000 C 
BRANCH  14  16
ATOM     15  N   UNL     1       2.754  12.476  17.477  0.00  0.00    +0.000 N 
ATOM     16  C   UNL     1       2.139  13.079  18.538  0.00  0.00    +0.000 C 
ATOM     17  O   UNL     1       2.788  13.581  19.450  0.00  0.00    +0.000 OA
ATOM     18  H   UNL     1       3.759  12.538  17.401  0.00  0.00    +0.000 HD
ATOM     19  H   UNL     1       2.196  12.260  16.657  0.00  0.00    +0.000 HD
ENDBRANCH  14  16
ENDBRANCH  12  14
ENDBRANCH   1  12
BRANCH   8  20
ATOM     20  O   UNL     1       3.021   5.935  19.176  0.00  0.00    +0.000 OA
BRANCH  20  21
ATOM     21  C   UNL     1       3.083   5.296  17.898  0.00  0.00    +0.000 C 
BRANCH  21  22
ATOM     22  C   UNL     1       4.521   5.096  17.492  0.00  0.00    +0.000 A 
ATOM     23  C   UNL     1       5.546   5.212  18.443  0.00  0.00    +0.000 A 
ATOM     24  C   UNL     1       6.873   4.960  18.092  0.00  0.00    +0.000 A 
ATOM     25  C   UNL     1       7.187   4.584  16.787  0.00  0.00    +0.000 A 
ATOM     26  C   UNL     1       6.174   4.465  15.838  0.00  0.00    +0.000 A 
ATOM     27 CL   UNL     1       6.561   3.982  14.232  0.00  0.00    +0.000 Cl
ATOM     28  C   UNL     1       4.846   4.715  16.182  0.00  0.00    +0.000 A 
ENDBRANCH  21  22
ENDBRANCH  20  21
ENDBRANCH   8  20
TORSDOF 6
ENDMDL
MODEL 8
REMARK VINA RESULT:      -7.8      1.662      2.062
REMARK  Name = 
REMARK  6 active torsions:
REMARK  status: ('A' for Active; 'I' for Inactive)
REMARK    1  A    between atoms: C_2  and  C_4
REMARK    2  A    between atoms: C_4  and  N_5
REMARK    3  A    between atoms: N_5  and  C_6
REMARK    4  A    between atoms: C_13  and  O_14
REMARK    5  A    between atoms: O_14  and  C_15
REMARK    6  A    between atoms: C_15  and  C_16
REMARK                            x       y       z     vdW  Elec       q    Type
REMARK                         _______ _______ _______ _____ _____    ______ ____
ROOT
ATOM      1  C   UNL     1       0.025  10.925  19.546  0.00  0.00    +0.000 A 
ATOM      2  C   UNL     1      -0.467  11.189  20.763  0.00  0.00    +0.000 A 
ATOM      3  C   UNL     1      -0.290  10.300  21.920  0.00  0.00    +0.000 A 
ATOM      4  O   UNL     1      -0.824  10.565  22.992  0.00  0.00    +0.000 OA
ATOM      5  O   UNL     1       0.501   9.180  21.743  0.00  0.00    +0.000 OA
ATOM      6  C   UNL     1       1.041   8.873  20.481  0.00  0.00    +0.000 A 
ATOM      7  C   UNL     1       1.805   7.705  20.394  0.00  0.00    +0.000 A 
ATOM      8  C   UNL     1       2.330   7.321  19.161  0.00  0.00    +0.000 A 
ATOM      9  C   UNL     1       2.131   8.140  18.048  0.00  0.00    +0.000 A 
ATOM     10  C   UNL     1       1.373   9.310  18.155  0.00  0.00    +0.000 A 
ATOM     11  C   UNL     1       0.810   9.692  19.377  0.00  0.00    +0.000 A 
ENDROOT
BRANCH   1  12
ATOM     12  N   UNL     1      -0.108  11.783  18.454  0.00  0.00    +0.000 N 
ATOM     13  H   UNL     1       0.261  11.328  17.617  0.00  0.00    +0.000 HD
BRANCH  12  14
ATOM     14  C   UNL     1       0.518  13.134  18.507  0.00  0.00    +0.000 C 
BRANCH  14  16
ATOM     15  N   UNL     1       2.672  12.611  17.463  0.00  0.00    +0.000 N 
ATOM     16  C   UNL     1       2.044  13.029  18.602  0.00  0.00    +0.000 C 
ATOM     17  O   UNL     1       2.676  13.293  19.619  0.00  0.00    +0.000 OA
ATOM     18  H   UNL     1       3.682  12.618  17.438  0.00  0.00    +0.000 HD
ATOM     19  H   UNL     1       2.143  12.602  16.598  0.00  0.00    +0.000 HD
ENDBRANCH  14  16
ENDBRANCH  12  14
ENDBRANCH   1  12
BRANCH   8  20
ATOM     20  O   UNL     1       3.017   6.138  19.150  0.00  0.00    +0.000 OA
BRANCH  20  21
ATOM     21  C   UNL     1       2.995   5.439  17.902  0.00  0.00    +0.000 C 
BRANCH  21  22
ATOM     22  C   UNL     1       4.393   5.333  17.348  0.00  0.00    +0.000 A 
ATOM     23  C   UNL     1       4.733   4.279  16.486  0.00  0.00    +0.000 A 
ATOM     24  C   UNL     1       6.003   4.212  15.913  0.00  0.00    +0.000 A 
ATOM     25  C   UNL     1       6.945   5.201  16.192  0.00  0.00    +0.000 A 
ATOM     26  C   UNL     1       6.614   6.250  17.045  0.00  0.00    +0.000 A 
ATOM     27 CL   UNL     1       7.772   7.481  17.375  0.00  0.00    +0.000 Cl
ATOM     28  C   UNL     1       5.346   6.324  17.621  0.00  0.00    +0.000 A 
ENDBRANCH  21  22
ENDBRANCH  20  21
ENDBRANCH   8  20
TORSDOF 6
ENDMDL
MODEL 9
REMARK VINA RESULT:      -7.8      2.788      4.990
REMARK  Name = 
REMARK  6 active torsions:
REMARK  status: ('A' for Active; 'I' for Inactive)
REMARK    1  A    between atoms: C_2  and  C_4
REMARK    2  A    between atoms: C_4  and  N_5
REMARK    3  A    between atoms: N_5  and  C_6
REMARK    4  A    between atoms: C_13  and  O_14
REMARK    5  A    between atoms: O_14  and  C_15
REMARK    6  A    between atoms: C_15  and  C_16
REMARK                            x       y       z     vdW  Elec       q    Type
REMARK                         _______ _______ _______ _____ _____    ______ ____
ROOT
ATOM      1  C   UNL     1       2.306   5.918  20.318  0.00  0.00    +0.000 A 
ATOM      2  C   UNL     1       1.847   5.037  21.216  0.00  0.00    +0.000 A 
ATOM      3  C   UNL     1       2.163   3.602  21.180  0.00  0.00    +0.000 A 
ATOM      4  O   UNL     1       1.655   2.836  21.992  0.00  0.00    +0.000 OA
ATOM      5  O   UNL     1       3.051   3.173  20.210  0.00  0.00    +0.000 OA
ATOM      6  C   UNL     1       3.560   4.071  19.253  0.00  0.00    +0.000 A 
ATOM      7  C   UNL     1       4.430   3.539  18.297  0.00  0.00    +0.000 A 
ATOM      8  C   UNL     1       4.932   4.366  17.294  0.00  0.00    +0.000 A 
ATOM      9  C   UNL     1       4.604   5.723  17.299  0.00  0.00    +0.000 A 
ATOM     10  C   UNL     1       3.741   6.241  18.269  0.00  0.00    +0.000 A 
ATOM     11  C   UNL     1       3.200   5.417  19.262  0.00  0.00    +0.000 A 
ENDROOT
BRANCH   1  12
ATOM     12  N   UNL     1       2.041   7.286  20.369  0.00  0.00    +0.000 N 
ATOM     13  H   UNL     1       2.882   7.786  20.662  0.00  0.00    +0.000 HD
BRANCH  12  14
ATOM     14  C   UNL     1       0.934   7.784  21.235  0.00  0.00    +0.000 C 
BRANCH  14  16
ATOM     15  N   UNL     1       0.937  10.171  20.681  0.00  0.00    +0.000 N 
ATOM     16  C   UNL     1       1.176   9.239  21.652  0.00  0.00    +0.000 C 
ATOM     17  O   UNL     1       1.559   9.566  22.769  0.00  0.00    +0.000 OA
ATOM     18  H   UNL     1       0.985  11.149  20.928  0.00  0.00    +0.000 HD
ATOM     19  H   UNL     1       0.431   9.881  19.850  0.00  0.00    +0.000 HD
ENDBRANCH  14  16
ENDBRANCH  12  14
ENDBRANCH   1  12
BRANCH   8  20
ATOM     20  O   UNL     1       5.730   3.757  16.364  0.00  0.00    +0.000 OA
BRANCH  20  21
ATOM     21  C   UNL     1       6.815   4.555  15.883  0.00  0.00    +0.000 C 
BRANCH  21  22
ATOM     22  C   UNL     1       6.870   4.495  14.378  0.00  0.00    +0.000 A 
ATOM     23  C   UNL     1       7.734   5.342  13.668  0.00  0.00    +0.000 A 
ATOM     24  C   UNL     1       7.843   5.246  12.281  0.00  0.00    +0.000 A 
ATOM     25  C   UNL     1       7.093   4.296  11.589  0.00  0.00    +0.000 A 
ATOM     26  C   UNL     1       6.234   3.450  12.287  0.00  0.00    +0.000 A 
ATOM     27 CL   UNL     1       5.322   2.265  11.434  0.00  0.00    +0.000 Cl
ATOM     28  C   UNL     1       6.121   3.541  13.674  0.00  0.00    +0.000 A 
ENDBRANCH  21  22
ENDBRANCH  20  21
ENDBRANCH   8  20
TORSDOF 6
ENDMDL
