MODEL 1
REMARK VINA RESULT:      -6.5      0.000      0.000
REMARK  Name = 
REMARK  13 active torsions:
REMARK  status: ('A' for Active; 'I' for Inactive)
REMARK    1  A    between atoms: C_1  and  C_2
REMARK    2  A    between atoms: C_2  and  C_3
REMARK    3  A    between atoms: C_3  and  S_4
REMARK    4  A    between atoms: S_4  and  C_5
REMARK    5  A    between atoms: C_7  and  O_8
REMARK    6  A    between atoms: O_8  and  C_9
REMARK    7  A    between atoms: C_10  and  C_11
REMARK    8  A    between atoms: C_11  and  C_12
REMARK    9  A    between atoms: C_12  and  N_13
REMARK   10  A    between atoms: C_12  and  C_14
REMARK   11  A    between atoms: C_14  and  C_15
REMARK   12  A    between atoms: C_17  and  O_18
REMARK   13  A    between atoms: O_18  and  C_19
REMARK                            x       y       z     vdW  Elec       q    Type
REMARK                         _______ _______ _______ _____ _____    ______ ____
ROOT
ATOM      1  C   UNL     1       3.610   5.673  17.986  0.00  0.00    +0.000 A 
ATOM      2  C   UNL     1       4.663   6.572  17.706  0.00  0.00    +0.000 A 
ATOM      3  C   UNL     1       5.743   6.259  16.859  0.00  0.00    +0.000 A 
ATOM      4  C   UNL     1       5.796   5.002  16.256  0.00  0.00    +0.000 A 
ATOM      5  C   UNL     1       4.763   4.094  16.556  0.00  0.00    +0.000 A 
ATOM      6  C   UNL     1       3.689   4.393  17.417  0.00  0.00    +0.000 A 
ENDROOT
BRANCH   3   7
ATOM      7  O   UNL     1       6.729   7.157  16.563  0.00  0.00    +0.000 OA
ATOM      8  C   UNL     1       7.686   7.406  17.593  0.00  0.00    +0.000 C 
ENDBRANCH   3   7
BRANCH   6   9
ATOM      9  O   UNL     1       2.898   3.287  17.557  0.00  0.00    +0.000 OA
ATOM     10  C   UNL     1       3.417   2.051  17.999  0.00  0.00    +0.000 C 
ENDBRANCH   6   9
BRANCH   1  11
ATOM     11  S   UNL     1       2.362   6.217  19.158  0.00  0.00    +0.000 S 
BRANCH  11  12
ATOM     12  C   UNL     1       2.424   4.951  20.490  0.00  0.00    +0.000 C 
BRANCH  12  14
ATOM     13  C   UNL     1       1.416   2.793  21.422  0.00  0.00    +0.000 C 
ATOM     14  C   UNL     1       1.196   4.047  20.586  0.00  0.00    +0.000 C 
ENDBRANCH  12  14
ENDBRANCH  11  12
ENDBRANCH   1  11
BRANCH   4  15
ATOM     15  C   UNL     1       6.824   4.537  15.238  0.00  0.00    +0.000 C 
BRANCH  15  16
ATOM     16  C   UNL     1       6.631   4.814  13.726  0.00  0.00    +0.000 C 
BRANCH  16  17
ATOM     17  N   UNL     1       7.820   5.436  13.128  0.00  0.00    +0.000 NA
ATOM     18  H   UNL     1       8.320   4.748  12.568  0.00  0.00    +0.000 HD
ATOM     19  H   UNL     1       8.458   5.695  13.881  0.00  0.00    +0.000 HD
ENDBRANCH  16  17
BRANCH  16  20
ATOM     20  C   UNL     1       6.323   3.483  13.004  0.00  0.00    +0.000 C 
ATOM     21  C   UNL     1       5.132   3.563  12.057  0.00  0.00    +0.000 C 
ENDBRANCH  16  20
ENDBRANCH  15  16
ENDBRANCH   4  15
TORSDOF 9
ENDMDL
MODEL 2
REMARK VINA RESULT:      -6.3      2.805      6.757
REMARK  Name = 
REMARK  13 active torsions:
REMARK  status: ('A' for Active; 'I' for Inactive)
REMARK    1  A    between atoms: C_1  and  C_2
REMARK    2  A    between atoms: C_2  and  C_3
REMARK    3  A    between atoms: C_3  and  S_4
REMARK    4  A    between atoms: S_4  and  C_5
REMARK    5  A    between atoms: C_7  and  O_8
REMARK    6  A    between atoms: O_8  and  C_9
REMARK    7  A    between atoms: C_10  and  C_11
REMARK    8  A    between atoms: C_11  and  C_12
REMARK    9  A    between atoms: C_12  and  N_13
REMARK   10  A    between atoms: C_12  and  C_14
REMARK   11  A    between atoms: C_14  and  C_15
REMARK   12  A    between atoms: C_17  and  O_18
REMARK   13  A    between atoms: O_18  and  C_19
REMARK                            x       y       z     vdW  Elec       q    Type
REMARK                         _______ _______ _______ _____ _____    ______ ____
ROOT
ATOM      1  C   UNL     1       5.573   5.090  15.852  0.00  0.00    +0.000 A 
ATOM      2  C   UNL     1       4.661   4.038  16.090  0.00  0.00    +0.000 A 
ATOM      3  C   UNL     1       3.622   4.115  17.037  0.00  0.00    +0.000 A 
ATOM      4  C   UNL     1       3.467   5.281  17.789  0.00  0.00    +0.000 A 
ATOM      5  C   UNL     1       4.393   6.318  17.574  0.00  0.00    +0.000 A 
ATOM      6  C   UNL     1       5.447   6.243  16.643  0.00  0.00    +0.000 A 
ENDROOT
BRANCH   3   7
ATOM      7  O   UNL     1       2.720   3.105  17.222  0.00  0.00    +0.000 OA
ATOM      8  C   UNL     1       3.185   1.970  17.950  0.00  0.00    +0.000 C 
ENDBRANCH   3   7
BRANCH   6   9
ATOM      9  O   UNL     1       6.205   7.377  16.722  0.00  0.00    +0.000 OA
ATOM     10  C   UNL     1       7.408   7.418  17.459  0.00  0.00    +0.000 C 
ENDBRANCH   6   9
BRANCH   1  11
ATOM     11  S   UNL     1       6.887   4.779  14.667  0.00  0.00    +0.000 S 
BRANCH  11  12
ATOM     12  C   UNL     1       6.268   3.354  13.685  0.00  0.00    +0.000 C 
BRANCH  12  14
ATOM     13  C   UNL     1       4.659   3.306  11.697  0.00  0.00    +0.000 C 
ATOM     14  C   UNL     1       6.060   3.630  12.196  0.00  0.00    +0.000 C 
ENDBRANCH  12  14
ENDBRANCH  11  12
ENDBRANCH   1  11
BRANCH   4  15
ATOM     15  C   UNL     1       2.344   5.573  18.771  0.00  0.00    +0.000 C 
BRANCH  15  16
ATOM     16  C   UNL     1       2.620   5.665  20.292  0.00  0.00    +0.000 C 
BRANCH  16  17
ATOM     17  N   UNL     1       2.006   6.861  20.888  0.00  0.00    +0.000 NA
ATOM     18  H   UNL     1       1.037   6.663  21.126  0.00  0.00    +0.000 HD
ATOM     19  H   UNL     1       1.973   7.591  20.175  0.00  0.00    +0.000 HD
ENDBRANCH  16  17
BRANCH  16  20
ATOM     20  C   UNL     1       2.065   4.399  20.983  0.00  0.00    +0.000 C 
ATOM     21  C   UNL     1       0.897   3.761  20.243  0.00  0.00    +0.000 C 
ENDBRANCH  16  20
ENDBRANCH  15  16
ENDBRANCH   4  15
TORSDOF 9
ENDMDL
MODEL 3
REMARK VINA RESULT:      -6.3      2.992      6.169
REMARK  Name = 
REMARK  13 active torsions:
REMARK  status: ('A' for Active; 'I' for Inactive)
REMARK    1  A    between atoms: C_1  and  C_2
REMARK    2  A    between atoms: C_2  and  C_3
REMARK    3  A    between atoms: C_3  and  S_4
REMARK    4  A    between atoms: S_4  and  C_5
REMARK    5  A    between atoms: C_7  and  O_8
REMARK    6  A    between atoms: O_8  and  C_9
REMARK    7  A    between atoms: C_10  and  C_11
REMARK    8  A    between atoms: C_11  and  C_12
REMARK    9  A    between atoms: C_12  and  N_13
REMARK   10  A    between atoms: C_12  and  C_14
REMARK   11  A    between atoms: C_14  and  C_15
REMARK   12  A    between atoms: C_17  and  O_18
REMARK   13  A    between atoms: O_18  and  C_19
REMARK                            x       y       z     vdW  Elec       q    Type
REMARK                         _______ _______ _______ _____ _____    ______ ____
ROOT
ATOM      1  C   UNL     1       5.735   4.867  18.054  0.00  0.00    +0.000 A 
ATOM      2  C   UNL     1       4.856   5.432  19.005  0.00  0.00    +0.000 A 
ATOM      3  C   UNL     1       3.468   5.203  19.006  0.00  0.00    +0.000 A 
ATOM      4  C   UNL     1       2.909   4.380  18.028  0.00  0.00    +0.000 A 
ATOM      5  C   UNL     1       3.778   3.840  17.062  0.00  0.00    +0.000 A 
ATOM      6  C   UNL     1       5.166   4.079  17.042  0.00  0.00    +0.000 A 
ENDROOT
BRANCH   3   7
ATOM      7  O   UNL     1       2.638   5.721  19.962  0.00  0.00    +0.000 OA
ATOM      8  C   UNL     1       2.284   7.095  19.812  0.00  0.00    +0.000 C 
ENDBRANCH   3   7
BRANCH   6   9
ATOM      9  O   UNL     1       5.716   3.474  15.946  0.00  0.00    +0.000 OA
ATOM     10  C   UNL     1       6.019   4.196  14.771  0.00  0.00    +0.000 C 
ENDBRANCH   6   9
BRANCH   1  11
ATOM     11  S   UNL     1       7.465   5.340  18.158  0.00  0.00    +0.000 S 
BRANCH  11  12
ATOM     12  C   UNL     1       7.592   6.798  17.044  0.00  0.00    +0.000 C 
BRANCH  12  14
ATOM     13  C   UNL     1       8.290   9.062  18.006  0.00  0.00    +0.000 C 
ATOM     14  C   UNL     1       7.143   8.124  17.656  0.00  0.00    +0.000 C 
ENDBRANCH  12  14
ENDBRANCH  11  12
ENDBRANCH   1  11
BRANCH   4  15
ATOM     15  C   UNL     1       1.456   3.943  17.944  0.00  0.00    +0.000 C 
BRANCH  15  16
ATOM     16  C   UNL     1       0.933   2.750  18.783  0.00  0.00    +0.000 C 
BRANCH  16  17
ATOM     17  N   UNL     1       1.886   1.632  18.797  0.00  0.00    +0.000 NA
ATOM     18  H   UNL     1       1.604   0.935  18.111  0.00  0.00    +0.000 HD
ATOM     19  H   UNL     1       1.821   1.169  19.704  0.00  0.00    +0.000 HD
ENDBRANCH  16  17
BRANCH  16  20
ATOM     20  C   UNL     1       0.672   3.228  20.230  0.00  0.00    +0.000 C 
ATOM     21  C   UNL     1       1.606   2.602  21.257  0.00  0.00    +0.000 C 
ENDBRANCH  16  20
ENDBRANCH  15  16
ENDBRANCH   4  15
TORSDOF 9
ENDMDL
MODEL 4
REMARK VINA RESULT:      -6.2      1.813      2.543
REMARK  Name = 
REMARK  13 active torsions:
REMARK  status: ('A' for Active; 'I' for Inactive)
REMARK    1  A    between atoms: C_1  and  C_2
REMARK    2  A    between atoms: C_2  and  C_3
REMARK    3  A    between atoms: C_3  and  S_4
REMARK    4  A    between atoms: S_4  and  C_5
REMARK    5  A    between atoms: C_7  and  O_8
REMARK    6  A    between atoms: O_8  and  C_9
REMARK    7  A    between atoms: C_10  and  C_11
REMARK    8  A    between atoms: C_11  and  C_12
REMARK    9  A    between atoms: C_12  and  N_13
REMARK   10  A    between atoms: C_12  and  C_14
REMARK   11  A    between atoms: C_14  and  C_15
REMARK   12  A    between atoms: C_17  and  O_18
REMARK   13  A    between atoms: O_18  and  C_19
REMARK                            x       y       z     vdW  Elec       q    Type
REMARK                         _______ _______ _______ _____ _____    ______ ____
ROOT
ATOM      1  C   UNL     1       3.274   5.289  18.791  0.00  0.00    +0.000 A 
ATOM      2  C   UNL     1       4.642   5.639  18.786  0.00  0.00    +0.000 A 
ATOM      3  C   UNL     1       5.560   5.156  17.835  0.00  0.00    +0.000 A 
ATOM      4  C   UNL     1       5.117   4.286  16.837  0.00  0.00    +0.000 A 
ATOM      5  C   UNL     1       3.760   3.913  16.859  0.00  0.00    +0.000 A 
ATOM      6  C   UNL     1       2.839   4.376  17.818  0.00  0.00    +0.000 A 
ENDROOT
BRANCH   3   7
ATOM      7  O   UNL     1       6.871   5.541  17.817  0.00  0.00    +0.000 OA
ATOM      8  C   UNL     1       7.477   5.774  19.088  0.00  0.00    +0.000 C 
ENDBRANCH   3   7
BRANCH   6   9
ATOM      9  O   UNL     1       1.627   3.780  17.610  0.00  0.00    +0.000 OA
ATOM     10  C   UNL     1       1.138   2.769  18.465  0.00  0.00    +0.000 C 
ENDBRANCH   6   9
BRANCH   1  11
ATOM     11  S   UNL     1       2.270   5.935  20.135  0.00  0.00    +0.000 S 
BRANCH  11  12
ATOM     12  C   UNL     1       2.033   7.705  19.697  0.00  0.00    +0.000 C 
BRANCH  12  14
ATOM     13  C   UNL     1       1.904   9.493  17.873  0.00  0.00    +0.000 C 
ATOM     14  C   UNL     1       2.133   8.025  18.206  0.00  0.00    +0.000 C 
ENDBRANCH  12  14
ENDBRANCH  11  12
ENDBRANCH   1  11
BRANCH   4  15
ATOM     15  C   UNL     1       5.942   3.756  15.676  0.00  0.00    +0.000 C 
BRANCH  15  16
ATOM     16  C   UNL     1       6.146   4.600  14.394  0.00  0.00    +0.000 C 
BRANCH  16  17
ATOM     17  N   UNL     1       7.473   5.231  14.359  0.00  0.00    +0.000 NA
ATOM     18  H   UNL     1       8.111   4.716  14.962  0.00  0.00    +0.000 HD
ATOM     19  H   UNL     1       7.394   6.162  14.771  0.00  0.00    +0.000 HD
ENDBRANCH  16  17
BRANCH  16  20
ATOM     20  C   UNL     1       5.972   3.690  13.157  0.00  0.00    +0.000 C 
ATOM     21  C   UNL     1       7.051   3.883  12.100  0.00  0.00    +0.000 C 
ENDBRANCH  16  20
ENDBRANCH  15  16
ENDBRANCH   4  15
TORSDOF 9
ENDMDL
MODEL 5
REMARK VINA RESULT:      -6.1      2.282      3.224
REMARK  Name = 
REMARK  13 active torsions:
REMARK  status: ('A' for Active; 'I' for Inactive)
REMARK    1  A    between atoms: C_1  and  C_2
REMARK    2  A    between atoms: C_2  and  C_3
REMARK    3  A    between atoms: C_3  and  S_4
REMARK    4  A    between atoms: S_4  and  C_5
REMARK    5  A    between atoms: C_7  and  O_8
REMARK    6  A    between atoms: O_8  and  C_9
REMARK    7  A    between atoms: C_10  and  C_11
REMARK    8  A    between atoms: C_11  and  C_12
REMARK    9  A    between atoms: C_12  and  N_13
REMARK   10  A    between atoms: C_12  and  C_14
REMARK   11  A    between atoms: C_14  and  C_15
REMARK   12  A    between atoms: C_17  and  O_18
REMARK   13  A    between atoms: O_18  and  C_19
REMARK                            x       y       z     vdW  Elec       q    Type
REMARK                         _______ _______ _______ _____ _____    ______ ____
ROOT
ATOM      1  C   UNL     1       2.404   4.003  18.085  0.00  0.00    +0.000 A 
ATOM      2  C   UNL     1       2.613   5.399  18.041  0.00  0.00    +0.000 A 
ATOM      3  C   UNL     1       3.729   5.995  17.424  0.00  0.00    +0.000 A 
ATOM      4  C   UNL     1       4.690   5.183  16.818  0.00  0.00    +0.000 A 
ATOM      5  C   UNL     1       4.497   3.791  16.886  0.00  0.00    +0.000 A 
ATOM      6  C   UNL     1       3.394   3.186  17.519  0.00  0.00    +0.000 A 
ENDROOT
BRANCH   3   7
ATOM      7  O   UNL     1       3.893   7.350  17.351  0.00  0.00    +0.000 OA
ATOM      8  C   UNL     1       2.809   8.143  17.832  0.00  0.00    +0.000 C 
ENDBRANCH   3   7
BRANCH   6   9
ATOM      9  O   UNL     1       3.533   1.827  17.474  0.00  0.00    +0.000 OA
ATOM     10  C   UNL     1       3.891   1.078  18.616  0.00  0.00    +0.000 C 
ENDBRANCH   6   9
BRANCH   1  11
ATOM     11  S   UNL     1       0.966   3.422  18.992  0.00  0.00    +0.000 S 
BRANCH  11  12
ATOM     12  C   UNL     1       1.017   4.377  20.563  0.00  0.00    +0.000 C 
BRANCH  12  14
ATOM     13  C   UNL     1       2.459   2.575  21.664  0.00  0.00    +0.000 C 
ATOM     14  C   UNL     1       2.202   4.064  21.476  0.00  0.00    +0.000 C 
ENDBRANCH  12  14
ENDBRANCH  11  12
ENDBRANCH   1  11
BRANCH   4  15
ATOM     15  C   UNL     1       5.892   5.658  16.020  0.00  0.00    +0.000 C 
BRANCH  15  16
ATOM     16  C   UNL     1       7.182   6.137  16.731  0.00  0.00    +0.000 C 
BRANCH  16  17
ATOM     17  N   UNL     1       7.044   7.505  17.250  0.00  0.00    +0.000 NA
ATOM     18  H   UNL     1       6.397   8.028  16.663  0.00  0.00    +0.000 HD
ATOM     19  H   UNL     1       7.945   7.975  17.154  0.00  0.00    +0.000 HD
ENDBRANCH  16  17
BRANCH  16  20
ATOM     20  C   UNL     1       7.506   5.172  17.893  0.00  0.00    +0.000 C 
ATOM     21  C   UNL     1       7.793   5.878  19.212  0.00  0.00    +0.000 C 
ENDBRANCH  16  20
ENDBRANCH  15  16
ENDBRANCH   4  15
TORSDOF 9
ENDMDL
MODEL 6
REMARK VINA RESULT:      -6.0      2.191      4.193
REMARK  Name = 
REMARK  13 active torsions:
REMARK  status: ('A' for Active; 'I' for Inactive)
REMARK    1  A    between atoms: C_1  and  C_2
REMARK    2  A    between atoms: C_2  and  C_3
REMARK    3  A    between atoms: C_3  and  S_4
REMARK    4  A    between atoms: S_4  and  C_5
REMARK    5  A    between atoms: C_7  and  O_8
REMARK    6  A    between atoms: O_8  and  C_9
REMARK    7  A    between atoms: C_10  and  C_11
REMARK    8  A    between atoms: C_11  and  C_12
REMARK    9  A    between atoms: C_12  and  N_13
REMARK   10  A    between atoms: C_12  and  C_14
REMARK   11  A    between atoms: C_14  and  C_15
REMARK   12  A    between atoms: C_17  and  O_18
REMARK   13  A    between atoms: O_18  and  C_19
REMARK                            x       y       z     vdW  Elec       q    Type
REMARK                         _______ _______ _______ _____ _____    ______ ____
ROOT
ATOM      1  C   UNL     1       3.994   4.057  17.907  0.00  0.00    +0.000 A 
ATOM      2  C   UNL     1       5.068   3.952  16.996  0.00  0.00    +0.000 A 
ATOM      3  C   UNL     1       6.271   4.669  17.132  0.00  0.00    +0.000 A 
ATOM      4  C   UNL     1       6.432   5.535  18.214  0.00  0.00    +0.000 A 
ATOM      5  C   UNL     1       5.352   5.664  19.107  0.00  0.00    +0.000 A 
ATOM      6  C   UNL     1       4.138   4.964  18.969  0.00  0.00    +0.000 A 
ENDROOT
BRANCH   3   7
ATOM      7  O   UNL     1       7.317   4.520  16.265  0.00  0.00    +0.000 OA
ATOM      8  C   UNL     1       7.028   4.734  14.884  0.00  0.00    +0.000 C 
ENDBRANCH   3   7
BRANCH   6   9
ATOM      9  O   UNL     1       3.272   5.358  19.950  0.00  0.00    +0.000 OA
ATOM     10  C   UNL     1       2.355   6.413  19.754  0.00  0.00    +0.000 C 
ENDBRANCH   6   9
BRANCH   1  11
ATOM     11  S   UNL     1       2.503   3.130  17.525  0.00  0.00    +0.000 S 
BRANCH  11  12
ATOM     12  C   UNL     1       2.190   2.148  19.048  0.00  0.00    +0.000 C 
BRANCH  12  14
ATOM     13  C   UNL     1       1.448   2.763  21.416  0.00  0.00    +0.000 C 
ATOM     14  C   UNL     1       1.071   2.677  19.943  0.00  0.00    +0.000 C 
ENDBRANCH  12  14
ENDBRANCH  11  12
ENDBRANCH   1  11
BRANCH   4  15
ATOM     15  C   UNL     1       7.696   6.301  18.571  0.00  0.00    +0.000 C 
BRANCH  15  16
ATOM     16  C   UNL     1       8.088   7.590  17.808  0.00  0.00    +0.000 C 
BRANCH  16  17
ATOM     17  N   UNL     1       6.953   8.150  17.061  0.00  0.00    +0.000 NA
ATOM     18  H   UNL     1       6.817   7.623  16.201  0.00  0.00    +0.000 HD
ATOM     19  H   UNL     1       7.199   9.097  16.769  0.00  0.00    +0.000 HD
ENDBRANCH  16  17
BRANCH  16  20
ATOM     20  C   UNL     1       8.611   8.636  18.819  0.00  0.00    +0.000 C 
ATOM     21  C   UNL     1       8.784  10.027  18.224  0.00  0.00    +0.000 C 
ENDBRANCH  16  20
ENDBRANCH  15  16
ENDBRANCH   4  15
TORSDOF 9
ENDMDL
MODEL 7
REMARK VINA RESULT:      -6.0      1.105      1.183
REMARK  Name = 
REMARK  13 active torsions:
REMARK  status: ('A' for Active; 'I' for Inactive)
REMARK    1  A    between atoms: C_1  and  C_2
REMARK    2  A    between atoms: C_2  and  C_3
REMARK    3  A    between atoms: C_3  and  S_4
REMARK    4  A    between atoms: S_4  and  C_5
REMARK    5  A    between atoms: C_7  and  O_8
REMARK    6  A    between atoms: O_8  and  C_9
REMARK    7  A    between atoms: C_10  and  C_11
REMARK    8  A    between atoms: C_11  and  C_12
REMARK    9  A    between atoms: C_12  and  N_13
REMARK   10  A    between atoms: C_12  and  C_14
REMARK   11  A    between atoms: C_14  and  C_15
REMARK   12  A    between atoms: C_17  and  O_18
REMARK   13  A    between atoms: O_18  and  C_19
REMARK                            x       y       z     vdW  Elec       q    Type
REMARK                         _______ _______ _______ _____ _____    ______ ____
ROOT
ATOM      1  C   UNL     1       4.022   4.916  18.808  0.00  0.00    +0.000 A 
ATOM      2  C   UNL     1       5.318   5.466  18.909  0.00  0.00    +0.000 A 
ATOM      3  C   UNL     1       6.320   5.270  17.940  0.00  0.00    +0.000 A 
ATOM      4  C   UNL     1       6.039   4.495  16.813  0.00  0.00    +0.000 A 
ATOM      5  C   UNL     1       4.757   3.921  16.725  0.00  0.00    +0.000 A 
ATOM      6  C   UNL     1       3.755   4.097  17.700  0.00  0.00    +0.000 A 
ENDROOT
BRANCH   3   7
ATOM      7  O   UNL     1       7.555   5.848  18.031  0.00  0.00    +0.000 OA
ATOM      8  C   UNL     1       7.618   7.248  17.761  0.00  0.00    +0.000 C 
ENDBRANCH   3   7
BRANCH   6   9
ATOM      9  O   UNL     1       2.656   3.359  17.359  0.00  0.00    +0.000 OA
ATOM     10  C   UNL     1       2.583   1.972  17.612  0.00  0.00    +0.000 C 
ENDBRANCH   6   9
BRANCH   1  11
ATOM     11  S   UNL     1       2.903   5.202  20.184  0.00  0.00    +0.000 S 
BRANCH  11  12
ATOM     12  C   UNL     1       2.838   3.580  21.047  0.00  0.00    +0.000 C 
BRANCH  12  14
ATOM     13  C   UNL     1       0.516   3.217  20.039  0.00  0.00    +0.000 C 
ATOM     14  C   UNL     1       1.438   2.996  21.230  0.00  0.00    +0.000 C 
ENDBRANCH  12  14
ENDBRANCH  11  12
ENDBRANCH   1  11
BRANCH   4  15
ATOM     15  C   UNL     1       6.960   4.269  15.626  0.00  0.00    +0.000 C 
BRANCH  15  16
ATOM     16  C   UNL     1       6.636   4.878  14.239  0.00  0.00    +0.000 C 
BRANCH  16  17
ATOM     17  N   UNL     1       7.825   5.471  13.612  0.00  0.00    +0.000 NA
ATOM     18  H   UNL     1       8.092   4.920  12.799  0.00  0.00    +0.000 HD
ATOM     19  H   UNL     1       8.604   5.393  14.267  0.00  0.00    +0.000 HD
ENDBRANCH  16  17
BRANCH  16  20
ATOM     20  C   UNL     1       6.063   3.773  13.324  0.00  0.00    +0.000 C 
ATOM     21  C   UNL     1       6.848   3.582  12.033  0.00  0.00    +0.000 C 
ENDBRANCH  16  20
ENDBRANCH  15  16
ENDBRANCH   4  15
TORSDOF 9
ENDMDL
MODEL 8
REMARK VINA RESULT:      -6.0      1.819      2.461
REMARK  Name = 
REMARK  13 active torsions:
REMARK  status: ('A' for Active; 'I' for Inactive)
REMARK    1  A    between atoms: C_1  and  C_2
REMARK    2  A    between atoms: C_2  and  C_3
REMARK    3  A    between atoms: C_3  and  S_4
REMARK    4  A    between atoms: S_4  and  C_5
REMARK    5  A    between atoms: C_7  and  O_8
REMARK    6  A    between atoms: O_8  and  C_9
REMARK    7  A    between atoms: C_10  and  C_11
REMARK    8  A    between atoms: C_11  and  C_12
REMARK    9  A    between atoms: C_12  and  N_13
REMARK   10  A    between atoms: C_12  and  C_14
REMARK   11  A    between atoms: C_14  and  C_15
REMARK   12  A    between atoms: C_17  and  O_18
REMARK   13  A    between atoms: O_18  and  C_19
REMARK                            x       y       z     vdW  Elec       q    Type
REMARK                         _______ _______ _______ _____ _____    ______ ____
ROOT
ATOM      1  C   UNL     1       3.404   5.969  17.959  0.00  0.00    +0.000 A 
ATOM      2  C   UNL     1       4.603   6.623  17.598  0.00  0.00    +0.000 A 
ATOM      3  C   UNL     1       5.570   6.052  16.750  0.00  0.00    +0.000 A 
ATOM      4  C   UNL     1       5.354   4.776  16.228  0.00  0.00    +0.000 A 
ATOM      5  C   UNL     1       4.174   4.111  16.610  0.00  0.00    +0.000 A 
ATOM      6  C   UNL     1       3.210   4.667  17.474  0.00  0.00    +0.000 A 
ENDROOT
BRANCH   3   7
ATOM      7  O   UNL     1       6.703   6.718  16.374  0.00  0.00    +0.000 OA
ATOM      8  C   UNL     1       7.519   7.221  17.431  0.00  0.00    +0.000 C 
ENDBRANCH   3   7
BRANCH   6   9
ATOM      9  O   UNL     1       2.222   3.751  17.703  0.00  0.00    +0.000 OA
ATOM     10  C   UNL     1       2.512   2.394  17.962  0.00  0.00    +0.000 C 
ENDBRANCH   6   9
BRANCH   1  11
ATOM     11  S   UNL     1       2.329   6.818  19.122  0.00  0.00    +0.000 S 
BRANCH  11  12
ATOM     12  C   UNL     1       2.373   8.570  18.565  0.00  0.00    +0.000 C 
BRANCH  12  14
ATOM     13  C   UNL     1       0.269  10.019  18.685  0.00  0.00    +0.000 C 
ATOM     14  C   UNL     1       1.111   9.059  17.856  0.00  0.00    +0.000 C 
ENDBRANCH  12  14
ENDBRANCH  11  12
ENDBRANCH   1  11
BRANCH   4  15
ATOM     15  C   UNL     1       6.235   4.057  15.219  0.00  0.00    +0.000 C 
BRANCH  15  16
ATOM     16  C   UNL     1       6.504   4.665  13.821  0.00  0.00    +0.000 C 
BRANCH  16  17
ATOM     17  N   UNL     1       7.783   5.387  13.776  0.00  0.00    +0.000 NA
ATOM     18  H   UNL     1       7.670   6.248  13.244  0.00  0.00    +0.000 HD
ATOM     19  H   UNL     1       8.451   4.822  13.249  0.00  0.00    +0.000 HD
ENDBRANCH  16  17
BRANCH  16  20
ATOM     20  C   UNL     1       6.511   3.531  12.770  0.00  0.00    +0.000 C 
ATOM     21  C   UNL     1       5.174   3.343  12.065  0.00  0.00    +0.000 C 
ENDBRANCH  16  20
ENDBRANCH  15  16
ENDBRANCH   4  15
TORSDOF 9
ENDMDL
MODEL 9
REMARK VINA RESULT:      -6.0      2.604      6.741
REMARK  Name = 
REMARK  13 active torsions:
REMARK  status: ('A' for Active; 'I' for Inactive)
REMARK    1  A    between atoms: C_1  and  C_2
REMARK    2  A    between atoms: C_2  and  C_3
REMARK    3  A    between atoms: C_3  and  S_4
REMARK    4  A    between atoms: S_4  and  C_5
REMARK    5  A    between atoms: C_7  and  O_8
REMARK    6  A    between atoms: O_8  and  C_9
REMARK    7  A    between atoms: C_10  and  C_11
REMARK    8  A    between atoms: C_11  and  C_12
REMARK    9  A    between atoms: C_12  and  N_13
REMARK   10  A    between atoms: C_12  and  C_14
REMARK   11  A    between atoms: C_14  and  C_15
REMARK   12  A    between atoms: C_17  and  O_18
REMARK   13  A    between atoms: O_18  and  C_19
REMARK                            x       y       z     vdW  Elec       q    Type
REMARK                         _______ _______ _______ _____ _____    ______ ____
ROOT
ATOM      1  C   UNL     1       6.068   4.723  16.496  0.00  0.00    +0.000 A 
ATOM      2  C   UNL     1       4.914   3.913  16.580  0.00  0.00    +0.000 A 
ATOM      3  C   UNL     1       4.132   3.800  17.744  0.00  0.00    +0.000 A 
ATOM      4  C   UNL     1       4.496   4.516  18.886  0.00  0.00    +0.000 A 
ATOM      5  C   UNL     1       5.662   5.300  18.813  0.00  0.00    +0.000 A 
ATOM      6  C   UNL     1       6.462   5.405  17.658  0.00  0.00    +0.000 A 
ENDROOT
BRANCH   3   7
ATOM      7  O   UNL     1       2.992   3.047  17.793  0.00  0.00    +0.000 OA
ATOM      8  C   UNL     1       3.158   1.673  18.141  0.00  0.00    +0.000 C 
ENDBRANCH   3   7
BRANCH   6   9
ATOM      9  O   UNL     1       7.553   6.182  17.929  0.00  0.00    +0.000 OA
ATOM     10  C   UNL     1       7.580   7.559  17.623  0.00  0.00    +0.000 C 
ENDBRANCH   6   9
BRANCH   1  11
ATOM     11  S   UNL     1       6.989   4.676  14.954  0.00  0.00    +0.000 S 
BRANCH  11  12
ATOM     12  C   UNL     1       5.790   3.986  13.744  0.00  0.00    +0.000 C 
BRANCH  12  14
ATOM     13  C   UNL     1       5.584   2.496  11.676  0.00  0.00    +0.000 C 
ATOM     14  C   UNL     1       6.390   3.563  12.403  0.00  0.00    +0.000 C 
ENDBRANCH  12  14
ENDBRANCH  11  12
ENDBRANCH   1  11
BRANCH   4  15
ATOM     15  C   UNL     1       3.713   4.593  20.185  0.00  0.00    +0.000 C 
BRANCH  15  16
ATOM     16  C   UNL     1       2.445   5.477  20.300  0.00  0.00    +0.000 C 
BRANCH  16  17
ATOM     17  N   UNL     1       2.272   6.340  19.123  0.00  0.00    +0.000 NA
ATOM     18  H   UNL     1       3.111   6.302  18.547  0.00  0.00    +0.000 HD
ATOM     19  H   UNL     1       2.201   7.306  19.444  0.00  0.00    +0.000 HD
ENDBRANCH  16  17
BRANCH  16  20
ATOM     20  C   UNL     1       1.208   4.565  20.461  0.00  0.00    +0.000 C 
ATOM     21  C   UNL     1       1.513   3.234  21.135  0.00  0.00    +0.000 C 
ENDBRANCH  16  20
ENDBRANCH  15  16
ENDBRANCH   4  15
TORSDOF 9
ENDMDL
