MODEL 1
REMARK VINA RESULT:      -6.4      0.000      0.000
REMARK  Name = 
REMARK  18 active torsions:
REMARK  status: ('A' for Active; 'I' for Inactive)
REMARK    1  A    between atoms: C_1  and  C_2
REMARK    2  A    between atoms: C_2  and  C_3
REMARK    3  A    between atoms: C_2  and  C_4
REMARK    4  A    between atoms: C_2  and  N_21
REMARK    5  A    between atoms: C_4  and  C_5
REMARK    6  A    between atoms: C_5  and  S_6
REMARK    7  A    between atoms: S_6  and  C_9
REMARK    8  A    between atoms: C_9  and  C_10
REMARK    9  A    between atoms: C_10  and  C_11
REMARK   10  A    between atoms: C_11  and  C_12
REMARK   11  A    between atoms: C_12  and  C_13
REMARK   12  A    between atoms: C_13  and  C_14
REMARK   13  A    between atoms: C_14  and  C_15
REMARK   14  A    between atoms: C_15  and  C_16
REMARK   15  A    between atoms: C_16  and  N_17
REMARK   16  A    between atoms: N_17  and  C_18
REMARK   17  A    between atoms: N_17  and  C_19
REMARK   18  A    between atoms: N_17  and  C_20
REMARK                            x       y       z     vdW  Elec       q    Type
REMARK                         _______ _______ _______ _____ _____    ______ ____
ROOT
ATOM      1  C   UNL     1       6.520   5.555  19.169  0.00  0.00    +0.000 C 
ENDROOT
BRANCH   1   2
ATOM      2  S   UNL     1       5.530   4.754  17.928  0.00  0.00    +0.000 S 
ATOM      3  O   UNL     1       6.448   4.110  17.009  0.00  0.00    +0.000 OA
ATOM      4  O   UNL     1       4.546   5.708  17.457  0.00  0.00    +0.000 OA
BRANCH   2   5
ATOM      5  C   UNL     1       4.688   3.490  18.856  0.00  0.00    +0.000 C 
BRANCH   5   6
ATOM      6  C   UNL     1       3.454   2.983  18.124  0.00  0.00    +0.000 C 
BRANCH   6   8
ATOM      7  C   UNL     1       1.488   4.540  17.919  0.00  0.00    +0.000 C 
ATOM      8  C   UNL     1       2.110   3.416  18.785  0.00  0.00    +0.000 C 
ATOM      9  C   UNL     1       1.164   2.200  18.756  0.00  0.00    +0.000 C 
BRANCH   8  10
ATOM     10  N   UNL     1       2.344   3.924  20.159  0.00  0.00    +0.000 NA
ATOM     11 CL   UNL     1       1.731   5.547  20.493  0.00  0.00    +0.000 Cl
ATOM     12 CL   UNL     1       1.847   2.845  21.470  0.00  0.00    +0.000 Cl
ENDBRANCH   8  10
ENDBRANCH   6   8
ENDBRANCH   5   6
ENDBRANCH   2   5
ENDBRANCH   1   2
BRANCH   1  13
ATOM     13  C   UNL     1       7.806   6.155  18.607  0.00  0.00    +0.000 C 
BRANCH  13  14
ATOM     14  C   UNL     1       7.564   6.988  17.356  0.00  0.00    +0.000 C 
BRANCH  14  15
ATOM     15  C   UNL     1       7.487   8.478  17.669  0.00  0.00    +0.000 C 
BRANCH  15  16
ATOM     16  C   UNL     1       8.658   8.893  18.538  0.00  0.00    +0.000 C 
BRANCH  16  17
ATOM     17  C   UNL     1       9.009  10.357  18.300  0.00  0.00    +0.000 C 
BRANCH  17  18
ATOM     18  C   UNL     1       9.820  10.944  19.453  0.00  0.00    +0.000 C 
BRANCH  18  19
ATOM     19  C   UNL     1       9.955  12.464  19.336  0.00  0.00    +0.000 C 
BRANCH  19  20
ATOM     20  N   UNL     1      11.389  12.936  19.078  0.00  0.00    +0.000 N 
ATOM     21  C   UNL     1      11.692  12.995  17.588  0.00  0.00    +0.000 C 
ATOM     22  C   UNL     1      11.642  14.297  19.719  0.00  0.00    +0.000 C 
ATOM     23  C   UNL     1      12.333  11.921  19.731  0.00  0.00    +0.000 C 
ENDBRANCH  19  20
ENDBRANCH  18  19
ENDBRANCH  17  18
ENDBRANCH  16  17
ENDBRANCH  15  16
ENDBRANCH  14  15
ENDBRANCH  13  14
ENDBRANCH   1  13
TORSDOF 13
ENDMDL
MODEL 2
REMARK VINA RESULT:      -6.3      1.639      2.280
REMARK  Name = 
REMARK  18 active torsions:
REMARK  status: ('A' for Active; 'I' for Inactive)
REMARK    1  A    between atoms: C_1  and  C_2
REMARK    2  A    between atoms: C_2  and  C_3
REMARK    3  A    between atoms: C_2  and  C_4
REMARK    4  A    between atoms: C_2  and  N_21
REMARK    5  A    between atoms: C_4  and  C_5
REMARK    6  A    between atoms: C_5  and  S_6
REMARK    7  A    between atoms: S_6  and  C_9
REMARK    8  A    between atoms: C_9  and  C_10
REMARK    9  A    between atoms: C_10  and  C_11
REMARK   10  A    between atoms: C_11  and  C_12
REMARK   11  A    between atoms: C_12  and  C_13
REMARK   12  A    between atoms: C_13  and  C_14
REMARK   13  A    between atoms: C_14  and  C_15
REMARK   14  A    between atoms: C_15  and  C_16
REMARK   15  A    between atoms: C_16  and  N_17
REMARK   16  A    between atoms: N_17  and  C_18
REMARK   17  A    between atoms: N_17  and  C_19
REMARK   18  A    between atoms: N_17  and  C_20
REMARK                            x       y       z     vdW  Elec       q    Type
REMARK                         _______ _______ _______ _____ _____    ______ ____
ROOT
ATOM      1  C   UNL     1       7.064   5.987  17.395  0.00  0.00    +0.000 C 
ENDROOT
BRANCH   1   2
ATOM      2  S   UNL     1       5.380   5.417  17.456  0.00  0.00    +0.000 S 
ATOM      3  O   UNL     1       5.303   4.243  16.608  0.00  0.00    +0.000 OA
ATOM      4  O   UNL     1       4.515   6.558  17.235  0.00  0.00    +0.000 OA
BRANCH   2   5
ATOM      5  C   UNL     1       5.204   4.897  19.149  0.00  0.00    +0.000 C 
BRANCH   5   6
ATOM      6  C   UNL     1       3.758   4.979  19.614  0.00  0.00    +0.000 C 
BRANCH   6   8
ATOM      7  C   UNL     1       4.174   2.506  19.822  0.00  0.00    +0.000 C 
ATOM      8  C   UNL     1       3.068   3.590  19.767  0.00  0.00    +0.000 C 
ATOM      9  C   UNL     1       2.318   3.587  21.113  0.00  0.00    +0.000 C 
BRANCH   8  10
ATOM     10  N   UNL     1       2.173   3.321  18.614  0.00  0.00    +0.000 NA
ATOM     11 CL   UNL     1       0.725   2.374  18.969  0.00  0.00    +0.000 Cl
ATOM     12 CL   UNL     1       1.710   4.736  17.658  0.00  0.00    +0.000 Cl
ENDBRANCH   8  10
ENDBRANCH   6   8
ENDBRANCH   5   6
ENDBRANCH   2   5
ENDBRANCH   1   2
BRANCH   1  13
ATOM     13  C   UNL     1       7.176   7.508  17.372  0.00  0.00    +0.000 C 
BRANCH  13  14
ATOM     14  C   UNL     1       8.257   8.029  18.308  0.00  0.00    +0.000 C 
BRANCH  14  15
ATOM     15  C   UNL     1       8.486   9.526  18.139  0.00  0.00    +0.000 C 
BRANCH  15  16
ATOM     16  C   UNL     1       9.200  10.089  19.352  0.00  0.00    +0.000 C 
BRANCH  16  17
ATOM     17  C   UNL     1      10.292  11.064  18.926  0.00  0.00    +0.000 C 
BRANCH  17  18
ATOM     18  C   UNL     1      10.026  12.478  19.438  0.00  0.00    +0.000 C 
BRANCH  18  19
ATOM     19  C   UNL     1       9.676  13.438  18.299  0.00  0.00    +0.000 C 
BRANCH  19  20
ATOM     20  N   UNL     1      10.827  14.365  17.900  0.00  0.00    +0.000 N 
ATOM     21  C   UNL     1      10.310  15.722  17.439  0.00  0.00    +0.000 C 
ATOM     22  C   UNL     1      11.812  14.543  19.051  0.00  0.00    +0.000 C 
ATOM     23  C   UNL     1      11.571  13.703  16.736  0.00  0.00    +0.000 C 
ENDBRANCH  19  20
ENDBRANCH  18  19
ENDBRANCH  17  18
ENDBRANCH  16  17
ENDBRANCH  15  16
ENDBRANCH  14  15
ENDBRANCH  13  14
ENDBRANCH   1  13
TORSDOF 13
ENDMDL
MODEL 3
REMARK VINA RESULT:      -6.3      1.680      2.320
REMARK  Name = 
REMARK  18 active torsions:
REMARK  status: ('A' for Active; 'I' for Inactive)
REMARK    1  A    between atoms: C_1  and  C_2
REMARK    2  A    between atoms: C_2  and  C_3
REMARK    3  A    between atoms: C_2  and  C_4
REMARK    4  A    between atoms: C_2  and  N_21
REMARK    5  A    between atoms: C_4  and  C_5
REMARK    6  A    between atoms: C_5  and  S_6
REMARK    7  A    between atoms: S_6  and  C_9
REMARK    8  A    between atoms: C_9  and  C_10
REMARK    9  A    between atoms: C_10  and  C_11
REMARK   10  A    between atoms: C_11  and  C_12
REMARK   11  A    between atoms: C_12  and  C_13
REMARK   12  A    between atoms: C_13  and  C_14
REMARK   13  A    between atoms: C_14  and  C_15
REMARK   14  A    between atoms: C_15  and  C_16
REMARK   15  A    between atoms: C_16  and  N_17
REMARK   16  A    between atoms: N_17  and  C_18
REMARK   17  A    between atoms: N_17  and  C_19
REMARK   18  A    between atoms: N_17  and  C_20
REMARK                            x       y       z     vdW  Elec       q    Type
REMARK                         _______ _______ _______ _____ _____    ______ ____
ROOT
ATOM      1  C   UNL     1       6.752   6.924  17.644  0.00  0.00    +0.000 C 
ENDROOT
BRANCH   1   2
ATOM      2  S   UNL     1       6.968   5.296  16.961  0.00  0.00    +0.000 S 
ATOM      3  O   UNL     1       7.709   4.524  17.940  0.00  0.00    +0.000 OA
ATOM      4  O   UNL     1       7.451   5.442  15.603  0.00  0.00    +0.000 OA
BRANCH   2   5
ATOM      5  C   UNL     1       5.302   4.672  16.902  0.00  0.00    +0.000 C 
BRANCH   5   6
ATOM      6  C   UNL     1       4.523   5.029  18.159  0.00  0.00    +0.000 C 
BRANCH   6   8
ATOM      7  C   UNL     1       2.029   5.312  17.994  0.00  0.00    +0.000 C 
ATOM      8  C   UNL     1       3.157   4.289  18.282  0.00  0.00    +0.000 C 
ATOM      9  C   UNL     1       3.117   3.202  17.191  0.00  0.00    +0.000 C 
BRANCH   8  10
ATOM     10  N   UNL     1       2.983   3.735  19.647  0.00  0.00    +0.000 NA
ATOM     11 CL   UNL     1       1.345   3.225  20.067  0.00  0.00    +0.000 Cl
ATOM     12 CL   UNL     1       4.115   2.455  20.104  0.00  0.00    +0.000 Cl
ENDBRANCH   8  10
ENDBRANCH   6   8
ENDBRANCH   5   6
ENDBRANCH   2   5
ENDBRANCH   1   2
BRANCH   1  13
ATOM     13  C   UNL     1       8.055   7.531  18.157  0.00  0.00    +0.000 C 
BRANCH  13  14
ATOM     14  C   UNL     1       8.153   9.025  17.878  0.00  0.00    +0.000 C 
BRANCH  14  15
ATOM     15  C   UNL     1       8.898   9.763  18.983  0.00  0.00    +0.000 C 
BRANCH  15  16
ATOM     16  C   UNL     1       9.814  10.813  18.387  0.00  0.00    +0.000 C 
BRANCH  16  17
ATOM     17  C   UNL     1       9.006  12.000  17.872  0.00  0.00    +0.000 C 
BRANCH  17  18
ATOM     18  C   UNL     1       9.900  13.184  17.511  0.00  0.00    +0.000 C 
BRANCH  18  19
ATOM     19  C   UNL     1       9.744  14.338  18.505  0.00  0.00    +0.000 C 
BRANCH  19  20
ATOM     20  N   UNL     1      10.866  14.410  19.543  0.00  0.00    +0.000 N 
ATOM     21  C   UNL     1      10.450  13.756  20.854  0.00  0.00    +0.000 C 
ATOM     22  C   UNL     1      12.143  13.763  19.018  0.00  0.00    +0.000 C 
ATOM     23  C   UNL     1      11.158  15.891  19.806  0.00  0.00    +0.000 C 
ENDBRANCH  19  20
ENDBRANCH  18  19
ENDBRANCH  17  18
ENDBRANCH  16  17
ENDBRANCH  15  16
ENDBRANCH  14  15
ENDBRANCH  13  14
ENDBRANCH   1  13
TORSDOF 13
ENDMDL
MODEL 4
REMARK VINA RESULT:      -6.1      1.959      2.517
REMARK  Name = 
REMARK  18 active torsions:
REMARK  status: ('A' for Active; 'I' for Inactive)
REMARK    1  A    between atoms: C_1  and  C_2
REMARK    2  A    between atoms: C_2  and  C_3
REMARK    3  A    between atoms: C_2  and  C_4
REMARK    4  A    between atoms: C_2  and  N_21
REMARK    5  A    between atoms: C_4  and  C_5
REMARK    6  A    between atoms: C_5  and  S_6
REMARK    7  A    between atoms: S_6  and  C_9
REMARK    8  A    between atoms: C_9  and  C_10
REMARK    9  A    between atoms: C_10  and  C_11
REMARK   10  A    between atoms: C_11  and  C_12
REMARK   11  A    between atoms: C_12  and  C_13
REMARK   12  A    between atoms: C_13  and  C_14
REMARK   13  A    between atoms: C_14  and  C_15
REMARK   14  A    between atoms: C_15  and  C_16
REMARK   15  A    between atoms: C_16  and  N_17
REMARK   16  A    between atoms: N_17  and  C_18
REMARK   17  A    between atoms: N_17  and  C_19
REMARK   18  A    between atoms: N_17  and  C_20
REMARK                            x       y       z     vdW  Elec       q    Type
REMARK                         _______ _______ _______ _____ _____    ______ ____
ROOT
ATOM      1  C   UNL     1       6.737   6.574  17.305  0.00  0.00    +0.000 C 
ENDROOT
BRANCH   1   2
ATOM      2  S   UNL     1       6.679   4.811  17.533  0.00  0.00    +0.000 S 
ATOM      3  O   UNL     1       7.872   4.443  18.271  0.00  0.00    +0.000 OA
ATOM      4  O   UNL     1       6.375   4.205  16.252  0.00  0.00    +0.000 OA
BRANCH   2   5
ATOM      5  C   UNL     1       5.272   4.601  18.602  0.00  0.00    +0.000 C 
BRANCH   5   6
ATOM      6  C   UNL     1       4.167   3.802  17.927  0.00  0.00    +0.000 C 
BRANCH   6   8
ATOM      7  C   UNL     1       1.730   4.412  17.780  0.00  0.00    +0.000 C 
ATOM      8  C   UNL     1       2.818   3.813  18.707  0.00  0.00    +0.000 C 
ATOM      9  C   UNL     1       2.444   2.350  19.012  0.00  0.00    +0.000 C 
BRANCH   8  10
ATOM     10  N   UNL     1       2.930   4.641  19.933  0.00  0.00    +0.000 NA
ATOM     11 CL   UNL     1       2.389   6.316  19.783  0.00  0.00    +0.000 Cl
ATOM     12 CL   UNL     1       2.223   3.942  21.396  0.00  0.00    +0.000 Cl
ENDBRANCH   8  10
ENDBRANCH   6   8
ENDBRANCH   5   6
ENDBRANCH   2   5
ENDBRANCH   1   2
BRANCH   1  13
ATOM     13  C   UNL     1       7.867   7.237  18.086  0.00  0.00    +0.000 C 
BRANCH  13  14
ATOM     14  C   UNL     1       8.006   8.720  17.768  0.00  0.00    +0.000 C 
BRANCH  14  15
ATOM     15  C   UNL     1       8.814   9.458  18.828  0.00  0.00    +0.000 C 
BRANCH  15  16
ATOM     16  C   UNL     1       9.583  10.603  18.200  0.00  0.00    +0.000 C 
BRANCH  16  17
ATOM     17  C   UNL     1       9.126  11.937  18.780  0.00  0.00    +0.000 C 
BRANCH  17  18
ATOM     18  C   UNL     1       8.884  12.980  17.690  0.00  0.00    +0.000 C 
BRANCH  18  19
ATOM     19  C   UNL     1       9.485  14.338  18.060  0.00  0.00    +0.000 C 
BRANCH  19  20
ATOM     20  N   UNL     1       8.445  15.373  18.495  0.00  0.00    +0.000 N 
ATOM     21  C   UNL     1       7.093  15.105  17.847  0.00  0.00    +0.000 C 
ATOM     22  C   UNL     1       8.301  15.401  20.014  0.00  0.00    +0.000 C 
ATOM     23  C   UNL     1       8.943  16.748  18.040  0.00  0.00    +0.000 C 
ENDBRANCH  19  20
ENDBRANCH  18  19
ENDBRANCH  17  18
ENDBRANCH  16  17
ENDBRANCH  15  16
ENDBRANCH  14  15
ENDBRANCH  13  14
ENDBRANCH   1  13
TORSDOF 13
ENDMDL
MODEL 5
REMARK VINA RESULT:      -6.1      4.798      6.560
REMARK  Name = 
REMARK  18 active torsions:
REMARK  status: ('A' for Active; 'I' for Inactive)
REMARK    1  A    between atoms: C_1  and  C_2
REMARK    2  A    between atoms: C_2  and  C_3
REMARK    3  A    between atoms: C_2  and  C_4
REMARK    4  A    between atoms: C_2  and  N_21
REMARK    5  A    between atoms: C_4  and  C_5
REMARK    6  A    between atoms: C_5  and  S_6
REMARK    7  A    between atoms: S_6  and  C_9
REMARK    8  A    between atoms: C_9  and  C_10
REMARK    9  A    between atoms: C_10  and  C_11
REMARK   10  A    between atoms: C_11  and  C_12
REMARK   11  A    between atoms: C_12  and  C_13
REMARK   12  A    between atoms: C_13  and  C_14
REMARK   13  A    between atoms: C_14  and  C_15
REMARK   14  A    between atoms: C_15  and  C_16
REMARK   15  A    between atoms: C_16  and  N_17
REMARK   16  A    between atoms: N_17  and  C_18
REMARK   17  A    between atoms: N_17  and  C_19
REMARK   18  A    between atoms: N_17  and  C_20
REMARK                            x       y       z     vdW  Elec       q    Type
REMARK                         _______ _______ _______ _____ _____    ______ ____
ROOT
ATOM      1  C   UNL     1       6.319   6.603  17.447  0.00  0.00    +0.000 C 
ENDROOT
BRANCH   1   2
ATOM      2  S   UNL     1       6.759   4.983  18.033  0.00  0.00    +0.000 S 
ATOM      3  O   UNL     1       6.917   5.085  19.471  0.00  0.00    +0.000 OA
ATOM      4  O   UNL     1       7.831   4.482  17.197  0.00  0.00    +0.000 OA
BRANCH   2   5
ATOM      5  C   UNL     1       5.292   4.033  17.697  0.00  0.00    +0.000 C 
BRANCH   5   6
ATOM      6  C   UNL     1       4.499   3.755  18.965  0.00  0.00    +0.000 C 
BRANCH   6   8
ATOM      7  C   UNL     1       2.651   3.497  17.277  0.00  0.00    +0.000 C 
ATOM      8  C   UNL     1       3.107   3.104  18.704  0.00  0.00    +0.000 C 
ATOM      9  C   UNL     1       3.293   1.575  18.750  0.00  0.00    +0.000 C 
BRANCH   8  10
ATOM     10  N   UNL     1       2.110   3.588  19.691  0.00  0.00    +0.000 NA
ATOM     11 CL   UNL     1       1.374   2.348  20.711  0.00  0.00    +0.000 Cl
ATOM     12 CL   UNL     1       2.636   4.931  20.714  0.00  0.00    +0.000 Cl
ENDBRANCH   8  10
ENDBRANCH   6   8
ENDBRANCH   5   6
ENDBRANCH   2   5
ENDBRANCH   1   2
BRANCH   1  13
ATOM     13  C   UNL     1       5.032   6.610  16.628  0.00  0.00    +0.000 C 
BRANCH  13  14
ATOM     14  C   UNL     1       4.026   7.638  17.128  0.00  0.00    +0.000 C 
BRANCH  14  15
ATOM     15  C   UNL     1       2.938   7.002  17.984  0.00  0.00    +0.000 C 
BRANCH  15  16
ATOM     16  C   UNL     1       2.180   8.069  18.748  0.00  0.00    +0.000 C 
BRANCH  16  17
ATOM     17  C   UNL     1       1.897   9.271  17.853  0.00  0.00    +0.000 C 
BRANCH  17  18
ATOM     18  C   UNL     1       0.513   9.861  18.111  0.00  0.00    +0.000 C 
BRANCH  18  19
ATOM     19  C   UNL     1       0.293  10.169  19.594  0.00  0.00    +0.000 C 
BRANCH  19  20
ATOM     20  N   UNL     1      -0.217  11.588  19.859  0.00  0.00    +0.000 N 
ATOM     21  C   UNL     1      -1.719  11.687  19.630  0.00  0.00    +0.000 C 
ATOM     22  C   UNL     1       0.128  12.040  21.274  0.00  0.00    +0.000 C 
ATOM     23  C   UNL     1       0.491  12.525  18.874  0.00  0.00    +0.000 C 
ENDBRANCH  19  20
ENDBRANCH  18  19
ENDBRANCH  17  18
ENDBRANCH  16  17
ENDBRANCH  15  16
ENDBRANCH  14  15
ENDBRANCH  13  14
ENDBRANCH   1  13
TORSDOF 13
ENDMDL
MODEL 6
REMARK VINA RESULT:      -6.1      1.636      2.197
REMARK  Name = 
REMARK  18 active torsions:
REMARK  status: ('A' for Active; 'I' for Inactive)
REMARK    1  A    between atoms: C_1  and  C_2
REMARK    2  A    between atoms: C_2  and  C_3
REMARK    3  A    between atoms: C_2  and  C_4
REMARK    4  A    between atoms: C_2  and  N_21
REMARK    5  A    between atoms: C_4  and  C_5
REMARK    6  A    between atoms: C_5  and  S_6
REMARK    7  A    between atoms: S_6  and  C_9
REMARK    8  A    between atoms: C_9  and  C_10
REMARK    9  A    between atoms: C_10  and  C_11
REMARK   10  A    between atoms: C_11  and  C_12
REMARK   11  A    between atoms: C_12  and  C_13
REMARK   12  A    between atoms: C_13  and  C_14
REMARK   13  A    between atoms: C_14  and  C_15
REMARK   14  A    between atoms: C_15  and  C_16
REMARK   15  A    between atoms: C_16  and  N_17
REMARK   16  A    between atoms: N_17  and  C_18
REMARK   17  A    between atoms: N_17  and  C_19
REMARK   18  A    between atoms: N_17  and  C_20
REMARK                            x       y       z     vdW  Elec       q    Type
REMARK                         _______ _______ _______ _____ _____    ______ ____
ROOT
ATOM      1  C   UNL     1       6.410   6.258  17.932  0.00  0.00    +0.000 C 
ENDROOT
BRANCH   1   2
ATOM      2  S   UNL     1       5.323   5.595  16.690  0.00  0.00    +0.000 S 
ATOM      3  O   UNL     1       5.711   4.213  16.486  0.00  0.00    +0.000 OA
ATOM      4  O   UNL     1       5.284   6.532  15.586  0.00  0.00    +0.000 OA
BRANCH   2   5
ATOM      5  C   UNL     1       3.740   5.618  17.503  0.00  0.00    +0.000 C 
BRANCH   5   6
ATOM      6  C   UNL     1       3.819   5.032  18.905  0.00  0.00    +0.000 C 
BRANCH   6   8
ATOM      7  C   UNL     1       1.798   5.217  20.391  0.00  0.00    +0.000 C 
ATOM      8  C   UNL     1       2.514   4.311  19.359  0.00  0.00    +0.000 C 
ATOM      9  C   UNL     1       1.605   4.172  18.122  0.00  0.00    +0.000 C 
BRANCH   8  10
ATOM     10  N   UNL     1       2.830   3.004  19.985  0.00  0.00    +0.000 NA
ATOM     11 CL   UNL     1       4.515   2.486  19.877  0.00  0.00    +0.000 Cl
ATOM     12 CL   UNL     1       2.275   2.800  21.653  0.00  0.00    +0.000 Cl
ENDBRANCH   8  10
ENDBRANCH   6   8
ENDBRANCH   5   6
ENDBRANCH   2   5
ENDBRANCH   1   2
BRANCH   1  13
ATOM     13  C   UNL     1       7.508   7.143  17.350  0.00  0.00    +0.000 C 
BRANCH  13  14
ATOM     14  C   UNL     1       8.300   7.875  18.425  0.00  0.00    +0.000 C 
BRANCH  14  15
ATOM     15  C   UNL     1       8.435   9.362  18.121  0.00  0.00    +0.000 C 
BRANCH  15  16
ATOM     16  C   UNL     1       9.193  10.058  19.234  0.00  0.00    +0.000 C 
BRANCH  16  17
ATOM     17  C   UNL     1      10.049  11.188  18.673  0.00  0.00    +0.000 C 
BRANCH  17  18
ATOM     18  C   UNL     1      10.988  11.770  19.728  0.00  0.00    +0.000 C 
BRANCH  18  19
ATOM     19  C   UNL     1      11.309  13.241  19.453  0.00  0.00    +0.000 C 
BRANCH  19  20
ATOM     20  N   UNL     1      10.427  14.220  20.233  0.00  0.00    +0.000 N 
ATOM     21  C   UNL     1       9.856  13.571  21.487  0.00  0.00    +0.000 C 
ATOM     22  C   UNL     1      11.201  15.481  20.602  0.00  0.00    +0.000 C 
ATOM     23  C   UNL     1       9.266  14.625  19.319  0.00  0.00    +0.000 C 
ENDBRANCH  19  20
ENDBRANCH  18  19
ENDBRANCH  17  18
ENDBRANCH  16  17
ENDBRANCH  15  16
ENDBRANCH  14  15
ENDBRANCH  13  14
ENDBRANCH   1  13
TORSDOF 13
ENDMDL
MODEL 7
REMARK VINA RESULT:      -6.1      1.252      1.802
REMARK  Name = 
REMARK  18 active torsions:
REMARK  status: ('A' for Active; 'I' for Inactive)
REMARK    1  A    between atoms: C_1  and  C_2
REMARK    2  A    between atoms: C_2  and  C_3
REMARK    3  A    between atoms: C_2  and  C_4
REMARK    4  A    between atoms: C_2  and  N_21
REMARK    5  A    between atoms: C_4  and  C_5
REMARK    6  A    between atoms: C_5  and  S_6
REMARK    7  A    between atoms: S_6  and  C_9
REMARK    8  A    between atoms: C_9  and  C_10
REMARK    9  A    between atoms: C_10  and  C_11
REMARK   10  A    between atoms: C_11  and  C_12
REMARK   11  A    between atoms: C_12  and  C_13
REMARK   12  A    between atoms: C_13  and  C_14
REMARK   13  A    between atoms: C_14  and  C_15
REMARK   14  A    between atoms: C_15  and  C_16
REMARK   15  A    between atoms: C_16  and  N_17
REMARK   16  A    between atoms: N_17  and  C_18
REMARK   17  A    between atoms: N_17  and  C_19
REMARK   18  A    between atoms: N_17  and  C_20
REMARK                            x       y       z     vdW  Elec       q    Type
REMARK                         _______ _______ _______ _____ _____    ______ ____
ROOT
ATOM      1  C   UNL     1       6.358   6.712  17.894  0.00  0.00    +0.000 C 
ENDROOT
BRANCH   1   2
ATOM      2  S   UNL     1       6.291   5.211  18.846  0.00  0.00    +0.000 S 
ATOM      3  O   UNL     1       7.111   5.424  20.024  0.00  0.00    +0.000 OA
ATOM      4  O   UNL     1       6.544   4.102  17.949  0.00  0.00    +0.000 OA
BRANCH   2   5
ATOM      5  C   UNL     1       4.587   5.147  19.355  0.00  0.00    +0.000 C 
BRANCH   5   6
ATOM      6  C   UNL     1       4.032   3.732  19.282  0.00  0.00    +0.000 C 
BRANCH   6   8
ATOM      7  C   UNL     1       2.192   4.853  17.983  0.00  0.00    +0.000 C 
ATOM      8  C   UNL     1       2.515   3.670  18.930  0.00  0.00    +0.000 C 
ATOM      9  C   UNL     1       2.267   2.354  18.167  0.00  0.00    +0.000 C 
BRANCH   8  10
ATOM     10  N   UNL     1       1.689   3.782  20.157  0.00  0.00    +0.000 NA
ATOM     11 CL   UNL     1       2.209   2.796  21.527  0.00  0.00    +0.000 Cl
ATOM     12 CL   UNL     1       1.379   5.429  20.725  0.00  0.00    +0.000 Cl
ENDBRANCH   8  10
ENDBRANCH   6   8
ENDBRANCH   5   6
ENDBRANCH   2   5
ENDBRANCH   1   2
BRANCH   1  13
ATOM     13  C   UNL     1       7.783   7.130  17.543  0.00  0.00    +0.000 C 
BRANCH  13  14
ATOM     14  C   UNL     1       8.242   8.354  18.323  0.00  0.00    +0.000 C 
BRANCH  14  15
ATOM     15  C   UNL     1       8.036   9.642  17.536  0.00  0.00    +0.000 C 
BRANCH  15  16
ATOM     16  C   UNL     1       8.802  10.780  18.181  0.00  0.00    +0.000 C 
BRANCH  16  17
ATOM     17  C   UNL     1       9.423  10.329  19.499  0.00  0.00    +0.000 C 
BRANCH  17  18
ATOM     18  C   UNL     1      10.539  11.266  19.954  0.00  0.00    +0.000 C 
BRANCH  18  19
ATOM     19  C   UNL     1      11.066  12.124  18.801  0.00  0.00    +0.000 C 
BRANCH  19  20
ATOM     20  N   UNL     1      10.924  13.630  19.040  0.00  0.00    +0.000 N 
ATOM     21  C   UNL     1      10.298  14.324  17.838  0.00  0.00    +0.000 C 
ATOM     22  C   UNL     1      10.103  13.911  20.294  0.00  0.00    +0.000 C 
ATOM     23  C   UNL     1      12.330  14.198  19.256  0.00  0.00    +0.000 C 
ENDBRANCH  19  20
ENDBRANCH  18  19
ENDBRANCH  17  18
ENDBRANCH  16  17
ENDBRANCH  15  16
ENDBRANCH  14  15
ENDBRANCH  13  14
ENDBRANCH   1  13
TORSDOF 13
ENDMDL
MODEL 8
REMARK VINA RESULT:      -6.1      1.745      2.707
REMARK  Name = 
REMARK  18 active torsions:
REMARK  status: ('A' for Active; 'I' for Inactive)
REMARK    1  A    between atoms: C_1  and  C_2
REMARK    2  A    between atoms: C_2  and  C_3
REMARK    3  A    between atoms: C_2  and  C_4
REMARK    4  A    between atoms: C_2  and  N_21
REMARK    5  A    between atoms: C_4  and  C_5
REMARK    6  A    between atoms: C_5  and  S_6
REMARK    7  A    between atoms: S_6  and  C_9
REMARK    8  A    between atoms: C_9  and  C_10
REMARK    9  A    between atoms: C_10  and  C_11
REMARK   10  A    between atoms: C_11  and  C_12
REMARK   11  A    between atoms: C_12  and  C_13
REMARK   12  A    between atoms: C_13  and  C_14
REMARK   13  A    between atoms: C_14  and  C_15
REMARK   14  A    between atoms: C_15  and  C_16
REMARK   15  A    between atoms: C_16  and  N_17
REMARK   16  A    between atoms: N_17  and  C_18
REMARK   17  A    between atoms: N_17  and  C_19
REMARK   18  A    between atoms: N_17  and  C_20
REMARK                            x       y       z     vdW  Elec       q    Type
REMARK                         _______ _______ _______ _____ _____    ______ ____
ROOT
ATOM      1  C   UNL     1       7.912   6.742  18.313  0.00  0.00    +0.000 C 
ENDROOT
BRANCH   1   2
ATOM      2  S   UNL     1       7.003   5.623  17.272  0.00  0.00    +0.000 S 
ATOM      3  O   UNL     1       7.868   4.486  17.021  0.00  0.00    +0.000 OA
ATOM      4  O   UNL     1       6.438   6.388  16.179  0.00  0.00    +0.000 OA
BRANCH   2   5
ATOM      5  C   UNL     1       5.676   5.093  18.333  0.00  0.00    +0.000 C 
BRANCH   5   6
ATOM      6  C   UNL     1       4.598   4.351  17.557  0.00  0.00    +0.000 C 
BRANCH   6   8
ATOM      7  C   UNL     1       3.064   2.357  17.612  0.00  0.00    +0.000 C 
ATOM      8  C   UNL     1       3.633   3.523  18.459  0.00  0.00    +0.000 C 
ATOM      9  C   UNL     1       4.467   2.927  19.609  0.00  0.00    +0.000 C 
BRANCH   8  10
ATOM     10  N   UNL     1       2.516   4.371  18.944  0.00  0.00    +0.000 NA
ATOM     11 CL   UNL     1       2.517   4.729  20.673  0.00  0.00    +0.000 Cl
ATOM     12 CL   UNL     1       2.250   5.874  18.049  0.00  0.00    +0.000 Cl
ENDBRANCH   8  10
ENDBRANCH   6   8
ENDBRANCH   5   6
ENDBRANCH   2   5
ENDBRANCH   1   2
BRANCH   1  13
ATOM     13  C   UNL     1       7.911   8.175  17.788  0.00  0.00    +0.000 C 
BRANCH  13  14
ATOM     14  C   UNL     1       8.678   9.129  18.693  0.00  0.00    +0.000 C 
BRANCH  14  15
ATOM     15  C   UNL     1       8.982  10.452  18.001  0.00  0.00    +0.000 C 
BRANCH  15  16
ATOM     16  C   UNL     1      10.008  11.236  18.793  0.00  0.00    +0.000 C 
BRANCH  16  17
ATOM     17  C   UNL     1      11.050  11.848  17.863  0.00  0.00    +0.000 C 
BRANCH  17  18
ATOM     18  C   UNL     1      11.126  13.366  18.011  0.00  0.00    +0.000 C 
BRANCH  18  19
ATOM     19  C   UNL     1       9.737  14.009  17.988  0.00  0.00    +0.000 C 
BRANCH  19  20
ATOM     20  N   UNL     1       9.667  15.348  18.727  0.00  0.00    +0.000 N 
ATOM     21  C   UNL     1       8.948  16.402  17.897  0.00  0.00    +0.000 C 
ATOM     22  C   UNL     1       8.982  15.191  20.081  0.00  0.00    +0.000 C 
ATOM     23  C   UNL     1      11.105  15.816  18.974  0.00  0.00    +0.000 C 
ENDBRANCH  19  20
ENDBRANCH  18  19
ENDBRANCH  17  18
ENDBRANCH  16  17
ENDBRANCH  15  16
ENDBRANCH  14  15
ENDBRANCH  13  14
ENDBRANCH   1  13
TORSDOF 13
ENDMDL
MODEL 9
REMARK VINA RESULT:      -6.1      5.801      7.530
REMARK  Name = 
REMARK  18 active torsions:
REMARK  status: ('A' for Active; 'I' for Inactive)
REMARK    1  A    between atoms: C_1  and  C_2
REMARK    2  A    between atoms: C_2  and  C_3
REMARK    3  A    between atoms: C_2  and  C_4
REMARK    4  A    between atoms: C_2  and  N_21
REMARK    5  A    between atoms: C_4  and  C_5
REMARK    6  A    between atoms: C_5  and  S_6
REMARK    7  A    between atoms: S_6  and  C_9
REMARK    8  A    between atoms: C_9  and  C_10
REMARK    9  A    between atoms: C_10  and  C_11
REMARK   10  A    between atoms: C_11  and  C_12
REMARK   11  A    between atoms: C_12  and  C_13
REMARK   12  A    between atoms: C_13  and  C_14
REMARK   13  A    between atoms: C_14  and  C_15
REMARK   14  A    between atoms: C_15  and  C_16
REMARK   15  A    between atoms: C_16  and  N_17
REMARK   16  A    between atoms: N_17  and  C_18
REMARK   17  A    between atoms: N_17  and  C_19
REMARK   18  A    between atoms: N_17  and  C_20
REMARK                            x       y       z     vdW  Elec       q    Type
REMARK                         _______ _______ _______ _____ _____    ______ ____
ROOT
ATOM      1  C   UNL     1       2.879   3.133  20.483  0.00  0.00    +0.000 C 
ENDROOT
BRANCH   1   2
ATOM      2  S   UNL     1       3.957   2.737  19.124  0.00  0.00    +0.000 S 
ATOM      3  O   UNL     1       3.376   1.594  18.447  0.00  0.00    +0.000 OA
ATOM      4  O   UNL     1       5.314   2.697  19.629  0.00  0.00    +0.000 OA
BRANCH   2   5
ATOM      5  C   UNL     1       3.792   4.158  18.066  0.00  0.00    +0.000 C 
BRANCH   5   6
ATOM      6  C   UNL     1       5.003   5.073  18.161  0.00  0.00    +0.000 C 
BRANCH   6   8
ATOM      7  C   UNL     1       5.453   4.155  15.862  0.00  0.00    +0.000 C 
ATOM      8  C   UNL     1       5.666   5.382  16.784  0.00  0.00    +0.000 C 
ATOM      9  C   UNL     1       4.924   6.585  16.170  0.00  0.00    +0.000 C 
BRANCH   8  10
ATOM     10  N   UNL     1       7.119   5.630  16.947  0.00  0.00    +0.000 NA
ATOM     11 CL   UNL     1       7.566   7.244  17.506  0.00  0.00    +0.000 Cl
ATOM     12 CL   UNL     1       7.999   4.430  17.904  0.00  0.00    +0.000 Cl
ENDBRANCH   8  10
ENDBRANCH   6   8
ENDBRANCH   5   6
ENDBRANCH   2   5
ENDBRANCH   1   2
BRANCH   1  13
ATOM     13  C   UNL     1       1.434   3.361  20.048  0.00  0.00    +0.000 C 
BRANCH  13  14
ATOM     14  C   UNL     1       0.963   4.785  20.310  0.00  0.00    +0.000 C 
BRANCH  14  15
ATOM     15  C   UNL     1       2.089   5.674  20.822  0.00  0.00    +0.000 C 
BRANCH  15  16
ATOM     16  C   UNL     1       1.787   7.129  20.524  0.00  0.00    +0.000 C 
BRANCH  16  17
ATOM     17  C   UNL     1       2.166   7.473  19.088  0.00  0.00    +0.000 C 
BRANCH  17  18
ATOM     18  C   UNL     1       1.712   8.878  18.699  0.00  0.00    +0.000 C 
BRANCH  18  19
ATOM     19  C   UNL     1       0.804   9.497  19.764  0.00  0.00    +0.000 C 
BRANCH  19  20
ATOM     20  N   UNL     1       0.029  10.723  19.274  0.00  0.00    +0.000 N 
ATOM     21  C   UNL     1      -0.842  10.384  18.072  0.00  0.00    +0.000 C 
ATOM     22  C   UNL     1      -0.826  11.314  20.391  0.00  0.00    +0.000 C 
ATOM     23  C   UNL     1       1.055  11.780  18.853  0.00  0.00    +0.000 C 
ENDBRANCH  19  20
ENDBRANCH  18  19
ENDBRANCH  17  18
ENDBRANCH  16  17
ENDBRANCH  15  16
ENDBRANCH  14  15
ENDBRANCH  13  14
ENDBRANCH   1  13
TORSDOF 13
ENDMDL
