MODEL 1
REMARK VINA RESULT:      -6.7      0.000      0.000
REMARK  Name = 
REMARK  14 active torsions:
REMARK  status: ('A' for Active; 'I' for Inactive)
REMARK    1  A    between atoms: C_1  and  C_2
REMARK    2  A    between atoms: C_2  and  C_3
REMARK    3  A    between atoms: C_3  and  N_4
REMARK    4  A    between atoms: N_4  and  C_5
REMARK    5  A    between atoms: N_4  and  S_8
REMARK    6  A    between atoms: C_5  and  C_6
REMARK    7  A    between atoms: C_6  and  C_7
REMARK    8  A    between atoms: S_8  and  C_11
REMARK    9  A    between atoms: C_14  and  C_15
REMARK   10  A    between atoms: N_17  and  CA_18
REMARK   11  A    between atoms: CA_18  and  CB_19
REMARK   12  A    between atoms: CA_18  and  C_21
REMARK   13  A    between atoms: CB_19  and  SG_20
REMARK   14  A    between atoms: C_21  and  OXT_23
REMARK                            x       y       z     vdW  Elec       q    Type
REMARK                         _______ _______ _______ _____ _____    ______ ____
ROOT
ATOM      1  C   UNK A   0       3.985   5.732  18.259  0.00  0.00    +0.000 A 
ATOM      2  C   UNK A   0       4.154   6.744  17.304  0.00  0.00    +0.000 A 
ATOM      3  C   UNK A   0       3.382   7.908  17.393  0.00  0.00    +0.000 A 
ATOM      4  C   UNK A   0       2.454   8.064  18.429  0.00  0.00    +0.000 A 
ATOM      5  C   UNK A   0       2.275   7.027  19.362  0.00  0.00    +0.000 A 
ATOM      6  C   UNK A   0       3.044   5.864  19.281  0.00  0.00    +0.000 A 
ENDROOT
BRANCH   4   7
ATOM      7  C   UNK A   0       1.658   9.324  18.491  0.00  0.00    +0.000 C 
ATOM      8  O   UNK A   0       1.613  10.088  17.535  0.00  0.00    +0.000 OA
ATOM      9  N   CYS A   1       1.018   9.585  19.679  0.00  0.00    +0.000 N 
ATOM     10  H   CYS A   1       1.269   9.063  20.515  0.00  0.00    +0.000 HD
BRANCH   9  11
ATOM     11  CA  CYS A   1       0.260  10.821  19.915  0.00  0.00    +0.000 C 
BRANCH  11  12
ATOM     12  C   CYS A   1       0.496  11.225  21.378  0.00  0.00    +0.000 C 
ATOM     13  O   CYS A   1       0.333  12.372  21.784  0.00  0.00    +0.000 OA
BRANCH  12  14
ATOM     14  OXT CYS A   1       0.839  10.221  22.213  0.00  0.00    +0.000 OA
ATOM     15  HXT CYS A   1       1.778  10.169  22.465  0.00  0.00    +0.000 HD
ENDBRANCH  12  14
ENDBRANCH  11  12
BRANCH  11  16
ATOM     16  CB  CYS A   1      -1.229  10.678  19.570  0.00  0.00    +0.000 C 
BRANCH  16  17
ATOM     17  SG  CYS A   1      -1.721  11.569  18.056  0.00  0.00    +0.000 S 
ATOM     18  HG  CYS A   1      -1.268  10.648  17.190  0.00  0.00    +0.000 HD
ENDBRANCH  16  17
ENDBRANCH  11  16
ENDBRANCH   9  11
ENDBRANCH   4   7
BRANCH   1  19
ATOM     19  S   UNK A   0       4.884   4.208  18.062  0.00  0.00    +0.000 S 
ATOM     20  O   UNK A   0       3.968   3.311  17.397  0.00  0.00    +0.000 OA
ATOM     21  O   UNK A   0       5.441   3.851  19.357  0.00  0.00    +0.000 OA
BRANCH  19  22
ATOM     22  N   UNK A   0       6.209   4.673  17.018  0.00  0.00    +0.000 NA
BRANCH  22  23
ATOM     23  C   UNK A   0       7.490   4.744  17.832  0.00  0.00    +0.000 C 
BRANCH  23  25
ATOM     24  C   UNK A   0       7.631   7.291  17.606  0.00  0.00    +0.000 C 
ATOM     25  C   UNK A   0       7.815   6.080  18.500  0.00  0.00    +0.000 C 
ENDBRANCH  23  25
ENDBRANCH  22  23
BRANCH  22  26
ATOM     26  C   UNK A   0       6.341   3.826  15.784  0.00  0.00    +0.000 C 
BRANCH  26  27
ATOM     27  C   UNK A   0       6.275   4.637  14.482  0.00  0.00    +0.000 C 
ATOM     28  C   UNK A   0       6.091   3.746  13.263  0.00  0.00    +0.000 C 
ENDBRANCH  26  27
ENDBRANCH  22  26
ENDBRANCH  19  22
ENDBRANCH   1  19
TORSDOF 12
ENDMDL
MODEL 2
REMARK VINA RESULT:      -6.5      1.528      2.189
REMARK  Name = 
REMARK  14 active torsions:
REMARK  status: ('A' for Active; 'I' for Inactive)
REMARK    1  A    between atoms: C_1  and  C_2
REMARK    2  A    between atoms: C_2  and  C_3
REMARK    3  A    between atoms: C_3  and  N_4
REMARK    4  A    between atoms: N_4  and  C_5
REMARK    5  A    between atoms: N_4  and  S_8
REMARK    6  A    between atoms: C_5  and  C_6
REMARK    7  A    between atoms: C_6  and  C_7
REMARK    8  A    between atoms: S_8  and  C_11
REMARK    9  A    between atoms: C_14  and  C_15
REMARK   10  A    between atoms: N_17  and  CA_18
REMARK   11  A    between atoms: CA_18  and  CB_19
REMARK   12  A    between atoms: CA_18  and  C_21
REMARK   13  A    between atoms: CB_19  and  SG_20
REMARK   14  A    between atoms: C_21  and  OXT_23
REMARK                            x       y       z     vdW  Elec       q    Type
REMARK                         _______ _______ _______ _____ _____    ______ ____
ROOT
ATOM      1  C   UNK A   0       3.521   5.656  18.769  0.00  0.00    +0.000 A 
ATOM      2  C   UNK A   0       3.454   6.755  17.904  0.00  0.00    +0.000 A 
ATOM      3  C   UNK A   0       2.675   7.862  18.257  0.00  0.00    +0.000 A 
ATOM      4  C   UNK A   0       1.971   7.873  19.468  0.00  0.00    +0.000 A 
ATOM      5  C   UNK A   0       2.024   6.750  20.312  0.00  0.00    +0.000 A 
ATOM      6  C   UNK A   0       2.803   5.643  19.965  0.00  0.00    +0.000 A 
ENDROOT
BRANCH   4   7
ATOM      7  C   UNK A   0       1.158   9.076  19.809  0.00  0.00    +0.000 C 
ATOM      8  O   UNK A   0       0.806   9.293  20.962  0.00  0.00    +0.000 OA
ATOM      9  N   CYS A   1       0.805   9.893  18.761  0.00  0.00    +0.000 N 
ATOM     10  H   CYS A   1       0.904   9.561  17.805  0.00  0.00    +0.000 HD
BRANCH   9  11
ATOM     11  CA  CYS A   1      -0.056  11.071  18.930  0.00  0.00    +0.000 C 
BRANCH  11  12
ATOM     12  C   CYS A   1      -1.239  10.911  17.964  0.00  0.00    +0.000 C 
ATOM     13  O   CYS A   1      -1.948   9.910  17.945  0.00  0.00    +0.000 OA
BRANCH  12  14
ATOM     14  OXT CYS A   1      -1.491  11.973  17.169  0.00  0.00    +0.000 OA
ATOM     15  HXT CYS A   1      -1.041  12.805  17.402  0.00  0.00    +0.000 HD
ENDBRANCH  12  14
ENDBRANCH  11  12
BRANCH  11  16
ATOM     16  CB  CYS A   1       0.702  12.391  18.730  0.00  0.00    +0.000 C 
BRANCH  16  17
ATOM     17  SG  CYS A   1       0.229  13.697  19.914  0.00  0.00    +0.000 S 
ATOM     18  HG  CYS A   1      -0.994  13.213  20.184  0.00  0.00    +0.000 HD
ENDBRANCH  16  17
ENDBRANCH  11  16
ENDBRANCH   9  11
ENDBRANCH   4   7
BRANCH   1  19
ATOM     19  S   UNK A   0       4.417   4.207  18.248  0.00  0.00    +0.000 S 
ATOM     20  O   UNK A   0       3.425   3.341  17.656  0.00  0.00    +0.000 OA
ATOM     21  O   UNK A   0       5.206   3.745  19.379  0.00  0.00    +0.000 OA
BRANCH  19  22
ATOM     22  N   UNK A   0       5.521   4.846  17.050  0.00  0.00    +0.000 NA
BRANCH  22  23
ATOM     23  C   UNK A   0       6.945   4.729  17.564  0.00  0.00    +0.000 C 
BRANCH  23  25
ATOM     24  C   UNK A   0       7.396   7.248  17.474  0.00  0.00    +0.000 C 
ATOM     25  C   UNK A   0       7.536   5.957  18.257  0.00  0.00    +0.000 C 
ENDBRANCH  23  25
ENDBRANCH  22  23
BRANCH  22  26
ATOM     26  C   UNK A   0       5.339   4.259  15.678  0.00  0.00    +0.000 C 
BRANCH  26  27
ATOM     27  C   UNK A   0       6.521   4.537  14.739  0.00  0.00    +0.000 C 
ATOM     28  C   UNK A   0       6.317   3.916  13.366  0.00  0.00    +0.000 C 
ENDBRANCH  26  27
ENDBRANCH  22  26
ENDBRANCH  19  22
ENDBRANCH   1  19
TORSDOF 12
ENDMDL
MODEL 3
REMARK VINA RESULT:      -6.5      1.097      1.555
REMARK  Name = 
REMARK  14 active torsions:
REMARK  status: ('A' for Active; 'I' for Inactive)
REMARK    1  A    between atoms: C_1  and  C_2
REMARK    2  A    between atoms: C_2  and  C_3
REMARK    3  A    between atoms: C_3  and  N_4
REMARK    4  A    between atoms: N_4  and  C_5
REMARK    5  A    between atoms: N_4  and  S_8
REMARK    6  A    between atoms: C_5  and  C_6
REMARK    7  A    between atoms: C_6  and  C_7
REMARK    8  A    between atoms: S_8  and  C_11
REMARK    9  A    between atoms: C_14  and  C_15
REMARK   10  A    between atoms: N_17  and  CA_18
REMARK   11  A    between atoms: CA_18  and  CB_19
REMARK   12  A    between atoms: CA_18  and  C_21
REMARK   13  A    between atoms: CB_19  and  SG_20
REMARK   14  A    between atoms: C_21  and  OXT_23
REMARK                            x       y       z     vdW  Elec       q    Type
REMARK                         _______ _______ _______ _____ _____    ______ ____
ROOT
ATOM      1  C   UNK A   0       3.896   5.496  18.398  0.00  0.00    +0.000 A 
ATOM      2  C   UNK A   0       3.123   5.498  19.567  0.00  0.00    +0.000 A 
ATOM      3  C   UNK A   0       2.334   6.613  19.868  0.00  0.00    +0.000 A 
ATOM      4  C   UNK A   0       2.311   7.717  19.005  0.00  0.00    +0.000 A 
ATOM      5  C   UNK A   0       3.115   7.712  17.852  0.00  0.00    +0.000 A 
ATOM      6  C   UNK A   0       3.903   6.600  17.545  0.00  0.00    +0.000 A 
ENDROOT
BRANCH   4   7
ATOM      7  C   UNK A   0       1.450   8.882  19.359  0.00  0.00    +0.000 C 
ATOM      8  O   UNK A   0       0.892   8.946  20.447  0.00  0.00    +0.000 OA
ATOM      9  N   CYS A   1       1.297   9.845  18.391  0.00  0.00    +0.000 N 
ATOM     10  H   CYS A   1       1.570   9.647  17.431  0.00  0.00    +0.000 HD
BRANCH   9  11
ATOM     11  CA  CYS A   1       0.420  11.011  18.565  0.00  0.00    +0.000 C 
BRANCH  11  12
ATOM     12  C   CYS A   1       1.030  11.875  19.679  0.00  0.00    +0.000 C 
ATOM     13  O   CYS A   1       2.013  12.588  19.503  0.00  0.00    +0.000 OA
BRANCH  12  14
ATOM     14  OXT CYS A   1       0.377  11.848  20.861  0.00  0.00    +0.000 OA
ATOM     15  HXT CYS A   1      -0.139  12.642  21.089  0.00  0.00    +0.000 HD
ENDBRANCH  12  14
ENDBRANCH  11  12
BRANCH  11  16
ATOM     16  CB  CYS A   1      -1.037  10.620  18.845  0.00  0.00    +0.000 C 
BRANCH  16  17
ATOM     17  SG  CYS A   1      -1.961  10.111  17.356  0.00  0.00    +0.000 S 
ATOM     18  HG  CYS A   1      -1.659   8.805  17.436  0.00  0.00    +0.000 HD
ENDBRANCH  16  17
ENDBRANCH  11  16
ENDBRANCH   9  11
ENDBRANCH   4   7
BRANCH   1  19
ATOM     19  S   UNK A   0       4.988   4.122  18.094  0.00  0.00    +0.000 S 
ATOM     20  O   UNK A   0       4.208   3.183  17.322  0.00  0.00    +0.000 OA
ATOM     21  O   UNK A   0       5.559   3.720  19.370  0.00  0.00    +0.000 OA
BRANCH  19  22
ATOM     22  N   UNK A   0       6.263   4.847  17.140  0.00  0.00    +0.000 NA
BRANCH  22  23
ATOM     23  C   UNK A   0       7.496   5.033  18.007  0.00  0.00    +0.000 C 
BRANCH  23  25
ATOM     24  C   UNK A   0       7.589   7.549  17.540  0.00  0.00    +0.000 C 
ATOM     25  C   UNK A   0       7.752   6.436  18.557  0.00  0.00    +0.000 C 
ENDBRANCH  23  25
ENDBRANCH  22  23
BRANCH  22  26
ATOM     26  C   UNK A   0       6.550   4.124  15.854  0.00  0.00    +0.000 C 
BRANCH  26  27
ATOM     27  C   UNK A   0       5.791   4.700  14.652  0.00  0.00    +0.000 C 
ATOM     28  C   UNK A   0       5.967   3.849  13.404  0.00  0.00    +0.000 C 
ENDBRANCH  26  27
ENDBRANCH  22  26
ENDBRANCH  19  22
ENDBRANCH   1  19
TORSDOF 12
ENDMDL
MODEL 4
REMARK VINA RESULT:      -6.5      2.053      8.390
REMARK  Name = 
REMARK  14 active torsions:
REMARK  status: ('A' for Active; 'I' for Inactive)
REMARK    1  A    between atoms: C_1  and  C_2
REMARK    2  A    between atoms: C_2  and  C_3
REMARK    3  A    between atoms: C_3  and  N_4
REMARK    4  A    between atoms: N_4  and  C_5
REMARK    5  A    between atoms: N_4  and  S_8
REMARK    6  A    between atoms: C_5  and  C_6
REMARK    7  A    between atoms: C_6  and  C_7
REMARK    8  A    between atoms: S_8  and  C_11
REMARK    9  A    between atoms: C_14  and  C_15
REMARK   10  A    between atoms: N_17  and  CA_18
REMARK   11  A    between atoms: CA_18  and  CB_19
REMARK   12  A    between atoms: CA_18  and  C_21
REMARK   13  A    between atoms: CB_19  and  SG_20
REMARK   14  A    between atoms: C_21  and  OXT_23
REMARK                            x       y       z     vdW  Elec       q    Type
REMARK                         _______ _______ _______ _____ _____    ______ ____
ROOT
ATOM      1  C   UNK A   0       1.556   8.577  19.827  0.00  0.00    +0.000 A 
ATOM      2  C   UNK A   0       1.767   7.324  20.417  0.00  0.00    +0.000 A 
ATOM      3  C   UNK A   0       2.458   6.337  19.706  0.00  0.00    +0.000 A 
ATOM      4  C   UNK A   0       2.940   6.600  18.417  0.00  0.00    +0.000 A 
ATOM      5  C   UNK A   0       2.694   7.852  17.827  0.00  0.00    +0.000 A 
ATOM      6  C   UNK A   0       2.007   8.842  18.533  0.00  0.00    +0.000 A 
ENDROOT
BRANCH   4   7
ATOM      7  C   UNK A   0       3.677   5.521  17.697  0.00  0.00    +0.000 C 
ATOM      8  O   UNK A   0       3.155   4.435  17.483  0.00  0.00    +0.000 OA
ATOM      9  N   CYS A   1       4.970   5.807  17.328  0.00  0.00    +0.000 N 
ATOM     10  H   CYS A   1       5.446   6.613  17.728  0.00  0.00    +0.000 HD
BRANCH   9  11
ATOM     11  CA  CYS A   1       5.846   4.821  16.681  0.00  0.00    +0.000 C 
BRANCH  11  12
ATOM     12  C   CYS A   1       7.007   4.543  17.647  0.00  0.00    +0.000 C 
ATOM     13  O   CYS A   1       8.134   4.245  17.261  0.00  0.00    +0.000 OA
BRANCH  12  14
ATOM     14  OXT CYS A   1       6.728   4.705  18.958  0.00  0.00    +0.000 OA
ATOM     15  HXT CYS A   1       5.886   4.327  19.271  0.00  0.00    +0.000 HD
ENDBRANCH  12  14
ENDBRANCH  11  12
BRANCH  11  16
ATOM     16  CB  CYS A   1       6.321   5.272  15.293  0.00  0.00    +0.000 C 
BRANCH  16  17
ATOM     17  SG  CYS A   1       6.153   3.990  14.006  0.00  0.00    +0.000 S 
ATOM     18  HG  CYS A   1       7.457   3.675  13.942  0.00  0.00    +0.000 HD
ENDBRANCH  16  17
ENDBRANCH  11  16
ENDBRANCH   9  11
ENDBRANCH   4   7
BRANCH   1  19
ATOM     19  S   UNK A   0       0.570   9.779  20.694  0.00  0.00    +0.000 S 
ATOM     20  O   UNK A   0       1.449  10.340  21.693  0.00  0.00    +0.000 OA
ATOM     21  O   UNK A   0      -0.668   9.129  21.096  0.00  0.00    +0.000 OA
BRANCH  19  22
ATOM     22  N   UNK A   0       0.185  10.939  19.443  0.00  0.00    +0.000 NA
BRANCH  22  23
ATOM     23  C   UNK A   0      -1.260  10.754  19.011  0.00  0.00    +0.000 C 
BRANCH  23  25
ATOM     24  C   UNK A   0      -2.960   9.822  17.338  0.00  0.00    +0.000 C 
ATOM     25  C   UNK A   0      -1.500  10.073  17.664  0.00  0.00    +0.000 C 
ENDBRANCH  23  25
ENDBRANCH  22  23
BRANCH  22  26
ATOM     26  C   UNK A   0       0.515  12.360  19.804  0.00  0.00    +0.000 C 
BRANCH  26  27
ATOM     27  C   UNK A   0       1.115  13.158  18.639  0.00  0.00    +0.000 C 
ATOM     28  C   UNK A   0       2.457  12.597  18.194  0.00  0.00    +0.000 C 
ENDBRANCH  26  27
ENDBRANCH  22  26
ENDBRANCH  19  22
ENDBRANCH   1  19
TORSDOF 12
ENDMDL
MODEL 5
REMARK VINA RESULT:      -6.5      1.537      2.328
REMARK  Name = 
REMARK  14 active torsions:
REMARK  status: ('A' for Active; 'I' for Inactive)
REMARK    1  A    between atoms: C_1  and  C_2
REMARK    2  A    between atoms: C_2  and  C_3
REMARK    3  A    between atoms: C_3  and  N_4
REMARK    4  A    between atoms: N_4  and  C_5
REMARK    5  A    between atoms: N_4  and  S_8
REMARK    6  A    between atoms: C_5  and  C_6
REMARK    7  A    between atoms: C_6  and  C_7
REMARK    8  A    between atoms: S_8  and  C_11
REMARK    9  A    between atoms: C_14  and  C_15
REMARK   10  A    between atoms: N_17  and  CA_18
REMARK   11  A    between atoms: CA_18  and  CB_19
REMARK   12  A    between atoms: CA_18  and  C_21
REMARK   13  A    between atoms: CB_19  and  SG_20
REMARK   14  A    between atoms: C_21  and  OXT_23
REMARK                            x       y       z     vdW  Elec       q    Type
REMARK                         _______ _______ _______ _____ _____    ______ ____
ROOT
ATOM      1  C   UNK A   0       3.481   5.302  18.801  0.00  0.00    +0.000 A 
ATOM      2  C   UNK A   0       2.815   5.181  20.027  0.00  0.00    +0.000 A 
ATOM      3  C   UNK A   0       2.079   6.264  20.520  0.00  0.00    +0.000 A 
ATOM      4  C   UNK A   0       2.004   7.458  19.792  0.00  0.00    +0.000 A 
ATOM      5  C   UNK A   0       2.703   7.575  18.577  0.00  0.00    +0.000 A 
ATOM      6  C   UNK A   0       3.437   6.495  18.079  0.00  0.00    +0.000 A 
ENDROOT
BRANCH   4   7
ATOM      7  C   UNK A   0       1.203   8.586  20.350  0.00  0.00    +0.000 C 
ATOM      8  O   UNK A   0       0.874   8.602  21.529  0.00  0.00    +0.000 OA
ATOM      9  N   CYS A   1       0.833   9.569  19.464  0.00  0.00    +0.000 N 
ATOM     10  H   CYS A   1       0.912   9.406  18.462  0.00  0.00    +0.000 HD
BRANCH   9  11
ATOM     11  CA  CYS A   1      -0.020  10.702  19.848  0.00  0.00    +0.000 C 
BRANCH  11  12
ATOM     12  C   CYS A   1      -0.944  10.999  18.658  0.00  0.00    +0.000 C 
ATOM     13  O   CYS A   1      -1.959  10.347  18.427  0.00  0.00    +0.000 OA
BRANCH  12  14
ATOM     14  OXT CYS A   1      -0.603  12.068  17.906  0.00  0.00    +0.000 OA
ATOM     15  HXT CYS A   1      -0.695  12.941  18.328  0.00  0.00    +0.000 HD
ENDBRANCH  12  14
ENDBRANCH  11  12
BRANCH  11  16
ATOM     16  CB  CYS A   1       0.789  11.928  20.294  0.00  0.00    +0.000 C 
BRANCH  16  17
ATOM     17  SG  CYS A   1      -0.074  12.974  21.515  0.00  0.00    +0.000 S 
ATOM     18  HG  CYS A   1       0.770  12.738  22.532  0.00  0.00    +0.000 HD
ENDBRANCH  16  17
ENDBRANCH  11  16
ENDBRANCH   9  11
ENDBRANCH   4   7
BRANCH   1  19
ATOM     19  S   UNK A   0       4.513   3.960  18.249  0.00  0.00    +0.000 S 
ATOM     20  O   UNK A   0       3.608   3.013  17.641  0.00  0.00    +0.000 OA
ATOM     21  O   UNK A   0       5.347   3.554  19.368  0.00  0.00    +0.000 OA
BRANCH  19  22
ATOM     22  N   UNK A   0       5.544   4.728  17.062  0.00  0.00    +0.000 NA
BRANCH  22  23
ATOM     23  C   UNK A   0       6.992   4.625  17.511  0.00  0.00    +0.000 C 
BRANCH  23  25
ATOM     24  C   UNK A   0       7.363   7.159  17.492  0.00  0.00    +0.000 C 
ATOM     25  C   UNK A   0       7.588   5.845  18.214  0.00  0.00    +0.000 C 
ENDBRANCH  23  25
ENDBRANCH  22  23
BRANCH  22  26
ATOM     26  C   UNK A   0       5.327   4.240  15.657  0.00  0.00    +0.000 C 
BRANCH  26  27
ATOM     27  C   UNK A   0       6.588   4.318  14.787  0.00  0.00    +0.000 C 
ATOM     28  C   UNK A   0       6.327   3.859  13.360  0.00  0.00    +0.000 C 
ENDBRANCH  26  27
ENDBRANCH  22  26
ENDBRANCH  19  22
ENDBRANCH   1  19
TORSDOF 12
ENDMDL
MODEL 6
REMARK VINA RESULT:      -6.2      2.209      3.690
REMARK  Name = 
REMARK  14 active torsions:
REMARK  status: ('A' for Active; 'I' for Inactive)
REMARK    1  A    between atoms: C_1  and  C_2
REMARK    2  A    between atoms: C_2  and  C_3
REMARK    3  A    between atoms: C_3  and  N_4
REMARK    4  A    between atoms: N_4  and  C_5
REMARK    5  A    between atoms: N_4  and  S_8
REMARK    6  A    between atoms: C_5  and  C_6
REMARK    7  A    between atoms: C_6  and  C_7
REMARK    8  A    between atoms: S_8  and  C_11
REMARK    9  A    between atoms: C_14  and  C_15
REMARK   10  A    between atoms: N_17  and  CA_18
REMARK   11  A    between atoms: CA_18  and  CB_19
REMARK   12  A    between atoms: CA_18  and  C_21
REMARK   13  A    between atoms: CB_19  and  SG_20
REMARK   14  A    between atoms: C_21  and  OXT_23
REMARK                            x       y       z     vdW  Elec       q    Type
REMARK                         _______ _______ _______ _____ _____    ______ ____
ROOT
ATOM      1  C   UNK A   0       3.356   6.685  18.612  0.00  0.00    +0.000 A 
ATOM      2  C   UNK A   0       2.648   6.711  19.821  0.00  0.00    +0.000 A 
ATOM      3  C   UNK A   0       1.722   7.734  20.054  0.00  0.00    +0.000 A 
ATOM      4  C   UNK A   0       1.500   8.720  19.085  0.00  0.00    +0.000 A 
ATOM      5  C   UNK A   0       2.239   8.698  17.890  0.00  0.00    +0.000 A 
ATOM      6  C   UNK A   0       3.163   7.677  17.651  0.00  0.00    +0.000 A 
ENDROOT
BRANCH   4   7
ATOM      7  C   UNK A   0       0.498   9.788  19.370  0.00  0.00    +0.000 C 
ATOM      8  O   UNK A   0       0.028   9.928  20.492  0.00  0.00    +0.000 OA
ATOM      9  N   CYS A   1       0.115  10.568  18.305  0.00  0.00    +0.000 N 
ATOM     10  H   CYS A   1       0.336  10.274  17.356  0.00  0.00    +0.000 HD
BRANCH   9  11
ATOM     11  CA  CYS A   1      -0.916  11.608  18.414  0.00  0.00    +0.000 C 
BRANCH  11  12
ATOM     12  C   CYS A   1      -2.041  11.236  17.436  0.00  0.00    +0.000 C 
ATOM     13  O   CYS A   1      -1.976  10.263  16.691  0.00  0.00    +0.000 OA
BRANCH  12  14
ATOM     14  OXT CYS A   1      -3.141  12.017  17.488  0.00  0.00    +0.000 OA
ATOM     15  HXT CYS A   1      -3.037  12.933  17.174  0.00  0.00    +0.000 HD
ENDBRANCH  12  14
ENDBRANCH  11  12
BRANCH  11  16
ATOM     16  CB  CYS A   1      -0.362  13.019  18.175  0.00  0.00    +0.000 C 
BRANCH  16  17
ATOM     17  SG  CYS A   1      -0.573  14.142  19.597  0.00  0.00    +0.000 S 
ATOM     18  HG  CYS A   1      -0.996  13.206  20.461  0.00  0.00    +0.000 HD
ENDBRANCH  16  17
ENDBRANCH  11  16
ENDBRANCH   9  11
ENDBRANCH   4   7
BRANCH   1  19
ATOM     19  S   UNK A   0       4.618   5.450  18.384  0.00  0.00    +0.000 S 
ATOM     20  O   UNK A   0       4.577   4.641  19.579  0.00  0.00    +0.000 OA
ATOM     21  O   UNK A   0       5.845   6.135  18.010  0.00  0.00    +0.000 OA
BRANCH  19  22
ATOM     22  N   UNK A   0       4.047   4.569  16.984  0.00  0.00    +0.000 NA
BRANCH  22  23
ATOM     23  C   UNK A   0       5.237   4.114  16.156  0.00  0.00    +0.000 C 
BRANCH  23  25
ATOM     24  C   UNK A   0       6.875   4.817  14.317  0.00  0.00    +0.000 C 
ATOM     25  C   UNK A   0       5.437   4.789  14.799  0.00  0.00    +0.000 C 
ENDBRANCH  23  25
ENDBRANCH  22  23
BRANCH  22  26
ATOM     26  C   UNK A   0       3.095   3.454  17.310  0.00  0.00    +0.000 C 
BRANCH  26  27
ATOM     27  C   UNK A   0       1.680   3.944  17.646  0.00  0.00    +0.000 C 
ATOM     28  C   UNK A   0       1.197   3.416  18.989  0.00  0.00    +0.000 C 
ENDBRANCH  26  27
ENDBRANCH  22  26
ENDBRANCH  19  22
ENDBRANCH   1  19
TORSDOF 12
ENDMDL
MODEL 7
REMARK VINA RESULT:      -6.2      1.806      2.647
REMARK  Name = 
REMARK  14 active torsions:
REMARK  status: ('A' for Active; 'I' for Inactive)
REMARK    1  A    between atoms: C_1  and  C_2
REMARK    2  A    between atoms: C_2  and  C_3
REMARK    3  A    between atoms: C_3  and  N_4
REMARK    4  A    between atoms: N_4  and  C_5
REMARK    5  A    between atoms: N_4  and  S_8
REMARK    6  A    between atoms: C_5  and  C_6
REMARK    7  A    between atoms: C_6  and  C_7
REMARK    8  A    between atoms: S_8  and  C_11
REMARK    9  A    between atoms: C_14  and  C_15
REMARK   10  A    between atoms: N_17  and  CA_18
REMARK   11  A    between atoms: CA_18  and  CB_19
REMARK   12  A    between atoms: CA_18  and  C_21
REMARK   13  A    between atoms: CB_19  and  SG_20
REMARK   14  A    between atoms: C_21  and  OXT_23
REMARK                            x       y       z     vdW  Elec       q    Type
REMARK                         _______ _______ _______ _____ _____    ______ ____
ROOT
ATOM      1  C   UNK A   0       3.418   6.308  18.539  0.00  0.00    +0.000 A 
ATOM      2  C   UNK A   0       2.741   6.402  19.762  0.00  0.00    +0.000 A 
ATOM      3  C   UNK A   0       1.913   7.503  20.006  0.00  0.00    +0.000 A 
ATOM      4  C   UNK A   0       1.757   8.500  19.034  0.00  0.00    +0.000 A 
ATOM      5  C   UNK A   0       2.466   8.405  17.824  0.00  0.00    +0.000 A 
ATOM      6  C   UNK A   0       3.292   7.307  17.574  0.00  0.00    +0.000 A 
ENDROOT
BRANCH   4   7
ATOM      7  C   UNK A   0       0.858   9.652  19.333  0.00  0.00    +0.000 C 
ATOM      8  O   UNK A   0       0.766  10.103  20.467  0.00  0.00    +0.000 OA
ATOM      9  N   CYS A   1       0.125  10.144  18.279  0.00  0.00    +0.000 N 
ATOM     10  H   CYS A   1       0.042   9.602  17.422  0.00  0.00    +0.000 HD
BRANCH   9  11
ATOM     11  CA  CYS A   1      -0.857  11.226  18.433  0.00  0.00    +0.000 C 
BRANCH  11  12
ATOM     12  C   CYS A   1      -1.965  10.983  17.397  0.00  0.00    +0.000 C 
ATOM     13  O   CYS A   1      -2.048   9.946  16.745  0.00  0.00    +0.000 OA
BRANCH  12  14
ATOM     14  OXT CYS A   1      -2.887  11.964  17.288  0.00  0.00    +0.000 OA
ATOM     15  HXT CYS A   1      -2.651  12.825  17.678  0.00  0.00    +0.000 HD
ENDBRANCH  12  14
ENDBRANCH  11  12
BRANCH  11  16
ATOM     16  CB  CYS A   1      -0.226  12.620  18.315  0.00  0.00    +0.000 C 
BRANCH  16  17
ATOM     17  SG  CYS A   1      -0.338  13.609  19.844  0.00  0.00    +0.000 S 
ATOM     18  HG  CYS A   1      -0.828  14.717  19.266  0.00  0.00    +0.000 HD
ENDBRANCH  16  17
ENDBRANCH  11  16
ENDBRANCH   9  11
ENDBRANCH   4   7
BRANCH   1  19
ATOM     19  S   UNK A   0       4.563   4.966  18.294  0.00  0.00    +0.000 S 
ATOM     20  O   UNK A   0       3.739   3.796  18.096  0.00  0.00    +0.000 OA
ATOM     21  O   UNK A   0       5.526   5.001  19.382  0.00  0.00    +0.000 OA
BRANCH  19  22
ATOM     22  N   UNK A   0       5.394   5.431  16.826  0.00  0.00    +0.000 NA
BRANCH  22  23
ATOM     23  C   UNK A   0       6.738   6.043  17.181  0.00  0.00    +0.000 C 
BRANCH  23  25
ATOM     24  C   UNK A   0       8.115   8.102  17.832  0.00  0.00    +0.000 C 
ATOM     25  C   UNK A   0       6.793   7.564  17.318  0.00  0.00    +0.000 C 
ENDBRANCH  23  25
ENDBRANCH  22  23
BRANCH  22  26
ATOM     26  C   UNK A   0       5.498   4.330  15.808  0.00  0.00    +0.000 C 
BRANCH  26  27
ATOM     27  C   UNK A   0       6.603   4.568  14.769  0.00  0.00    +0.000 C 
ATOM     28  C   UNK A   0       6.279   3.919  13.432  0.00  0.00    +0.000 C 
ENDBRANCH  26  27
ENDBRANCH  22  26
ENDBRANCH  19  22
ENDBRANCH   1  19
TORSDOF 12
ENDMDL
MODEL 8
REMARK VINA RESULT:      -6.2      1.343      1.442
REMARK  Name = 
REMARK  14 active torsions:
REMARK  status: ('A' for Active; 'I' for Inactive)
REMARK    1  A    between atoms: C_1  and  C_2
REMARK    2  A    between atoms: C_2  and  C_3
REMARK    3  A    between atoms: C_3  and  N_4
REMARK    4  A    between atoms: N_4  and  C_5
REMARK    5  A    between atoms: N_4  and  S_8
REMARK    6  A    between atoms: C_5  and  C_6
REMARK    7  A    between atoms: C_6  and  C_7
REMARK    8  A    between atoms: S_8  and  C_11
REMARK    9  A    between atoms: C_14  and  C_15
REMARK   10  A    between atoms: N_17  and  CA_18
REMARK   11  A    between atoms: CA_18  and  CB_19
REMARK   12  A    between atoms: CA_18  and  C_21
REMARK   13  A    between atoms: CB_19  and  SG_20
REMARK   14  A    between atoms: C_21  and  OXT_23
REMARK                            x       y       z     vdW  Elec       q    Type
REMARK                         _______ _______ _______ _____ _____    ______ ____
ROOT
ATOM      1  C   UNK A   0       3.080   6.212  18.712  0.00  0.00    +0.000 A 
ATOM      2  C   UNK A   0       3.093   7.276  17.801  0.00  0.00    +0.000 A 
ATOM      3  C   UNK A   0       2.435   8.467  18.126  0.00  0.00    +0.000 A 
ATOM      4  C   UNK A   0       1.774   8.597  19.354  0.00  0.00    +0.000 A 
ATOM      5  C   UNK A   0       1.745   7.510  20.245  0.00  0.00    +0.000 A 
ATOM      6  C   UNK A   0       2.402   6.319  19.927  0.00  0.00    +0.000 A 
ENDROOT
BRANCH   4   7
ATOM      7  C   UNK A   0       1.092   9.887  19.664  0.00  0.00    +0.000 C 
ATOM      8  O   UNK A   0       1.225  10.862  18.935  0.00  0.00    +0.000 OA
ATOM      9  N   CYS A   1       0.347   9.923  20.819  0.00  0.00    +0.000 N 
ATOM     10  H   CYS A   1       0.453   9.187  21.514  0.00  0.00    +0.000 HD
BRANCH   9  11
ATOM     11  CA  CYS A   1      -0.320  11.142  21.295  0.00  0.00    +0.000 C 
BRANCH  11  12
ATOM     12  C   CYS A   1      -0.754  10.885  22.746  0.00  0.00    +0.000 C 
ATOM     13  O   CYS A   1      -1.800  11.325  23.212  0.00  0.00    +0.000 OA
BRANCH  12  14
ATOM     14  OXT CYS A   1       0.065  10.089  23.467  0.00  0.00    +0.000 OA
ATOM     15  HXT CYS A   1       1.021  10.223  23.340  0.00  0.00    +0.000 HD
ENDBRANCH  12  14
ENDBRANCH  11  12
BRANCH  11  16
ATOM     16  CB  CYS A   1      -1.485  11.570  20.392  0.00  0.00    +0.000 C 
BRANCH  16  17
ATOM     17  SG  CYS A   1      -1.575  13.371  20.113  0.00  0.00    +0.000 S 
ATOM     18  HG  CYS A   1      -0.640  13.706  21.017  0.00  0.00    +0.000 HD
ENDBRANCH  16  17
ENDBRANCH  11  16
ENDBRANCH   9  11
ENDBRANCH   4   7
BRANCH   1  19
ATOM     19  S   UNK A   0       3.816   4.663  18.232  0.00  0.00    +0.000 S 
ATOM     20  O   UNK A   0       2.799   3.983  17.463  0.00  0.00    +0.000 OA
ATOM     21  O   UNK A   0       4.360   4.041  19.429  0.00  0.00    +0.000 OA
BRANCH  19  22
ATOM     22  N   UNK A   0       5.159   5.167  17.231  0.00  0.00    +0.000 NA
BRANCH  22  23
ATOM     23  C   UNK A   0       6.459   4.681  17.849  0.00  0.00    +0.000 C 
BRANCH  23  25
ATOM     24  C   UNK A   0       7.273   7.086  17.521  0.00  0.00    +0.000 C 
ATOM     25  C   UNK A   0       7.508   5.742  18.181  0.00  0.00    +0.000 C 
ENDBRANCH  23  25
ENDBRANCH  22  23
BRANCH  22  26
ATOM     26  C   UNK A   0       5.018   4.788  15.783  0.00  0.00    +0.000 C 
BRANCH  26  27
ATOM     27  C   UNK A   0       6.182   3.934  15.264  0.00  0.00    +0.000 C 
ATOM     28  C   UNK A   0       6.558   4.290  13.833  0.00  0.00    +0.000 C 
ENDBRANCH  26  27
ENDBRANCH  22  26
ENDBRANCH  19  22
ENDBRANCH   1  19
TORSDOF 12
ENDMDL
MODEL 9
REMARK VINA RESULT:      -6.1      2.259      3.623
REMARK  Name = 
REMARK  14 active torsions:
REMARK  status: ('A' for Active; 'I' for Inactive)
REMARK    1  A    between atoms: C_1  and  C_2
REMARK    2  A    between atoms: C_2  and  C_3
REMARK    3  A    between atoms: C_3  and  N_4
REMARK    4  A    between atoms: N_4  and  C_5
REMARK    5  A    between atoms: N_4  and  S_8
REMARK    6  A    between atoms: C_5  and  C_6
REMARK    7  A    between atoms: C_6  and  C_7
REMARK    8  A    between atoms: S_8  and  C_11
REMARK    9  A    between atoms: C_14  and  C_15
REMARK   10  A    between atoms: N_17  and  CA_18
REMARK   11  A    between atoms: CA_18  and  CB_19
REMARK   12  A    between atoms: CA_18  and  C_21
REMARK   13  A    between atoms: CB_19  and  SG_20
REMARK   14  A    between atoms: C_21  and  OXT_23
REMARK                            x       y       z     vdW  Elec       q    Type
REMARK                         _______ _______ _______ _____ _____    ______ ____
ROOT
ATOM      1  C   UNK A   0       2.980   6.650  18.990  0.00  0.00    +0.000 A 
ATOM      2  C   UNK A   0       2.234   7.043  20.108  0.00  0.00    +0.000 A 
ATOM      3  C   UNK A   0       1.498   8.232  20.061  0.00  0.00    +0.000 A 
ATOM      4  C   UNK A   0       1.503   9.021  18.904  0.00  0.00    +0.000 A 
ATOM      5  C   UNK A   0       2.282   8.629  17.800  0.00  0.00    +0.000 A 
ATOM      6  C   UNK A   0       3.015   7.441  17.841  0.00  0.00    +0.000 A 
ENDROOT
BRANCH   4   7
ATOM      7  C   UNK A   0       0.700  10.278  18.893  0.00  0.00    +0.000 C 
ATOM      8  O   UNK A   0       1.232  11.365  18.714  0.00  0.00    +0.000 OA
ATOM      9  N   CYS A   1      -0.648  10.143  19.128  0.00  0.00    +0.000 N 
ATOM     10  H   CYS A   1      -1.012   9.272  19.508  0.00  0.00    +0.000 HD
BRANCH   9  11
ATOM     11  CA  CYS A   1      -1.555  11.295  19.224  0.00  0.00    +0.000 C 
BRANCH  11  12
ATOM     12  C   CYS A   1      -1.712  11.867  17.807  0.00  0.00    +0.000 C 
ATOM     13  O   CYS A   1      -2.493  11.397  16.985  0.00  0.00    +0.000 OA
BRANCH  12  14
ATOM     14  OXT CYS A   1      -0.975  12.965  17.536  0.00  0.00    +0.000 OA
ATOM     15  HXT CYS A   1      -0.088  13.001  17.937  0.00  0.00    +0.000 HD
ENDBRANCH  12  14
ENDBRANCH  11  12
BRANCH  11  16
ATOM     16  CB  CYS A   1      -1.078  12.342  20.239  0.00  0.00    +0.000 C 
BRANCH  16  17
ATOM     17  SG  CYS A   1      -2.225  12.587  21.637  0.00  0.00    +0.000 S 
ATOM     18  HG  CYS A   1      -1.296  12.514  22.603  0.00  0.00    +0.000 HD
ENDBRANCH  16  17
ENDBRANCH  11  16
ENDBRANCH   9  11
ENDBRANCH   4   7
BRANCH   1  19
ATOM     19  S   UNK A   0       4.007   5.200  19.110  0.00  0.00    +0.000 S 
ATOM     20  O   UNK A   0       3.441   4.424  20.188  0.00  0.00    +0.000 OA
ATOM     21  O   UNK A   0       5.391   5.642  19.180  0.00  0.00    +0.000 OA
BRANCH  19  22
ATOM     22  N   UNK A   0       3.769   4.428  17.558  0.00  0.00    +0.000 NA
BRANCH  22  23
ATOM     23  C   UNK A   0       5.118   4.182  16.905  0.00  0.00    +0.000 C 
BRANCH  23  25
ATOM     24  C   UNK A   0       6.001   4.055  14.505  0.00  0.00    +0.000 C 
ATOM     25  C   UNK A   0       5.399   4.920  15.596  0.00  0.00    +0.000 C 
ENDBRANCH  23  25
ENDBRANCH  22  23
BRANCH  22  26
ATOM     26  C   UNK A   0       2.908   3.197  17.614  0.00  0.00    +0.000 C 
BRANCH  26  27
ATOM     27  C   UNK A   0       1.425   3.505  17.863  0.00  0.00    +0.000 C 
ATOM     28  C   UNK A   0       0.789   2.511  18.822  0.00  0.00    +0.000 C 
ENDBRANCH  26  27
ENDBRANCH  22  26
ENDBRANCH  19  22
ENDBRANCH   1  19
TORSDOF 12
ENDMDL
