MODEL 1
REMARK VINA RESULT:      -8.1      0.000      0.000
REMARK  Name = 
REMARK  6 active torsions:
REMARK  status: ('A' for Active; 'I' for Inactive)
REMARK    1  A    between atoms: C_1  and  C_2
REMARK    2  A    between atoms: N_4  and  C_5
REMARK    3  A    between atoms: C_8  and  S_9
REMARK    4  A    between atoms: S_9  and  N_12
REMARK    5  A    between atoms: C_16  and  C_18
REMARK    6  A    between atoms: C_22  and  C_23
REMARK                            x       y       z     vdW  Elec       q    Type
REMARK                         _______ _______ _______ _____ _____    ______ ____
ROOT
ATOM      1  N   UNL     1       1.831   6.689  20.271  0.00  0.00    +0.000 NA
ATOM      2  C   UNL     1       2.691   7.425  19.315  0.00  0.00    +0.000 C 
ATOM      3  C   UNL     1       1.890   8.570  18.645  0.00  0.00    +0.000 C 
ATOM      4  N   UNL     1       1.063   9.324  19.604  0.00  0.00    +0.000 N 
ATOM      5  C   UNL     1       0.981  10.712  19.521  0.00  0.00    +0.000 C 
ATOM      6  O   UNL     1       1.616  11.348  18.676  0.00  0.00    +0.000 OA
ATOM      7  C   UNL     1       0.253   8.474  20.488  0.00  0.00    +0.000 C 
ATOM      8  C   UNL     1       1.182   7.550  21.277  0.00  0.00    +0.000 C 
ENDROOT
BRANCH   5   9
ATOM      9  C   UNL     1       0.077  11.388  20.457  0.00  0.00    +0.000 A 
ATOM     10  N   UNL     1       0.465  11.847  21.713  0.00  0.00    +0.000 NA
ATOM     11  C   UNL     1      -0.653  12.271  22.249  0.00  0.00    +0.000 A 
ATOM     12  O   UNL     1      -1.738  12.208  21.440  0.00  0.00    +0.000 OA
ATOM     13  C   UNL     1      -1.271  11.649  20.272  0.00  0.00    +0.000 A 
BRANCH  13  14
ATOM     14  C   UNL     1      -2.273  11.428  19.238  0.00  0.00    +0.000 A 
ATOM     15  C   UNL     1      -2.001  10.574  18.154  0.00  0.00    +0.000 A 
ATOM     16  C   UNL     1      -2.959  10.346  17.164  0.00  0.00    +0.000 A 
ATOM     17  C   UNL     1      -4.204  10.965  17.242  0.00  0.00    +0.000 A 
ATOM     18  C   UNL     1      -4.488  11.819  18.303  0.00  0.00    +0.000 A 
ATOM     19  C   UNL     1      -3.527  12.053  19.289  0.00  0.00    +0.000 A 
ENDBRANCH  13  14
ENDBRANCH   5   9
BRANCH   1  20
ATOM     20  S   UNL     1       1.911   5.036  20.472  0.00  0.00    +0.000 S 
ATOM     21  O   UNL     1       0.581   4.516  20.248  0.00  0.00    +0.000 OA
ATOM     22  O   UNL     1       2.626   4.751  21.698  0.00  0.00    +0.000 OA
BRANCH  20  26
ATOM     23  C   UNL     1       4.545   3.948  16.901  0.00  0.00    +0.000 A 
ATOM     24  C   UNL     1       3.154   3.820  16.816  0.00  0.00    +0.000 A 
ATOM     25  C   UNL     1       2.340   4.104  17.917  0.00  0.00    +0.000 A 
ATOM     26  C   UNL     1       2.924   4.502  19.118  0.00  0.00    +0.000 A 
ATOM     27  C   UNL     1       4.313   4.614  19.225  0.00  0.00    +0.000 A 
ATOM     28  C   UNL     1       5.119   4.330  18.121  0.00  0.00    +0.000 A 
BRANCH  23  32
ATOM     29  C   UNL     1       6.740   4.046  13.838  0.00  0.00    +0.000 C 
ATOM     30  C   UNL     1       5.912   4.659  14.937  0.00  0.00    +0.000 C 
ATOM     31  O   UNL     1       5.732   5.870  14.984  0.00  0.00    +0.000 OA
ATOM     32  N   UNL     1       5.418   3.713  15.818  0.00  0.00    +0.000 N 
ATOM     33  H   UNL     1       5.782   2.772  15.730  0.00  0.00    +0.000 HD
ENDBRANCH  23  32
ENDBRANCH  20  26
ENDBRANCH   1  20
TORSDOF 5
ENDMDL
MODEL 2
REMARK VINA RESULT:      -7.9      2.637      9.628
REMARK  Name = 
REMARK  6 active torsions:
REMARK  status: ('A' for Active; 'I' for Inactive)
REMARK    1  A    between atoms: C_1  and  C_2
REMARK    2  A    between atoms: N_4  and  C_5
REMARK    3  A    between atoms: C_8  and  S_9
REMARK    4  A    between atoms: S_9  and  N_12
REMARK    5  A    between atoms: C_16  and  C_18
REMARK    6  A    between atoms: C_22  and  C_23
REMARK                            x       y       z     vdW  Elec       q    Type
REMARK                         _______ _______ _______ _____ _____    ______ ____
ROOT
ATOM      1  N   UNL     1       1.714   8.611  19.004  0.00  0.00    +0.000 NA
ATOM      2  C   UNL     1       1.845   8.314  20.450  0.00  0.00    +0.000 C 
ATOM      3  C   UNL     1       1.486   6.832  20.728  0.00  0.00    +0.000 C 
ATOM      4  N   UNL     1       2.076   5.909  19.743  0.00  0.00    +0.000 N 
ATOM      5  C   UNL     1       2.627   4.698  20.157  0.00  0.00    +0.000 C 
ATOM      6  O   UNL     1       2.669   4.381  21.347  0.00  0.00    +0.000 OA
ATOM      7  C   UNL     1       1.868   6.316  18.346  0.00  0.00    +0.000 C 
ATOM      8  C   UNL     1       2.482   7.701  18.135  0.00  0.00    +0.000 C 
ENDROOT
BRANCH   5   9
ATOM      9  C   UNL     1       3.123   3.795  19.113  0.00  0.00    +0.000 A 
ATOM     10  N   UNL     1       2.492   2.606  18.754  0.00  0.00    +0.000 NA
ATOM     11  C   UNL     1       3.313   2.068  17.886  0.00  0.00    +0.000 A 
ATOM     12  O   UNL     1       4.396   2.821  17.575  0.00  0.00    +0.000 OA
ATOM     13  C   UNL     1       4.273   3.948  18.355  0.00  0.00    +0.000 A 
BRANCH  13  14
ATOM     14  C   UNL     1       5.358   4.914  18.239  0.00  0.00    +0.000 A 
ATOM     15  C   UNL     1       6.396   4.935  19.187  0.00  0.00    +0.000 A 
ATOM     16  C   UNL     1       7.447   5.849  19.078  0.00  0.00    +0.000 A 
ATOM     17  C   UNL     1       7.478   6.753  18.020  0.00  0.00    +0.000 A 
ATOM     18  C   UNL     1       6.454   6.751  17.077  0.00  0.00    +0.000 A 
ATOM     19  C   UNL     1       5.400   5.843  17.191  0.00  0.00    +0.000 A 
ENDBRANCH  13  14
ENDBRANCH   5   9
BRANCH   1  20
ATOM     20  S   UNL     1       1.120  10.058  18.429  0.00  0.00    +0.000 S 
ATOM     21  O   UNL     1      -0.061   9.754  17.652  0.00  0.00    +0.000 OA
ATOM     22  O   UNL     1       2.214  10.815  17.858  0.00  0.00    +0.000 OA
BRANCH  20  26
ATOM     23  C   UNL     1      -0.468  12.358  22.043  0.00  0.00    +0.000 A 
ATOM     24  C   UNL     1       0.648  12.829  21.343  0.00  0.00    +0.000 A 
ATOM     25  C   UNL     1       1.173  12.110  20.265  0.00  0.00    +0.000 A 
ATOM     26  C   UNL     1       0.587  10.900  19.896  0.00  0.00    +0.000 A 
ATOM     27  C   UNL     1      -0.516  10.406  20.599  0.00  0.00    +0.000 A 
ATOM     28  C   UNL     1      -1.035  11.131  21.673  0.00  0.00    +0.000 A 
BRANCH  23  32
ATOM     29  C   UNL     1      -2.469  14.559  24.360  0.00  0.00    +0.000 C 
ATOM     30  C   UNL     1      -2.153  13.909  23.038  0.00  0.00    +0.000 C 
ATOM     31  O   UNL     1      -2.821  14.160  22.041  0.00  0.00    +0.000 OA
ATOM     32  N   UNL     1      -1.068  13.053  23.114  0.00  0.00    +0.000 N 
ATOM     33  H   UNL     1      -0.719  12.838  24.041  0.00  0.00    +0.000 HD
ENDBRANCH  23  32
ENDBRANCH  20  26
ENDBRANCH   1  20
TORSDOF 5
ENDMDL
MODEL 3
REMARK VINA RESULT:      -7.7      6.042      8.689
REMARK  Name = 
REMARK  6 active torsions:
REMARK  status: ('A' for Active; 'I' for Inactive)
REMARK    1  A    between atoms: C_1  and  C_2
REMARK    2  A    between atoms: N_4  and  C_5
REMARK    3  A    between atoms: C_8  and  S_9
REMARK    4  A    between atoms: S_9  and  N_12
REMARK    5  A    between atoms: C_16  and  C_18
REMARK    6  A    between atoms: C_22  and  C_23
REMARK                            x       y       z     vdW  Elec       q    Type
REMARK                         _______ _______ _______ _____ _____    ______ ____
ROOT
ATOM      1  N   UNL     1       3.043  15.256  19.279  0.00  0.00    +0.000 NA
ATOM      2  C   UNL     1       3.249  14.749  20.657  0.00  0.00    +0.000 C 
ATOM      3  C   UNL     1       1.886  14.408  21.312  0.00  0.00    +0.000 C 
ATOM      4  N   UNL     1       0.982  13.684  20.401  0.00  0.00    +0.000 N 
ATOM      5  C   UNL     1       0.219  12.617  20.871  0.00  0.00    +0.000 C 
ATOM      6  O   UNL     1       0.300  12.229  22.038  0.00  0.00    +0.000 OA
ATOM      7  C   UNL     1       0.862  14.296  19.070  0.00  0.00    +0.000 C 
ATOM      8  C   UNL     1       2.247  14.357  18.424  0.00  0.00    +0.000 C 
ENDROOT
BRANCH   5   9
ATOM      9  C   UNL     1      -0.718  11.996  19.928  0.00  0.00    +0.000 A 
ATOM     10  N   UNL     1      -1.959  12.536  19.601  0.00  0.00    +0.000 NA
ATOM     11  C   UNL     1      -2.504  11.624  18.834  0.00  0.00    +0.000 A 
ATOM     12  O   UNL     1      -1.712  10.559  18.557  0.00  0.00    +0.000 OA
ATOM     13  C   UNL     1      -0.548  10.799  19.251  0.00  0.00    +0.000 A 
BRANCH  13  14
ATOM     14  C   UNL     1       0.467   9.758  19.154  0.00  0.00    +0.000 A 
ATOM     15  C   UNL     1       0.813   8.994  20.281  0.00  0.00    +0.000 A 
ATOM     16  C   UNL     1       1.776   7.986  20.196  0.00  0.00    +0.000 A 
ATOM     17  C   UNL     1       2.407   7.725  18.982  0.00  0.00    +0.000 A 
ATOM     18  C   UNL     1       2.083   8.478  17.857  0.00  0.00    +0.000 A 
ATOM     19  C   UNL     1       1.125   9.490  17.945  0.00  0.00    +0.000 A 
ENDBRANCH  13  14
ENDBRANCH   5   9
BRANCH   1  20
ATOM     20  S   UNL     1       3.954  16.488  18.624  0.00  0.00    +0.000 S 
ATOM     21  O   UNL     1       3.948  17.575  19.577  0.00  0.00    +0.000 OA
ATOM     22  O   UNL     1       3.537  16.696  17.253  0.00  0.00    +0.000 OA
BRANCH  20  26
ATOM     23  C   UNL     1       8.251  14.963  18.332  0.00  0.00    +0.000 A 
ATOM     24  C   UNL     1       7.216  14.284  17.679  0.00  0.00    +0.000 A 
ATOM     25  C   UNL     1       5.891  14.712  17.799  0.00  0.00    +0.000 A 
ATOM     26  C   UNL     1       5.597  15.819  18.594  0.00  0.00    +0.000 A 
ATOM     27  C   UNL     1       6.617  16.495  19.269  0.00  0.00    +0.000 A 
ATOM     28  C   UNL     1       7.938  16.061  19.142  0.00  0.00    +0.000 A 
BRANCH  23  32
ATOM     29  C   UNL     1      11.900  14.528  17.487  0.00  0.00    +0.000 C 
ATOM     30  C   UNL     1      10.570  15.235  17.447  0.00  0.00    +0.000 C 
ATOM     31  O   UNL     1      10.421  16.251  16.778  0.00  0.00    +0.000 OA
ATOM     32  N   UNL     1       9.611  14.604  18.221  0.00  0.00    +0.000 N 
ATOM     33  H   UNL     1       9.932  13.863  18.833  0.00  0.00    +0.000 HD
ENDBRANCH  23  32
ENDBRANCH  20  26
ENDBRANCH   1  20
TORSDOF 5
ENDMDL
MODEL 4
REMARK VINA RESULT:      -7.7      5.723      8.206
REMARK  Name = 
REMARK  6 active torsions:
REMARK  status: ('A' for Active; 'I' for Inactive)
REMARK    1  A    between atoms: C_1  and  C_2
REMARK    2  A    between atoms: N_4  and  C_5
REMARK    3  A    between atoms: C_8  and  S_9
REMARK    4  A    between atoms: S_9  and  N_12
REMARK    5  A    between atoms: C_16  and  C_18
REMARK    6  A    between atoms: C_22  and  C_23
REMARK                            x       y       z     vdW  Elec       q    Type
REMARK                         _______ _______ _______ _____ _____    ______ ____
ROOT
ATOM      1  N   UNL     1       3.427  14.994  19.266  0.00  0.00    +0.000 NA
ATOM      2  C   UNL     1       3.524  14.540  20.673  0.00  0.00    +0.000 C 
ATOM      3  C   UNL     1       2.108  14.322  21.266  0.00  0.00    +0.000 C 
ATOM      4  N   UNL     1       1.205  13.619  20.338  0.00  0.00    +0.000 N 
ATOM      5  C   UNL     1       0.346  12.629  20.810  0.00  0.00    +0.000 C 
ATOM      6  O   UNL     1       0.339  12.291  21.995  0.00  0.00    +0.000 OA
ATOM      7  C   UNL     1       1.198  14.175  18.977  0.00  0.00    +0.000 C 
ATOM      8  C   UNL     1       2.616  14.112  18.407  0.00  0.00    +0.000 C 
ENDROOT
BRANCH   5   9
ATOM      9  C   UNL     1      -0.581  12.029  19.845  0.00  0.00    +0.000 A 
ATOM     10  N   UNL     1      -1.787  12.611  19.464  0.00  0.00    +0.000 NA
ATOM     11  C   UNL     1      -2.340  11.708  18.692  0.00  0.00    +0.000 A 
ATOM     12  O   UNL     1      -1.583  10.609  18.461  0.00  0.00    +0.000 OA
ATOM     13  C   UNL     1      -0.435  10.814  19.193  0.00  0.00    +0.000 A 
BRANCH  13  14
ATOM     14  C   UNL     1       0.540   9.733  19.150  0.00  0.00    +0.000 A 
ATOM     15  C   UNL     1       1.202   9.419  17.950  0.00  0.00    +0.000 A 
ATOM     16  C   UNL     1       2.147   8.391  17.901  0.00  0.00    +0.000 A 
ATOM     17  C   UNL     1       2.445   7.663  19.049  0.00  0.00    +0.000 A 
ATOM     18  C   UNL     1       1.793   7.954  20.244  0.00  0.00    +0.000 A 
ATOM     19  C   UNL     1       0.843   8.977  20.290  0.00  0.00    +0.000 A 
ENDBRANCH  13  14
ENDBRANCH   5   9
BRANCH   1  20
ATOM     20  S   UNL     1       4.455  16.130  18.610  0.00  0.00    +0.000 S 
ATOM     21  O   UNL     1       4.539  17.223  19.553  0.00  0.00    +0.000 OA
ATOM     22  O   UNL     1       4.073  16.361  17.232  0.00  0.00    +0.000 OA
BRANCH  20  26
ATOM     23  C   UNL     1       8.374  13.783  18.716  0.00  0.00    +0.000 A 
ATOM     24  C   UNL     1       8.081  14.713  19.721  0.00  0.00    +0.000 A 
ATOM     25  C   UNL     1       6.908  15.472  19.674  0.00  0.00    +0.000 A 
ATOM     26  C   UNL     1       6.029  15.312  18.605  0.00  0.00    +0.000 A 
ATOM     27  C   UNL     1       6.317  14.403  17.583  0.00  0.00    +0.000 A 
ATOM     28  C   UNL     1       7.490  13.648  17.638  0.00  0.00    +0.000 A 
BRANCH  23  32
ATOM     29  C   UNL     1      11.620  11.966  18.107  0.00  0.00    +0.000 C 
ATOM     30  C   UNL     1      10.619  13.070  17.889  0.00  0.00    +0.000 C 
ATOM     31  O   UNL     1      10.816  13.936  17.045  0.00  0.00    +0.000 OA
ATOM     32  N   UNL     1       9.520  12.961  18.724  0.00  0.00    +0.000 N 
ATOM     33  H   UNL     1       9.578  12.279  19.470  0.00  0.00    +0.000 HD
ENDBRANCH  23  32
ENDBRANCH  20  26
ENDBRANCH   1  20
TORSDOF 5
ENDMDL
MODEL 5
REMARK VINA RESULT:      -7.7      5.294      8.286
REMARK  Name = 
REMARK  6 active torsions:
REMARK  status: ('A' for Active; 'I' for Inactive)
REMARK    1  A    between atoms: C_1  and  C_2
REMARK    2  A    between atoms: N_4  and  C_5
REMARK    3  A    between atoms: C_8  and  S_9
REMARK    4  A    between atoms: S_9  and  N_12
REMARK    5  A    between atoms: C_16  and  C_18
REMARK    6  A    between atoms: C_22  and  C_23
REMARK                            x       y       z     vdW  Elec       q    Type
REMARK                         _______ _______ _______ _____ _____    ______ ____
ROOT
ATOM      1  N   UNL     1       1.853  15.484  19.993  0.00  0.00    +0.000 NA
ATOM      2  C   UNL     1       0.723  15.433  19.035  0.00  0.00    +0.000 C 
ATOM      3  C   UNL     1       0.445  13.969  18.611  0.00  0.00    +0.000 C 
ATOM      4  N   UNL     1       0.474  13.031  19.748  0.00  0.00    +0.000 N 
ATOM      5  C   UNL     1      -0.474  12.015  19.844  0.00  0.00    +0.000 C 
ATOM      6  O   UNL     1      -1.374  11.890  19.012  0.00  0.00    +0.000 OA
ATOM      7  C   UNL     1       1.652  13.183  20.615  0.00  0.00    +0.000 C 
ATOM      8  C   UNL     1       1.682  14.610  21.167  0.00  0.00    +0.000 C 
ENDROOT
BRANCH   5   9
ATOM      9  C   UNL     1      -0.334  11.072  20.958  0.00  0.00    +0.000 A 
ATOM     10  N   UNL     1      -0.864  11.289  22.228  0.00  0.00    +0.000 NA
ATOM     11  C   UNL     1      -0.417  10.277  22.930  0.00  0.00    +0.000 A 
ATOM     12  O   UNL     1       0.299   9.364  22.230  0.00  0.00    +0.000 OA
ATOM     13  C   UNL     1       0.346   9.864  20.949  0.00  0.00    +0.000 A 
BRANCH  13  14
ATOM     14  C   UNL     1       1.114   9.075  19.994  0.00  0.00    +0.000 A 
ATOM     15  C   UNL     1       1.677   7.845  20.377  0.00  0.00    +0.000 A 
ATOM     16  C   UNL     1       2.406   7.077  19.467  0.00  0.00    +0.000 A 
ATOM     17  C   UNL     1       2.580   7.523  18.160  0.00  0.00    +0.000 A 
ATOM     18  C   UNL     1       2.036   8.742  17.766  0.00  0.00    +0.000 A 
ATOM     19  C   UNL     1       1.315   9.514  18.678  0.00  0.00    +0.000 A 
ENDBRANCH  13  14
ENDBRANCH   5   9
BRANCH   1  20
ATOM     20  S   UNL     1       2.994  16.699  19.981  0.00  0.00    +0.000 S 
ATOM     21  O   UNL     1       3.246  17.060  21.358  0.00  0.00    +0.000 OA
ATOM     22  O   UNL     1       2.599  17.697  19.009  0.00  0.00    +0.000 OA
BRANCH  20  26
ATOM     23  C   UNL     1       6.762  14.836  18.190  0.00  0.00    +0.000 A 
ATOM     24  C   UNL     1       5.502  14.312  17.882  0.00  0.00    +0.000 A 
ATOM     25  C   UNL     1       4.344  14.842  18.460  0.00  0.00    +0.000 A 
ATOM     26  C   UNL     1       4.451  15.894  19.368  0.00  0.00    +0.000 A 
ATOM     27  C   UNL     1       5.704  16.415  19.702  0.00  0.00    +0.000 A 
ATOM     28  C   UNL     1       6.855  15.881  19.119  0.00  0.00    +0.000 A 
BRANCH  23  32
ATOM     29  C   UNL     1      10.115  13.334  17.345  0.00  0.00    +0.000 C 
ATOM     30  C   UNL     1       8.905  13.556  18.215  0.00  0.00    +0.000 C 
ATOM     31  O   UNL     1       8.831  13.045  19.327  0.00  0.00    +0.000 OA
ATOM     32  N   UNL     1       7.962  14.371  17.613  0.00  0.00    +0.000 N 
ATOM     33  H   UNL     1       8.104  14.589  16.634  0.00  0.00    +0.000 HD
ENDBRANCH  23  32
ENDBRANCH  20  26
ENDBRANCH   1  20
TORSDOF 5
ENDMDL
MODEL 6
REMARK VINA RESULT:      -7.7      2.597      9.713
REMARK  Name = 
REMARK  6 active torsions:
REMARK  status: ('A' for Active; 'I' for Inactive)
REMARK    1  A    between atoms: C_1  and  C_2
REMARK    2  A    between atoms: N_4  and  C_5
REMARK    3  A    between atoms: C_8  and  S_9
REMARK    4  A    between atoms: S_9  and  N_12
REMARK    5  A    between atoms: C_16  and  C_18
REMARK    6  A    between atoms: C_22  and  C_23
REMARK                            x       y       z     vdW  Elec       q    Type
REMARK                         _______ _______ _______ _____ _____    ______ ____
ROOT
ATOM      1  N   UNL     1       0.330  10.270  20.806  0.00  0.00    +0.000 NA
ATOM      2  C   UNL     1       0.507  10.375  19.339  0.00  0.00    +0.000 C 
ATOM      3  C   UNL     1       1.769   9.593  18.893  0.00  0.00    +0.000 C 
ATOM      4  N   UNL     1       1.882   8.276  19.544  0.00  0.00    +0.000 N 
ATOM      5  C   UNL     1       2.291   7.164  18.811  0.00  0.00    +0.000 C 
ATOM      6  O   UNL     1       2.534   7.238  17.605  0.00  0.00    +0.000 OA
ATOM      7  C   UNL     1       1.693   8.314  21.001  0.00  0.00    +0.000 C 
ATOM      8  C   UNL     1       0.307   8.884  21.308  0.00  0.00    +0.000 C 
ENDROOT
BRANCH   5   9
ATOM      9  C   UNL     1       2.458   5.904  19.543  0.00  0.00    +0.000 A 
ATOM     10  N   UNL     1       1.555   5.433  20.493  0.00  0.00    +0.000 NA
ATOM     11  C   UNL     1       2.134   4.360  20.971  0.00  0.00    +0.000 A 
ATOM     12  O   UNL     1       3.306   4.027  20.376  0.00  0.00    +0.000 OA
ATOM     13  C   UNL     1       3.516   5.014  19.440  0.00  0.00    +0.000 A 
BRANCH  13  14
ATOM     14  C   UNL     1       4.757   4.909  18.685  0.00  0.00    +0.000 A 
ATOM     15  C   UNL     1       4.753   4.396  17.376  0.00  0.00    +0.000 A 
ATOM     16  C   UNL     1       5.936   4.301  16.639  0.00  0.00    +0.000 A 
ATOM     17  C   UNL     1       7.140   4.720  17.198  0.00  0.00    +0.000 A 
ATOM     18  C   UNL     1       7.165   5.223  18.495  0.00  0.00    +0.000 A 
ATOM     19  C   UNL     1       5.983   5.310  19.234  0.00  0.00    +0.000 A 
ENDBRANCH  13  14
ENDBRANCH   5   9
BRANCH   1  20
ATOM     20  S   UNL     1      -0.212  11.537  21.744  0.00  0.00    +0.000 S 
ATOM     21  O   UNL     1       0.639  12.671  21.459  0.00  0.00    +0.000 OA
ATOM     22  O   UNL     1      -0.396  11.065  23.100  0.00  0.00    +0.000 OA
BRANCH  20  26
ATOM     23  C   UNL     1      -4.232  12.725  19.927  0.00  0.00    +0.000 A 
ATOM     24  C   UNL     1      -4.013  12.858  21.302  0.00  0.00    +0.000 A 
ATOM     25  C   UNL     1      -2.805  12.453  21.879  0.00  0.00    +0.000 A 
ATOM     26  C   UNL     1      -1.814  11.895  21.073  0.00  0.00    +0.000 A 
ATOM     27  C   UNL     1      -2.025  11.736  19.701  0.00  0.00    +0.000 A 
ATOM     28  C   UNL     1      -3.234  12.144  19.133  0.00  0.00    +0.000 A 
BRANCH  23  32
ATOM     29  C   UNL     1      -7.580  13.122  18.239  0.00  0.00    +0.000 C 
ATOM     30  C   UNL     1      -6.541  12.382  19.041  0.00  0.00    +0.000 C 
ATOM     31  O   UNL     1      -6.736  11.228  19.406  0.00  0.00    +0.000 OA
ATOM     32  N   UNL     1      -5.413  13.147  19.280  0.00  0.00    +0.000 N 
ATOM     33  H   UNL     1      -5.468  14.130  19.044  0.00  0.00    +0.000 HD
ENDBRANCH  23  32
ENDBRANCH  20  26
ENDBRANCH   1  20
TORSDOF 5
ENDMDL
MODEL 7
REMARK VINA RESULT:      -7.6      3.073     10.015
REMARK  Name = 
REMARK  6 active torsions:
REMARK  status: ('A' for Active; 'I' for Inactive)
REMARK    1  A    between atoms: C_1  and  C_2
REMARK    2  A    between atoms: N_4  and  C_5
REMARK    3  A    between atoms: C_8  and  S_9
REMARK    4  A    between atoms: S_9  and  N_12
REMARK    5  A    between atoms: C_16  and  C_18
REMARK    6  A    between atoms: C_22  and  C_23
REMARK                            x       y       z     vdW  Elec       q    Type
REMARK                         _______ _______ _______ _____ _____    ______ ____
ROOT
ATOM      1  N   UNL     1       0.440  11.726  19.511  0.00  0.00    +0.000 NA
ATOM      2  C   UNL     1       0.350  11.072  20.837  0.00  0.00    +0.000 C 
ATOM      3  C   UNL     1       0.216   9.537  20.671  0.00  0.00    +0.000 C 
ATOM      4  N   UNL     1       1.134   8.992  19.656  0.00  0.00    +0.000 N 
ATOM      5  C   UNL     1       1.806   7.793  19.887  0.00  0.00    +0.000 C 
ATOM      6  O   UNL     1       1.682   7.177  20.948  0.00  0.00    +0.000 OA
ATOM      7  C   UNL     1       1.121   9.729  18.384  0.00  0.00    +0.000 C 
ATOM      8  C   UNL     1       1.506  11.185  18.648  0.00  0.00    +0.000 C 
ENDROOT
BRANCH   5   9
ATOM      9  C   UNL     1       2.640   7.272  18.800  0.00  0.00    +0.000 A 
ATOM     10  N   UNL     1       3.336   8.077  17.902  0.00  0.00    +0.000 NA
ATOM     11  C   UNL     1       3.844   7.225  17.047  0.00  0.00    +0.000 A 
ATOM     12  O   UNL     1       3.617   5.920  17.332  0.00  0.00    +0.000 OA
ATOM     13  C   UNL     1       2.849   5.940  18.475  0.00  0.00    +0.000 A 
BRANCH  13  14
ATOM     14  C   UNL     1       2.424   4.638  18.968  0.00  0.00    +0.000 A 
ATOM     15  C   UNL     1       3.065   4.050  20.072  0.00  0.00    +0.000 A 
ATOM     16  C   UNL     1       2.658   2.807  20.560  0.00  0.00    +0.000 A 
ATOM     17  C   UNL     1       1.600   2.132  19.955  0.00  0.00    +0.000 A 
ATOM     18  C   UNL     1       0.959   2.696  18.856  0.00  0.00    +0.000 A 
ATOM     19  C   UNL     1       1.372   3.935  18.363  0.00  0.00    +0.000 A 
ENDBRANCH  13  14
ENDBRANCH   5   9
BRANCH   1  20
ATOM     20  S   UNL     1      -0.285  13.188  19.173  0.00  0.00    +0.000 S 
ATOM     21  O   UNL     1      -0.768  13.119  17.812  0.00  0.00    +0.000 OA
ATOM     22  O   UNL     1       0.598  14.254  19.597  0.00  0.00    +0.000 OA
BRANCH  20  26
ATOM     23  C   UNL     1      -4.055  13.443  21.741  0.00  0.00    +0.000 A 
ATOM     24  C   UNL     1      -2.887  14.105  22.137  0.00  0.00    +0.000 A 
ATOM     25  C   UNL     1      -1.712  13.995  21.385  0.00  0.00    +0.000 A 
ATOM     26  C   UNL     1      -1.703  13.204  20.238  0.00  0.00    +0.000 A 
ATOM     27  C   UNL     1      -2.856  12.521  19.841  0.00  0.00    +0.000 A 
ATOM     28  C   UNL     1      -4.025  12.636  20.597  0.00  0.00    +0.000 A 
BRANCH  23  32
ATOM     29  C   UNL     1      -7.037  13.161  24.031  0.00  0.00    +0.000 C 
ATOM     30  C   UNL     1      -5.609  12.911  23.622  0.00  0.00    +0.000 C 
ATOM     31  O   UNL     1      -4.875  12.210  24.308  0.00  0.00    +0.000 OA
ATOM     32  N   UNL     1      -5.280  13.543  22.435  0.00  0.00    +0.000 N 
ATOM     33  H   UNL     1      -5.950  14.208  22.069  0.00  0.00    +0.000 HD
ENDBRANCH  23  32
ENDBRANCH  20  26
ENDBRANCH   1  20
TORSDOF 5
ENDMDL
MODEL 8
REMARK VINA RESULT:      -7.6      2.566      9.245
REMARK  Name = 
REMARK  6 active torsions:
REMARK  status: ('A' for Active; 'I' for Inactive)
REMARK    1  A    between atoms: C_1  and  C_2
REMARK    2  A    between atoms: N_4  and  C_5
REMARK    3  A    between atoms: C_8  and  S_9
REMARK    4  A    between atoms: S_9  and  N_12
REMARK    5  A    between atoms: C_16  and  C_18
REMARK    6  A    between atoms: C_22  and  C_23
REMARK                            x       y       z     vdW  Elec       q    Type
REMARK                         _______ _______ _______ _____ _____    ______ ____
ROOT
ATOM      1  N   UNL     1       1.824   9.743  19.177  0.00  0.00    +0.000 NA
ATOM      2  C   UNL     1       1.930   9.218  20.559  0.00  0.00    +0.000 C 
ATOM      3  C   UNL     1       1.413   7.758  20.620  0.00  0.00    +0.000 C 
ATOM      4  N   UNL     1       1.893   6.937  19.494  0.00  0.00    +0.000 N 
ATOM      5  C   UNL     1       2.311   5.626  19.710  0.00  0.00    +0.000 C 
ATOM      6  O   UNL     1       2.325   5.129  20.838  0.00  0.00    +0.000 OA
ATOM      7  C   UNL     1       1.722   7.571  18.179  0.00  0.00    +0.000 C 
ATOM      8  C   UNL     1       2.483   8.898  18.165  0.00  0.00    +0.000 C 
ENDROOT
BRANCH   5   9
ATOM      9  C   UNL     1       2.699   4.843  18.532  0.00  0.00    +0.000 A 
ATOM     10  N   UNL     1       1.852   3.948  17.883  0.00  0.00    +0.000 NA
ATOM     11  C   UNL     1       2.619   3.394  16.977  0.00  0.00    +0.000 A 
ATOM     12  O   UNL     1       3.879   3.888  16.910  0.00  0.00    +0.000 OA
ATOM     13  C   UNL     1       3.935   4.838  17.905  0.00  0.00    +0.000 A 
BRANCH  13  14
ATOM     14  C   UNL     1       5.224   5.495  18.074  0.00  0.00    +0.000 A 
ATOM     15  C   UNL     1       5.606   6.545  17.220  0.00  0.00    +0.000 A 
ATOM     16  C   UNL     1       6.834   7.189  17.380  0.00  0.00    +0.000 A 
ATOM     17  C   UNL     1       7.700   6.796  18.398  0.00  0.00    +0.000 A 
ATOM     18  C   UNL     1       7.342   5.753  19.247  0.00  0.00    +0.000 A 
ATOM     19  C   UNL     1       6.117   5.104  19.081  0.00  0.00    +0.000 A 
ENDBRANCH  13  14
ENDBRANCH   5   9
BRANCH   1  20
ATOM     20  S   UNL     1       1.388  11.316  18.839  0.00  0.00    +0.000 S 
ATOM     21  O   UNL     1       1.983  11.657  17.566  0.00  0.00    +0.000 OA
ATOM     22  O   UNL     1       1.625  12.127  20.014  0.00  0.00    +0.000 OA
BRANCH  20  26
ATOM     23  C   UNL     1      -3.152  10.947  18.485  0.00  0.00    +0.000 A 
ATOM     24  C   UNL     1      -2.320   9.975  17.919  0.00  0.00    +0.000 A 
ATOM     25  C   UNL     1      -0.928  10.101  17.978  0.00  0.00    +0.000 A 
ATOM     26  C   UNL     1      -0.366  11.217  18.594  0.00  0.00    +0.000 A 
ATOM     27  C   UNL     1      -1.184  12.207  19.146  0.00  0.00    +0.000 A 
ATOM     28  C   UNL     1      -2.572  12.073  19.084  0.00  0.00    +0.000 A 
BRANCH  23  32
ATOM     29  C   UNL     1      -6.877  11.302  18.023  0.00  0.00    +0.000 C 
ATOM     30  C   UNL     1      -5.434  11.565  17.681  0.00  0.00    +0.000 C 
ATOM     31  O   UNL     1      -5.135  12.336  16.776  0.00  0.00    +0.000 OA
ATOM     32  N   UNL     1      -4.560  10.860  18.491  0.00  0.00    +0.000 N 
ATOM     33  H   UNL     1      -4.964  10.150  19.091  0.00  0.00    +0.000 HD
ENDBRANCH  23  32
ENDBRANCH  20  26
ENDBRANCH   1  20
TORSDOF 5
ENDMDL
MODEL 9
REMARK VINA RESULT:      -7.6      3.321     10.023
REMARK  Name = 
REMARK  6 active torsions:
REMARK  status: ('A' for Active; 'I' for Inactive)
REMARK    1  A    between atoms: C_1  and  C_2
REMARK    2  A    between atoms: N_4  and  C_5
REMARK    3  A    between atoms: C_8  and  S_9
REMARK    4  A    between atoms: S_9  and  N_12
REMARK    5  A    between atoms: C_16  and  C_18
REMARK    6  A    between atoms: C_22  and  C_23
REMARK                            x       y       z     vdW  Elec       q    Type
REMARK                         _______ _______ _______ _____ _____    ______ ____
ROOT
ATOM      1  N   UNL     1       0.330  12.288  19.983  0.00  0.00    +0.000 NA
ATOM      2  C   UNL     1       0.177  11.657  21.315  0.00  0.00    +0.000 C 
ATOM      3  C   UNL     1      -0.080  10.136  21.161  0.00  0.00    +0.000 C 
ATOM      4  N   UNL     1       0.800   9.509  20.159  0.00  0.00    +0.000 N 
ATOM      5  C   UNL     1       1.370   8.262  20.407  0.00  0.00    +0.000 C 
ATOM      6  O   UNL     1       1.188   7.669  21.472  0.00  0.00    +0.000 OA
ATOM      7  C   UNL     1       0.856  10.232  18.880  0.00  0.00    +0.000 C 
ATOM      8  C   UNL     1       1.356  11.655  19.136  0.00  0.00    +0.000 C 
ENDROOT
BRANCH   5   9
ATOM      9  C   UNL     1       2.169   7.664  19.333  0.00  0.00    +0.000 A 
ATOM     10  N   UNL     1       2.792   8.401  18.329  0.00  0.00    +0.000 NA
ATOM     11  C   UNL     1       3.288   7.487  17.532  0.00  0.00    +0.000 A 
ATOM     12  O   UNL     1       3.119   6.208  17.949  0.00  0.00    +0.000 OA
ATOM     13  C   UNL     1       2.407   6.315  19.123  0.00  0.00    +0.000 A 
BRANCH  13  14
ATOM     14  C   UNL     1       2.050   5.053  19.757  0.00  0.00    +0.000 A 
ATOM     15  C   UNL     1       1.249   4.117  19.080  0.00  0.00    +0.000 A 
ATOM     16  C   UNL     1       0.911   2.900  19.676  0.00  0.00    +0.000 A 
ATOM     17  C   UNL     1       1.370   2.597  20.955  0.00  0.00    +0.000 A 
ATOM     18  C   UNL     1       2.157   3.516  21.643  0.00  0.00    +0.000 A 
ATOM     19  C   UNL     1       2.488   4.736  21.051  0.00  0.00    +0.000 A 
ENDBRANCH  13  14
ENDBRANCH   5   9
BRANCH   1  20
ATOM     20  S   UNL     1      -0.272  13.801  19.626  0.00  0.00    +0.000 S 
ATOM     21  O   UNL     1      -0.453  13.859  18.193  0.00  0.00    +0.000 OA
ATOM     22  O   UNL     1       0.525  14.793  20.317  0.00  0.00    +0.000 OA
BRANCH  20  26
ATOM     23  C   UNL     1      -4.313  13.610  21.749  0.00  0.00    +0.000 A 
ATOM     24  C   UNL     1      -4.039  12.754  20.676  0.00  0.00    +0.000 A 
ATOM     25  C   UNL     1      -2.825  12.835  19.986  0.00  0.00    +0.000 A 
ATOM     26  C   UNL     1      -1.884  13.792  20.364  0.00  0.00    +0.000 A 
ATOM     27  C   UNL     1      -2.152  14.667  21.420  0.00  0.00    +0.000 A 
ATOM     28  C   UNL     1      -3.366  14.579  22.104  0.00  0.00    +0.000 A 
BRANCH  23  32
ATOM     29  C   UNL     1      -7.121  12.927  24.170  0.00  0.00    +0.000 C 
ATOM     30  C   UNL     1      -5.700  12.843  23.678  0.00  0.00    +0.000 C 
ATOM     31  O   UNL     1      -4.862  12.193  24.293  0.00  0.00    +0.000 OA
ATOM     32  N   UNL     1      -5.501  13.554  22.507  0.00  0.00    +0.000 N 
ATOM     33  H   UNL     1      -6.254  14.161  22.207  0.00  0.00    +0.000 HD
ENDBRANCH  23  32
ENDBRANCH  20  26
ENDBRANCH   1  20
TORSDOF 5
ENDMDL
