MODEL 1
REMARK VINA RESULT:      -7.4      0.000      0.000
REMARK  Name = 
REMARK  1 active torsions:
REMARK  status: ('A' for Active; 'I' for Inactive)
REMARK    1  A    between atoms: C_7  and  N_8
REMARK                            x       y       z     vdW  Elec       q    Type
REMARK                         _______ _______ _______ _____ _____    ______ ____
ROOT
ATOM      1  F   UNL     1       7.581   5.535  14.574  0.00  0.00    +0.000 F 
ATOM      2  C   UNL     1       6.715   5.239  15.550  0.00  0.00    +0.000 A 
ATOM      3  C   UNL     1       6.909   5.745  16.827  0.00  0.00    +0.000 A 
ATOM      4  F   UNL     1       7.956   6.540  17.086  0.00  0.00    +0.000 F 
ATOM      5  C   UNL     1       6.029   5.419  17.853  0.00  0.00    +0.000 A 
ATOM      6  F   UNL     1       6.249   5.922  19.075  0.00  0.00    +0.000 F 
ATOM      7  C   UNL     1       4.951   4.570  17.607  0.00  0.00    +0.000 A 
ATOM      8  C   UNL     1       4.739   4.080  16.316  0.00  0.00    +0.000 A 
ATOM      9  F   UNL     1       3.701   3.284  16.028  0.00  0.00    +0.000 F 
ATOM     10  C   UNL     1       5.626   4.416  15.294  0.00  0.00    +0.000 A 
ATOM     11  F   UNL     1       5.431   3.932  14.061  0.00  0.00    +0.000 F 
ENDROOT
BRANCH   7  12
ATOM     12  N   UNL     1       4.081   4.156  18.716  0.00  0.00    +0.000 N 
ATOM     13  C   UNL     1       4.338   3.235  19.678  0.00  0.00    +0.000 A 
ATOM     14  N   UNL     1       3.231   3.153  20.403  0.00  0.00    +0.000 N 
ATOM     15  C   UNL     1       2.331   4.011  19.875  0.00  0.00    +0.000 A 
ATOM     16  N   UNL     1       2.776   4.654  18.865  0.00  0.00    +0.000 NA
ATOM     17  C   UNL     1       1.030   3.944  20.542  0.00  0.00    +0.000 C 
ATOM     18  C   UNL     1       1.267   2.843  21.621  0.00  0.00    +0.000 C 
ATOM     19  C   UNL     1       2.741   2.369  21.499  0.00  0.00    +0.000 C 
ENDBRANCH   7  12
TORSDOF 1
ENDMDL
MODEL 2
REMARK VINA RESULT:      -7.4      2.940      6.160
REMARK  Name = 
REMARK  1 active torsions:
REMARK  status: ('A' for Active; 'I' for Inactive)
REMARK    1  A    between atoms: C_7  and  N_8
REMARK                            x       y       z     vdW  Elec       q    Type
REMARK                         _______ _______ _______ _____ _____    ______ ____
ROOT
ATOM      1  F   UNL     1       0.917   2.878  22.281  0.00  0.00    +0.000 F 
ATOM      2  C   UNL     1       1.736   3.103  21.246  0.00  0.00    +0.000 A 
ATOM      3  C   UNL     1       2.951   2.437  21.165  0.00  0.00    +0.000 A 
ATOM      4  F   UNL     1       3.304   1.560  22.114  0.00  0.00    +0.000 F 
ATOM      5  C   UNL     1       3.819   2.687  20.109  0.00  0.00    +0.000 A 
ATOM      6  F   UNL     1       4.985   2.030  20.063  0.00  0.00    +0.000 F 
ATOM      7  C   UNL     1       3.479   3.618  19.128  0.00  0.00    +0.000 A 
ATOM      8  C   UNL     1       2.245   4.270  19.195  0.00  0.00    +0.000 A 
ATOM      9  F   UNL     1       1.865   5.152  18.260  0.00  0.00    +0.000 F 
ATOM     10  C   UNL     1       1.381   4.010  20.257  0.00  0.00    +0.000 A 
ATOM     11  F   UNL     1       0.206   4.649  20.328  0.00  0.00    +0.000 F 
ENDROOT
BRANCH   7  12
ATOM     12  N   UNL     1       4.442   3.945  18.067  0.00  0.00    +0.000 N 
ATOM     13  C   UNL     1       5.565   4.698  18.164  0.00  0.00    +0.000 A 
ATOM     14  N   UNL     1       6.057   4.770  16.935  0.00  0.00    +0.000 N 
ATOM     15  C   UNL     1       5.234   4.071  16.123  0.00  0.00    +0.000 A 
ATOM     16  N   UNL     1       4.247   3.540  16.736  0.00  0.00    +0.000 NA
ATOM     17  C   UNL     1       5.629   4.153  14.716  0.00  0.00    +0.000 C 
ATOM     18  C   UNL     1       6.890   5.069  14.777  0.00  0.00    +0.000 C 
ATOM     19  C   UNL     1       7.139   5.432  16.267  0.00  0.00    +0.000 C 
ENDBRANCH   7  12
TORSDOF 1
ENDMDL
MODEL 3
REMARK VINA RESULT:      -7.3      2.905      6.166
REMARK  Name = 
REMARK  1 active torsions:
REMARK  status: ('A' for Active; 'I' for Inactive)
REMARK    1  A    between atoms: C_7  and  N_8
REMARK                            x       y       z     vdW  Elec       q    Type
REMARK                         _______ _______ _______ _____ _____    ______ ____
ROOT
ATOM      1  F   UNL     1       0.984   2.796  22.268  0.00  0.00    +0.000 F 
ATOM      2  C   UNL     1       1.744   3.058  21.197  0.00  0.00    +0.000 A 
ATOM      3  C   UNL     1       3.012   2.506  21.094  0.00  0.00    +0.000 A 
ATOM      4  F   UNL     1       3.478   1.700  22.058  0.00  0.00    +0.000 F 
ATOM      5  C   UNL     1       3.818   2.796  19.999  0.00  0.00    +0.000 A 
ATOM      6  F   UNL     1       5.037   2.249  19.932  0.00  0.00    +0.000 F 
ATOM      7  C   UNL     1       3.359   3.655  19.001  0.00  0.00    +0.000 A 
ATOM      8  C   UNL     1       2.072   4.192  19.091  0.00  0.00    +0.000 A 
ATOM      9  F   UNL     1       1.579   5.000  18.141  0.00  0.00    +0.000 F 
ATOM     10  C   UNL     1       1.272   3.892  20.191  0.00  0.00    +0.000 A 
ATOM     11  F   UNL     1       0.045   4.420  20.284  0.00  0.00    +0.000 F 
ENDROOT
BRANCH   7  12
ATOM     12  N   UNL     1       4.250   4.031  17.895  0.00  0.00    +0.000 N 
ATOM     13  C   UNL     1       4.228   3.579  16.617  0.00  0.00    +0.000 A 
ATOM     14  N   UNL     1       5.267   4.144  16.017  0.00  0.00    +0.000 N 
ATOM     15  C   UNL     1       5.896   4.916  16.929  0.00  0.00    +0.000 A 
ATOM     16  N   UNL     1       5.336   4.903  18.078  0.00  0.00    +0.000 NA
ATOM     17  C   UNL     1       7.119   5.525  16.404  0.00  0.00    +0.000 C 
ATOM     18  C   UNL     1       7.163   4.976  14.945  0.00  0.00    +0.000 C 
ATOM     19  C   UNL     1       5.907   4.086  14.736  0.00  0.00    +0.000 C 
ENDBRANCH   7  12
TORSDOF 1
ENDMDL
MODEL 4
REMARK VINA RESULT:      -7.3      2.941      6.254
REMARK  Name = 
REMARK  1 active torsions:
REMARK  status: ('A' for Active; 'I' for Inactive)
REMARK    1  A    between atoms: C_7  and  N_8
REMARK                            x       y       z     vdW  Elec       q    Type
REMARK                         _______ _______ _______ _____ _____    ______ ____
ROOT
ATOM      1  F   UNL     1       0.847   2.772  22.192  0.00  0.00    +0.000 F 
ATOM      2  C   UNL     1       1.735   3.092  21.243  0.00  0.00    +0.000 A 
ATOM      3  C   UNL     1       1.426   4.064  20.303  0.00  0.00    +0.000 A 
ATOM      4  F   UNL     1       0.245   4.694  20.347  0.00  0.00    +0.000 F 
ATOM      5  C   UNL     1       2.332   4.382  19.297  0.00  0.00    +0.000 A 
ATOM      6  F   UNL     1       2.001   5.323  18.404  0.00  0.00    +0.000 F 
ATOM      7  C   UNL     1       3.555   3.716  19.221  0.00  0.00    +0.000 A 
ATOM      8  C   UNL     1       3.878   2.755  20.183  0.00  0.00    +0.000 A 
ATOM      9  F   UNL     1       5.052   2.110  20.164  0.00  0.00    +0.000 F 
ATOM     10  C   UNL     1       2.964   2.447  21.188  0.00  0.00    +0.000 A 
ATOM     11  F   UNL     1       3.268   1.513  22.098  0.00  0.00    +0.000 F 
ENDROOT
BRANCH   7  12
ATOM     12  N   UNL     1       4.466   3.991  18.102  0.00  0.00    +0.000 N 
ATOM     13  C   UNL     1       5.657   4.638  18.137  0.00  0.00    +0.000 A 
ATOM     14  N   UNL     1       6.067   4.707  16.878  0.00  0.00    +0.000 N 
ATOM     15  C   UNL     1       5.130   4.110  16.109  0.00  0.00    +0.000 A 
ATOM     16  N   UNL     1       4.143   3.649  16.778  0.00  0.00    +0.000 NA
ATOM     17  C   UNL     1       5.431   4.203  14.680  0.00  0.00    +0.000 C 
ATOM     18  C   UNL     1       6.771   5.002  14.674  0.00  0.00    +0.000 C 
ATOM     19  C   UNL     1       7.156   5.291  16.151  0.00  0.00    +0.000 C 
ENDBRANCH   7  12
TORSDOF 1
ENDMDL
MODEL 5
REMARK VINA RESULT:      -7.3      2.930      6.288
REMARK  Name = 
REMARK  1 active torsions:
REMARK  status: ('A' for Active; 'I' for Inactive)
REMARK    1  A    between atoms: C_7  and  N_8
REMARK                            x       y       z     vdW  Elec       q    Type
REMARK                         _______ _______ _______ _____ _____    ______ ____
ROOT
ATOM      1  F   UNL     1       0.916   2.790  22.211  0.00  0.00    +0.000 F 
ATOM      2  C   UNL     1       1.743   3.149  21.221  0.00  0.00    +0.000 A 
ATOM      3  C   UNL     1       1.348   4.110  20.301  0.00  0.00    +0.000 A 
ATOM      4  F   UNL     1       0.146   4.690  20.405  0.00  0.00    +0.000 F 
ATOM      5  C   UNL     1       2.190   4.467  19.254  0.00  0.00    +0.000 A 
ATOM      6  F   UNL     1       1.777   5.395  18.383  0.00  0.00    +0.000 F 
ATOM      7  C   UNL     1       3.434   3.852  19.115  0.00  0.00    +0.000 A 
ATOM      8  C   UNL     1       3.843   2.903  20.056  0.00  0.00    +0.000 A 
ATOM      9  F   UNL     1       5.041   2.307  19.977  0.00  0.00    +0.000 F 
ATOM     10  C   UNL     1       2.992   2.555  21.103  0.00  0.00    +0.000 A 
ATOM     11  F   UNL     1       3.379   1.632  21.993  0.00  0.00    +0.000 F 
ENDROOT
BRANCH   7  12
ATOM     12  N   UNL     1       4.278   4.167  17.954  0.00  0.00    +0.000 N 
ATOM     13  C   UNL     1       4.162   3.697  16.688  0.00  0.00    +0.000 A 
ATOM     14  N   UNL     1       5.191   4.202  16.021  0.00  0.00    +0.000 N 
ATOM     15  C   UNL     1       5.905   4.959  16.882  0.00  0.00    +0.000 A 
ATOM     16  N   UNL     1       5.411   4.991  18.060  0.00  0.00    +0.000 NA
ATOM     17  C   UNL     1       7.123   5.501  16.278  0.00  0.00    +0.000 C 
ATOM     18  C   UNL     1       7.059   4.927  14.829  0.00  0.00    +0.000 C 
ATOM     19  C   UNL     1       5.754   4.093  14.707  0.00  0.00    +0.000 C 
ENDBRANCH   7  12
TORSDOF 1
ENDMDL
MODEL 6
REMARK VINA RESULT:      -7.3      0.371      2.449
REMARK  Name = 
REMARK  1 active torsions:
REMARK  status: ('A' for Active; 'I' for Inactive)
REMARK    1  A    between atoms: C_7  and  N_8
REMARK                            x       y       z     vdW  Elec       q    Type
REMARK                         _______ _______ _______ _____ _____    ______ ____
ROOT
ATOM      1  F   UNL     1       7.793   5.509  14.586  0.00  0.00    +0.000 F 
ATOM      2  C   UNL     1       6.982   5.136  15.584  0.00  0.00    +0.000 A 
ATOM      3  C   UNL     1       6.058   4.120  15.386  0.00  0.00    +0.000 A 
ATOM      4  F   UNL     1       5.981   3.500  14.201  0.00  0.00    +0.000 F 
ATOM      5  C   UNL     1       5.194   3.747  16.409  0.00  0.00    +0.000 A 
ATOM      6  F   UNL     1       4.313   2.765  16.182  0.00  0.00    +0.000 F 
ATOM      7  C   UNL     1       5.242   4.401  17.639  0.00  0.00    +0.000 A 
ATOM      8  C   UNL     1       6.189   5.407  17.849  0.00  0.00    +0.000 A 
ATOM      9  F   UNL     1       6.289   6.043  19.024  0.00  0.00    +0.000 F 
ATOM     10  C   UNL     1       7.053   5.770  16.818  0.00  0.00    +0.000 A 
ATOM     11  F   UNL     1       7.948   6.746  17.015  0.00  0.00    +0.000 F 
ENDROOT
BRANCH   7  12
ATOM     12  N   UNL     1       4.263   4.065  18.682  0.00  0.00    +0.000 N 
ATOM     13  C   UNL     1       4.439   3.263  19.762  0.00  0.00    +0.000 A 
ATOM     14  N   UNL     1       3.258   3.205  20.363  0.00  0.00    +0.000 N 
ATOM     15  C   UNL     1       2.397   3.961  19.647  0.00  0.00    +0.000 A 
ATOM     16  N   UNL     1       2.934   4.514  18.628  0.00  0.00    +0.000 NA
ATOM     17  C   UNL     1       1.030   3.902  20.167  0.00  0.00    +0.000 C 
ATOM     18  C   UNL     1       1.178   2.933  21.380  0.00  0.00    +0.000 C 
ATOM     19  C   UNL     1       2.672   2.519  21.476  0.00  0.00    +0.000 C 
ENDBRANCH   7  12
TORSDOF 1
ENDMDL
MODEL 7
REMARK VINA RESULT:      -7.2      2.715      5.919
REMARK  Name = 
REMARK  1 active torsions:
REMARK  status: ('A' for Active; 'I' for Inactive)
REMARK    1  A    between atoms: C_7  and  N_8
REMARK                            x       y       z     vdW  Elec       q    Type
REMARK                         _______ _______ _______ _____ _____    ______ ____
ROOT
ATOM      1  F   UNL     1       0.240   2.246  19.024  0.00  0.00    +0.000 F 
ATOM      2  C   UNL     1       1.326   3.004  18.836  0.00  0.00    +0.000 A 
ATOM      3  C   UNL     1       2.279   2.632  17.899  0.00  0.00    +0.000 A 
ATOM      4  F   UNL     1       2.111   1.520  17.171  0.00  0.00    +0.000 F 
ATOM      5  C   UNL     1       3.424   3.400  17.719  0.00  0.00    +0.000 A 
ATOM      6  F   UNL     1       4.325   3.010  16.808  0.00  0.00    +0.000 F 
ATOM      7  C   UNL     1       3.628   4.545  18.488  0.00  0.00    +0.000 A 
ATOM      8  C   UNL     1       2.656   4.935  19.414  0.00  0.00    +0.000 A 
ATOM      9  F   UNL     1       2.797   6.043  20.155  0.00  0.00    +0.000 F 
ATOM     10  C   UNL     1       1.511   4.160  19.585  0.00  0.00    +0.000 A 
ATOM     11  F   UNL     1       0.590   4.526  20.485  0.00  0.00    +0.000 F 
ENDROOT
BRANCH   7  12
ATOM     12  N   UNL     1       4.882   5.298  18.357  0.00  0.00    +0.000 N 
ATOM     13  C   UNL     1       6.036   5.120  19.045  0.00  0.00    +0.000 A 
ATOM     14  N   UNL     1       6.853   6.081  18.636  0.00  0.00    +0.000 N 
ATOM     15  C   UNL     1       6.188   6.819  17.719  0.00  0.00    +0.000 A 
ATOM     16  N   UNL     1       5.002   6.400  17.495  0.00  0.00    +0.000 NA
ATOM     17  C   UNL     1       6.962   7.971  17.256  0.00  0.00    +0.000 C 
ATOM     18  C   UNL     1       8.281   7.838  18.078  0.00  0.00    +0.000 C 
ATOM     19  C   UNL     1       8.164   6.562  18.957  0.00  0.00    +0.000 C 
ENDBRANCH   7  12
TORSDOF 1
ENDMDL
MODEL 8
REMARK VINA RESULT:      -7.1      0.698      2.726
REMARK  Name = 
REMARK  1 active torsions:
REMARK  status: ('A' for Active; 'I' for Inactive)
REMARK    1  A    between atoms: C_7  and  N_8
REMARK                            x       y       z     vdW  Elec       q    Type
REMARK                         _______ _______ _______ _____ _____    ______ ____
ROOT
ATOM      1  F   UNL     1       7.812   5.881  15.059  0.00  0.00    +0.000 F 
ATOM      2  C   UNL     1       6.928   5.401  15.943  0.00  0.00    +0.000 A 
ATOM      3  C   UNL     1       5.883   4.597  15.513  0.00  0.00    +0.000 A 
ATOM      4  F   UNL     1       5.759   4.288  14.216  0.00  0.00    +0.000 F 
ATOM      5  C   UNL     1       4.946   4.119  16.421  0.00  0.00    +0.000 A 
ATOM      6  F   UNL     1       3.947   3.348  15.972  0.00  0.00    +0.000 F 
ATOM      7  C   UNL     1       5.044   4.454  17.771  0.00  0.00    +0.000 A 
ATOM      8  C   UNL     1       6.111   5.243  18.209  0.00  0.00    +0.000 A 
ATOM      9  F   UNL     1       6.261   5.567  19.501  0.00  0.00    +0.000 F 
ATOM     10  C   UNL     1       7.047   5.714  17.291  0.00  0.00    +0.000 A 
ATOM     11  F   UNL     1       8.059   6.484  17.710  0.00  0.00    +0.000 F 
ENDROOT
BRANCH   7  12
ATOM     12  N   UNL     1       3.998   4.022  18.708  0.00  0.00    +0.000 N 
ATOM     13  C   UNL     1       2.731   4.492  18.817  0.00  0.00    +0.000 A 
ATOM     14  N   UNL     1       2.197   3.853  19.849  0.00  0.00    +0.000 N 
ATOM     15  C   UNL     1       3.137   3.018  20.343  0.00  0.00    +0.000 A 
ATOM     16  N   UNL     1       4.241   3.060  19.702  0.00  0.00    +0.000 NA
ATOM     17  C   UNL     1       2.689   2.317  21.548  0.00  0.00    +0.000 C 
ATOM     18  C   UNL     1       1.249   2.882  21.745  0.00  0.00    +0.000 C 
ATOM     19  C   UNL     1       0.967   3.876  20.585  0.00  0.00    +0.000 C 
ENDBRANCH   7  12
TORSDOF 1
ENDMDL
MODEL 9
REMARK VINA RESULT:      -7.1      0.644      1.211
REMARK  Name = 
REMARK  1 active torsions:
REMARK  status: ('A' for Active; 'I' for Inactive)
REMARK    1  A    between atoms: C_7  and  N_8
REMARK                            x       y       z     vdW  Elec       q    Type
REMARK                         _______ _______ _______ _____ _____    ______ ____
ROOT
ATOM      1  F   UNL     1       7.842   5.433  14.932  0.00  0.00    +0.000 F 
ATOM      2  C   UNL     1       6.871   5.140  15.807  0.00  0.00    +0.000 A 
ATOM      3  C   UNL     1       6.976   5.558  17.125  0.00  0.00    +0.000 A 
ATOM      4  F   UNL     1       8.040   6.265  17.527  0.00  0.00    +0.000 F 
ATOM      5  C   UNL     1       5.985   5.234  18.046  0.00  0.00    +0.000 A 
ATOM      6  F   UNL     1       6.120   5.650  19.311  0.00  0.00    +0.000 F 
ATOM      7  C   UNL     1       4.885   4.474  17.651  0.00  0.00    +0.000 A 
ATOM      8  C   UNL     1       4.766   4.075  16.317  0.00  0.00    +0.000 A 
ATOM      9  F   UNL     1       3.711   3.368  15.887  0.00  0.00    +0.000 F 
ATOM     10  C   UNL     1       5.762   4.408  15.402  0.00  0.00    +0.000 A 
ATOM     11  F   UNL     1       5.655   4.010  14.129  0.00  0.00    +0.000 F 
ENDROOT
BRANCH   7  12
ATOM     12  N   UNL     1       3.891   4.057  18.649  0.00  0.00    +0.000 N 
ATOM     13  C   UNL     1       2.639   4.543  18.832  0.00  0.00    +0.000 A 
ATOM     14  N   UNL     1       2.158   3.911  19.894  0.00  0.00    +0.000 N 
ATOM     15  C   UNL     1       3.115   3.064  20.333  0.00  0.00    +0.000 A 
ATOM     16  N   UNL     1       4.180   3.092  19.628  0.00  0.00    +0.000 NA
ATOM     17  C   UNL     1       2.730   2.370  21.562  0.00  0.00    +0.000 C 
ATOM     18  C   UNL     1       1.311   2.953  21.844  0.00  0.00    +0.000 C 
ATOM     19  C   UNL     1       0.974   3.951  20.701  0.00  0.00    +0.000 C 
ENDBRANCH   7  12
TORSDOF 1
ENDMDL
