MODEL 1
REMARK VINA RESULT:      -6.9      0.000      0.000
REMARK  Name = 
REMARK  7 active torsions:
REMARK  status: ('A' for Active; 'I' for Inactive)
REMARK    1  A    between atoms: C_1  and  C_2
REMARK    2  A    between atoms: C_2  and  C_3
REMARK    3  A    between atoms: N_5  and  C_6
REMARK    4  A    between atoms: C_6  and  C_7
REMARK    5  A    between atoms: C_7  and  C_8
REMARK    6  A    between atoms: C_11  and  O_12
REMARK    7  A    between atoms: O_12  and  C_13
REMARK                            x       y       z     vdW  Elec       q    Type
REMARK                         _______ _______ _______ _____ _____    ______ ____
ROOT
ATOM      1  C   UNL     1       5.644   4.366  18.272  0.00  0.00    +0.000 A 
ATOM      2  C   UNL     1       4.779   4.849  19.234  0.00  0.00    +0.000 A 
ATOM      3  C   UNL     1       3.577   4.093  19.182  0.00  0.00    +0.000 A 
ATOM      4  C   UNL     1       2.374   4.138  19.921  0.00  0.00    +0.000 A 
ATOM      5  C   UNL     1       1.362   3.231  19.577  0.00  0.00    +0.000 A 
ATOM      6  C   UNL     1       1.540   2.310  18.542  0.00  0.00    +0.000 A 
ATOM      7  C   UNL     1       2.729   2.252  17.813  0.00  0.00    +0.000 A 
ATOM      8  C   UNL     1       3.734   3.161  18.158  0.00  0.00    +0.000 A 
ATOM      9  N   UNL     1       4.991   3.345  17.624  0.00  0.00    +0.000 N 
ATOM     10  H   UNL     1       5.366   2.809  16.857  0.00  0.00    +0.000 HD
ENDROOT
BRANCH   4  11
ATOM     11  O   UNL     1       2.302   5.071  20.921  0.00  0.00    +0.000 OA
ATOM     12  C   UNL     1       1.663   6.301  20.620  0.00  0.00    +0.000 C 
ENDBRANCH   4  11
BRANCH   1  13
ATOM     13  C   UNL     1       7.024   4.805  17.898  0.00  0.00    +0.000 C 
BRANCH  13  14
ATOM     14  C   UNL     1       7.004   5.871  16.797  0.00  0.00    +0.000 C 
BRANCH  14  17
ATOM     15  C   UNL     1       6.409   4.879  14.629  0.00  0.00    +0.000 C 
ATOM     16  O   UNL     1       5.213   4.848  14.901  0.00  0.00    +0.000 OA
ATOM     17  N   UNL     1       7.371   5.339  15.500  0.00  0.00    +0.000 N 
ATOM     18  H   UNL     1       8.351   5.250  15.266  0.00  0.00    +0.000 HD
BRANCH  15  20
ATOM     19  C   UNL     1       6.036   3.472  12.588  0.00  0.00    +0.000 C 
ATOM     20  C   UNL     1       6.974   4.434  13.297  0.00  0.00    +0.000 C 
ENDBRANCH  15  20
ENDBRANCH  14  17
ENDBRANCH  13  14
ENDBRANCH   1  13
TORSDOF 5
ENDMDL
MODEL 2
REMARK VINA RESULT:      -6.9      2.001      3.008
REMARK  Name = 
REMARK  7 active torsions:
REMARK  status: ('A' for Active; 'I' for Inactive)
REMARK    1  A    between atoms: C_1  and  C_2
REMARK    2  A    between atoms: C_2  and  C_3
REMARK    3  A    between atoms: N_5  and  C_6
REMARK    4  A    between atoms: C_6  and  C_7
REMARK    5  A    between atoms: C_7  and  C_8
REMARK    6  A    between atoms: C_11  and  O_12
REMARK    7  A    between atoms: O_12  and  C_13
REMARK                            x       y       z     vdW  Elec       q    Type
REMARK                         _______ _______ _______ _____ _____    ______ ____
ROOT
ATOM      1  C   UNL     1       4.649   4.275  16.943  0.00  0.00    +0.000 A 
ATOM      2  C   UNL     1       3.825   5.268  17.430  0.00  0.00    +0.000 A 
ATOM      3  C   UNL     1       3.271   4.833  18.664  0.00  0.00    +0.000 A 
ATOM      4  C   UNL     1       2.386   5.428  19.590  0.00  0.00    +0.000 A 
ATOM      5  C   UNL     1       2.025   4.682  20.721  0.00  0.00    +0.000 A 
ATOM      6  C   UNL     1       2.529   3.396  20.927  0.00  0.00    +0.000 A 
ATOM      7  C   UNL     1       3.412   2.804  20.022  0.00  0.00    +0.000 A 
ATOM      8  C   UNL     1       3.765   3.551  18.894  0.00  0.00    +0.000 A 
ATOM      9  N   UNL     1       4.597   3.236  17.842  0.00  0.00    +0.000 N 
ATOM     10  H   UNL     1       5.085   2.359  17.746  0.00  0.00    +0.000 HD
ENDROOT
BRANCH   4  11
ATOM     11  O   UNL     1       1.954   6.695  19.300  0.00  0.00    +0.000 OA
ATOM     12  C   UNL     1       1.875   7.619  20.374  0.00  0.00    +0.000 C 
ENDBRANCH   4  11
BRANCH   1  13
ATOM     13  C   UNL     1       5.461   4.214  15.688  0.00  0.00    +0.000 C 
BRANCH  13  14
ATOM     14  C   UNL     1       6.964   4.292  15.977  0.00  0.00    +0.000 C 
BRANCH  14  17
ATOM     15  C   UNL     1       7.567   5.507  18.025  0.00  0.00    +0.000 C 
ATOM     16  O   UNL     1       7.434   4.512  18.730  0.00  0.00    +0.000 OA
ATOM     17  N   UNL     1       7.337   5.509  16.667  0.00  0.00    +0.000 N 
ATOM     18  H   UNL     1       7.364   6.378  16.151  0.00  0.00    +0.000 HD
BRANCH  15  20
ATOM     19  C   UNL     1       7.721   7.967  17.568  0.00  0.00    +0.000 C 
ATOM     20  C   UNL     1       8.020   6.852  18.555  0.00  0.00    +0.000 C 
ENDBRANCH  15  20
ENDBRANCH  14  17
ENDBRANCH  13  14
ENDBRANCH   1  13
TORSDOF 5
ENDMDL
MODEL 3
REMARK VINA RESULT:      -6.7      2.053      2.858
REMARK  Name = 
REMARK  7 active torsions:
REMARK  status: ('A' for Active; 'I' for Inactive)
REMARK    1  A    between atoms: C_1  and  C_2
REMARK    2  A    between atoms: C_2  and  C_3
REMARK    3  A    between atoms: N_5  and  C_6
REMARK    4  A    between atoms: C_6  and  C_7
REMARK    5  A    between atoms: C_7  and  C_8
REMARK    6  A    between atoms: C_11  and  O_12
REMARK    7  A    between atoms: O_12  and  C_13
REMARK                            x       y       z     vdW  Elec       q    Type
REMARK                         _______ _______ _______ _____ _____    ______ ____
ROOT
ATOM      1  C   UNL     1       3.644   6.111  17.903  0.00  0.00    +0.000 A 
ATOM      2  C   UNL     1       3.539   4.758  17.650  0.00  0.00    +0.000 A 
ATOM      3  C   UNL     1       2.704   4.176  18.642  0.00  0.00    +0.000 A 
ATOM      4  C   UNL     1       2.250   2.858  18.871  0.00  0.00    +0.000 A 
ATOM      5  C   UNL     1       1.432   2.634  19.988  0.00  0.00    +0.000 A 
ATOM      6  C   UNL     1       1.075   3.681  20.841  0.00  0.00    +0.000 A 
ATOM      7  C   UNL     1       1.510   4.988  20.617  0.00  0.00    +0.000 A 
ATOM      8  C   UNL     1       2.328   5.205  19.504  0.00  0.00    +0.000 A 
ATOM      9  N   UNL     1       2.908   6.365  19.036  0.00  0.00    +0.000 N 
ATOM     10  H   UNL     1       2.810   7.266  19.476  0.00  0.00    +0.000 HD
ENDROOT
BRANCH   4  11
ATOM     11  O   UNL     1       2.650   1.906  17.973  0.00  0.00    +0.000 OA
ATOM     12  C   UNL     1       3.813   1.158  18.289  0.00  0.00    +0.000 C 
ENDBRANCH   4  11
BRANCH   1  13
ATOM     13  C   UNL     1       4.403   7.179  17.181  0.00  0.00    +0.000 C 
BRANCH  13  14
ATOM     14  C   UNL     1       5.873   6.795  16.978  0.00  0.00    +0.000 C 
BRANCH  14  17
ATOM     15  C   UNL     1       6.951   5.158  15.497  0.00  0.00    +0.000 C 
ATOM     16  O   UNL     1       7.537   4.610  16.425  0.00  0.00    +0.000 OA
ATOM     17  N   UNL     1       6.131   6.252  15.660  0.00  0.00    +0.000 N 
ATOM     18  H   UNL     1       5.753   6.726  14.851  0.00  0.00    +0.000 HD
BRANCH  15  20
ATOM     19  C   UNL     1       5.838   3.843  13.676  0.00  0.00    +0.000 C 
ATOM     20  C   UNL     1       7.040   4.689  14.060  0.00  0.00    +0.000 C 
ENDBRANCH  15  20
ENDBRANCH  14  17
ENDBRANCH  13  14
ENDBRANCH   1  13
TORSDOF 5
ENDMDL
MODEL 4
REMARK VINA RESULT:      -6.7      1.590      6.118
REMARK  Name = 
REMARK  7 active torsions:
REMARK  status: ('A' for Active; 'I' for Inactive)
REMARK    1  A    between atoms: C_1  and  C_2
REMARK    2  A    between atoms: C_2  and  C_3
REMARK    3  A    between atoms: N_5  and  C_6
REMARK    4  A    between atoms: C_6  and  C_7
REMARK    5  A    between atoms: C_7  and  C_8
REMARK    6  A    between atoms: C_11  and  O_12
REMARK    7  A    between atoms: O_12  and  C_13
REMARK                            x       y       z     vdW  Elec       q    Type
REMARK                         _______ _______ _______ _____ _____    ______ ____
ROOT
ATOM      1  C   UNL     1       4.354   3.038  18.043  0.00  0.00    +0.000 A 
ATOM      2  C   UNL     1       4.658   3.739  16.893  0.00  0.00    +0.000 A 
ATOM      3  C   UNL     1       5.656   4.702  17.200  0.00  0.00    +0.000 A 
ATOM      4  C   UNL     1       6.336   5.669  16.427  0.00  0.00    +0.000 A 
ATOM      5  C   UNL     1       7.269   6.488  17.079  0.00  0.00    +0.000 A 
ATOM      6  C   UNL     1       7.520   6.347  18.445  0.00  0.00    +0.000 A 
ATOM      7  C   UNL     1       6.860   5.388  19.215  0.00  0.00    +0.000 A 
ATOM      8  C   UNL     1       5.928   4.577  18.561  0.00  0.00    +0.000 A 
ATOM      9  N   UNL     1       5.130   3.564  19.047  0.00  0.00    +0.000 N 
ATOM     10  H   UNL     1       5.116   3.266  20.010  0.00  0.00    +0.000 HD
ENDROOT
BRANCH   4  11
ATOM     11  O   UNL     1       6.024   5.722  15.095  0.00  0.00    +0.000 OA
ATOM     12  C   UNL     1       6.755   4.879  14.219  0.00  0.00    +0.000 C 
ENDBRANCH   4  11
BRANCH   1  13
ATOM     13  C   UNL     1       3.374   1.933  18.277  0.00  0.00    +0.000 C 
BRANCH  13  14
ATOM     14  C   UNL     1       2.311   2.323  19.310  0.00  0.00    +0.000 C 
BRANCH  14  17
ATOM     15  C   UNL     1       2.021   4.381  20.620  0.00  0.00    +0.000 C 
ATOM     16  O   UNL     1       2.051   3.779  21.689  0.00  0.00    +0.000 OA
ATOM     17  N   UNL     1       2.117   3.756  19.397  0.00  0.00    +0.000 N 
ATOM     18  H   UNL     1       1.987   4.286  18.546  0.00  0.00    +0.000 HD
BRANCH  15  20
ATOM     19  C   UNL     1       2.601   6.414  19.274  0.00  0.00    +0.000 C 
ATOM     20  C   UNL     1       1.898   5.886  20.513  0.00  0.00    +0.000 C 
ENDBRANCH  15  20
ENDBRANCH  14  17
ENDBRANCH  13  14
ENDBRANCH   1  13
TORSDOF 5
ENDMDL
MODEL 5
REMARK VINA RESULT:      -6.7      1.260      1.365
REMARK  Name = 
REMARK  7 active torsions:
REMARK  status: ('A' for Active; 'I' for Inactive)
REMARK    1  A    between atoms: C_1  and  C_2
REMARK    2  A    between atoms: C_2  and  C_3
REMARK    3  A    between atoms: N_5  and  C_6
REMARK    4  A    between atoms: C_6  and  C_7
REMARK    5  A    between atoms: C_7  and  C_8
REMARK    6  A    between atoms: C_11  and  O_12
REMARK    7  A    between atoms: O_12  and  C_13
REMARK                            x       y       z     vdW  Elec       q    Type
REMARK                         _______ _______ _______ _____ _____    ______ ____
ROOT
ATOM      1  C   UNL     1       5.763   4.596  18.551  0.00  0.00    +0.000 A 
ATOM      2  C   UNL     1       4.866   5.625  18.754  0.00  0.00    +0.000 A 
ATOM      3  C   UNL     1       3.734   5.110  19.441  0.00  0.00    +0.000 A 
ATOM      4  C   UNL     1       2.537   5.697  19.908  0.00  0.00    +0.000 A 
ATOM      5  C   UNL     1       1.605   4.863  20.542  0.00  0.00    +0.000 A 
ATOM      6  C   UNL     1       1.856   3.500  20.713  0.00  0.00    +0.000 A 
ATOM      7  C   UNL     1       3.040   2.913  20.264  0.00  0.00    +0.000 A 
ATOM      8  C   UNL     1       3.964   3.748  19.628  0.00  0.00    +0.000 A 
ATOM      9  N   UNL     1       5.197   3.462  19.083  0.00  0.00    +0.000 N 
ATOM     10  H   UNL     1       5.613   2.543  19.070  0.00  0.00    +0.000 HD
ENDROOT
BRANCH   4  11
ATOM     11  O   UNL     1       2.390   7.042  19.699  0.00  0.00    +0.000 OA
ATOM     12  C   UNL     1       1.527   7.748  20.575  0.00  0.00    +0.000 C 
ENDBRANCH   4  11
BRANCH   1  13
ATOM     13  C   UNL     1       7.097   4.589  17.875  0.00  0.00    +0.000 C 
BRANCH  13  14
ATOM     14  C   UNL     1       7.223   5.722  16.851  0.00  0.00    +0.000 C 
BRANCH  14  17
ATOM     15  C   UNL     1       6.461   5.017  14.624  0.00  0.00    +0.000 C 
ATOM     16  O   UNL     1       5.279   5.171  14.911  0.00  0.00    +0.000 OA
ATOM     17  N   UNL     1       7.491   5.237  15.512  0.00  0.00    +0.000 N 
ATOM     18  H   UNL     1       8.440   5.000  15.257  0.00  0.00    +0.000 HD
BRANCH  15  20
ATOM     19  C   UNL     1       6.078   3.468  12.691  0.00  0.00    +0.000 C 
ATOM     20  C   UNL     1       6.939   4.586  13.254  0.00  0.00    +0.000 C 
ENDBRANCH  15  20
ENDBRANCH  14  17
ENDBRANCH  13  14
ENDBRANCH   1  13
TORSDOF 5
ENDMDL
MODEL 6
REMARK VINA RESULT:      -6.7      2.175      2.801
REMARK  Name = 
REMARK  7 active torsions:
REMARK  status: ('A' for Active; 'I' for Inactive)
REMARK    1  A    between atoms: C_1  and  C_2
REMARK    2  A    between atoms: C_2  and  C_3
REMARK    3  A    between atoms: N_5  and  C_6
REMARK    4  A    between atoms: C_6  and  C_7
REMARK    5  A    between atoms: C_7  and  C_8
REMARK    6  A    between atoms: C_11  and  O_12
REMARK    7  A    between atoms: O_12  and  C_13
REMARK                            x       y       z     vdW  Elec       q    Type
REMARK                         _______ _______ _______ _____ _____    ______ ____
ROOT
ATOM      1  C   UNL     1       5.929   4.699  16.927  0.00  0.00    +0.000 A 
ATOM      2  C   UNL     1       5.205   5.872  16.859  0.00  0.00    +0.000 A 
ATOM      3  C   UNL     1       4.211   5.850  17.874  0.00  0.00    +0.000 A 
ATOM      4  C   UNL     1       3.212   6.768  18.269  0.00  0.00    +0.000 A 
ATOM      5  C   UNL     1       2.369   6.400  19.327  0.00  0.00    +0.000 A 
ATOM      6  C   UNL     1       2.517   5.171  19.972  0.00  0.00    +0.000 A 
ATOM      7  C   UNL     1       3.507   4.262  19.596  0.00  0.00    +0.000 A 
ATOM      8  C   UNL     1       4.343   4.632  18.538  0.00  0.00    +0.000 A 
ATOM      9  N   UNL     1       5.389   3.955  17.948  0.00  0.00    +0.000 N 
ATOM     10  H   UNL     1       5.699   3.037  18.226  0.00  0.00    +0.000 HD
ENDROOT
BRANCH   4  11
ATOM     11  O   UNL     1       3.155   7.949  17.578  0.00  0.00    +0.000 OA
ATOM     12  C   UNL     1       2.041   8.793  17.819  0.00  0.00    +0.000 C 
ENDBRANCH   4  11
BRANCH   1  13
ATOM     13  C   UNL     1       7.071   4.212  16.093  0.00  0.00    +0.000 C 
BRANCH  13  14
ATOM     14  C   UNL     1       6.946   4.667  14.634  0.00  0.00    +0.000 C 
BRANCH  14  17
ATOM     15  C   UNL     1       6.375   3.631  12.481  0.00  0.00    +0.000 C 
ATOM     16  O   UNL     1       7.211   4.289  11.872  0.00  0.00    +0.000 OA
ATOM     17  N   UNL     1       6.150   3.759  13.834  0.00  0.00    +0.000 N 
ATOM     18  H   UNL     1       5.382   3.265  14.268  0.00  0.00    +0.000 HD
BRANCH  15  20
ATOM     19  C   UNL     1       4.203   3.182  11.314  0.00  0.00    +0.000 C 
ATOM     20  C   UNL     1       5.500   2.582  11.828  0.00  0.00    +0.000 C 
ENDBRANCH  15  20
ENDBRANCH  14  17
ENDBRANCH  13  14
ENDBRANCH   1  13
TORSDOF 5
ENDMDL
MODEL 7
REMARK VINA RESULT:      -6.7      1.923      3.442
REMARK  Name = 
REMARK  7 active torsions:
REMARK  status: ('A' for Active; 'I' for Inactive)
REMARK    1  A    between atoms: C_1  and  C_2
REMARK    2  A    between atoms: C_2  and  C_3
REMARK    3  A    between atoms: N_5  and  C_6
REMARK    4  A    between atoms: C_6  and  C_7
REMARK    5  A    between atoms: C_7  and  C_8
REMARK    6  A    between atoms: C_11  and  O_12
REMARK    7  A    between atoms: O_12  and  C_13
REMARK                            x       y       z     vdW  Elec       q    Type
REMARK                         _______ _______ _______ _____ _____    ______ ____
ROOT
ATOM      1  C   UNL     1       4.755   4.402  16.752  0.00  0.00    +0.000 A 
ATOM      2  C   UNL     1       4.273   3.636  17.795  0.00  0.00    +0.000 A 
ATOM      3  C   UNL     1       3.488   4.466  18.640  0.00  0.00    +0.000 A 
ATOM      4  C   UNL     1       2.759   4.223  19.826  0.00  0.00    +0.000 A 
ATOM      5  C   UNL     1       2.100   5.308  20.420  0.00  0.00    +0.000 A 
ATOM      6  C   UNL     1       2.158   6.584  19.855  0.00  0.00    +0.000 A 
ATOM      7  C   UNL     1       2.867   6.831  18.679  0.00  0.00    +0.000 A 
ATOM      8  C   UNL     1       3.525   5.746  18.091  0.00  0.00    +0.000 A 
ATOM      9  N   UNL     1       4.295   5.682  16.951  0.00  0.00    +0.000 N 
ATOM     10  H   UNL     1       4.499   6.472  16.358  0.00  0.00    +0.000 HD
ENDROOT
BRANCH   4  11
ATOM     11  O   UNL     1       2.758   2.937  20.294  0.00  0.00    +0.000 OA
ATOM     12  C   UNL     1       2.434   2.740  21.660  0.00  0.00    +0.000 C 
ENDBRANCH   4  11
BRANCH   1  13
ATOM     13  C   UNL     1       5.632   4.031  15.599  0.00  0.00    +0.000 C 
BRANCH  13  14
ATOM     14  C   UNL     1       6.808   5.002  15.442  0.00  0.00    +0.000 C 
BRANCH  14  17
ATOM     15  C   UNL     1       7.361   6.559  17.261  0.00  0.00    +0.000 C 
ATOM     16  O   UNL     1       6.777   7.493  16.723  0.00  0.00    +0.000 OA
ATOM     17  N   UNL     1       7.455   5.303  16.703  0.00  0.00    +0.000 N 
ATOM     18  H   UNL     1       8.032   4.596  17.140  0.00  0.00    +0.000 HD
BRANCH  15  20
ATOM     19  C   UNL     1       7.494   5.626  19.584  0.00  0.00    +0.000 C 
ATOM     20  C   UNL     1       8.035   6.662  18.613  0.00  0.00    +0.000 C 
ENDBRANCH  15  20
ENDBRANCH  14  17
ENDBRANCH  13  14
ENDBRANCH   1  13
TORSDOF 5
ENDMDL
MODEL 8
REMARK VINA RESULT:      -6.6      1.949      3.552
REMARK  Name = 
REMARK  7 active torsions:
REMARK  status: ('A' for Active; 'I' for Inactive)
REMARK    1  A    between atoms: C_1  and  C_2
REMARK    2  A    between atoms: C_2  and  C_3
REMARK    3  A    between atoms: N_5  and  C_6
REMARK    4  A    between atoms: C_6  and  C_7
REMARK    5  A    between atoms: C_7  and  C_8
REMARK    6  A    between atoms: C_11  and  O_12
REMARK    7  A    between atoms: O_12  and  C_13
REMARK                            x       y       z     vdW  Elec       q    Type
REMARK                         _______ _______ _______ _____ _____    ______ ____
ROOT
ATOM      1  C   UNL     1       4.611   4.729  16.616  0.00  0.00    +0.000 A 
ATOM      2  C   UNL     1       4.129   3.818  17.533  0.00  0.00    +0.000 A 
ATOM      3  C   UNL     1       3.363   4.516  18.505  0.00  0.00    +0.000 A 
ATOM      4  C   UNL     1       2.643   4.102  19.648  0.00  0.00    +0.000 A 
ATOM      5  C   UNL     1       2.005   5.090  20.411  0.00  0.00    +0.000 A 
ATOM      6  C   UNL     1       2.075   6.437  20.049  0.00  0.00    +0.000 A 
ATOM      7  C   UNL     1       2.776   6.854  18.917  0.00  0.00    +0.000 A 
ATOM      8  C   UNL     1       3.413   5.865  18.161  0.00  0.00    +0.000 A 
ATOM      9  N   UNL     1       4.172   5.969  17.015  0.00  0.00    +0.000 N 
ATOM     10  H   UNL     1       4.380   6.838  16.549  0.00  0.00    +0.000 HD
ENDROOT
BRANCH   4  11
ATOM     11  O   UNL     1       2.629   2.759  19.912  0.00  0.00    +0.000 OA
ATOM     12  C   UNL     1       1.579   1.993  19.345  0.00  0.00    +0.000 C 
ENDBRANCH   4  11
BRANCH   1  13
ATOM     13  C   UNL     1       5.472   4.530  15.409  0.00  0.00    +0.000 C 
BRANCH  13  14
ATOM     14  C   UNL     1       6.964   4.581  15.759  0.00  0.00    +0.000 C 
BRANCH  14  17
ATOM     15  C   UNL     1       7.615   5.541  17.925  0.00  0.00    +0.000 C 
ATOM     16  O   UNL     1       7.588   4.451  18.486  0.00  0.00    +0.000 OA
ATOM     17  N   UNL     1       7.302   5.715  16.594  0.00  0.00    +0.000 N 
ATOM     18  H   UNL     1       7.244   6.646  16.206  0.00  0.00    +0.000 HD
BRANCH  15  20
ATOM     19  C   UNL     1       7.862   8.024  17.694  0.00  0.00    +0.000 C 
ATOM     20  C   UNL     1       8.016   6.827  18.616  0.00  0.00    +0.000 C 
ENDBRANCH  15  20
ENDBRANCH  14  17
ENDBRANCH  13  14
ENDBRANCH   1  13
TORSDOF 5
ENDMDL
MODEL 9
REMARK VINA RESULT:      -6.6      1.491      1.594
REMARK  Name = 
REMARK  7 active torsions:
REMARK  status: ('A' for Active; 'I' for Inactive)
REMARK    1  A    between atoms: C_1  and  C_2
REMARK    2  A    between atoms: C_2  and  C_3
REMARK    3  A    between atoms: N_5  and  C_6
REMARK    4  A    between atoms: C_6  and  C_7
REMARK    5  A    between atoms: C_7  and  C_8
REMARK    6  A    between atoms: C_11  and  O_12
REMARK    7  A    between atoms: O_12  and  C_13
REMARK                            x       y       z     vdW  Elec       q    Type
REMARK                         _______ _______ _______ _____ _____    ______ ____
ROOT
ATOM      1  C   UNL     1       4.190   4.881  17.244  0.00  0.00    +0.000 A 
ATOM      2  C   UNL     1       3.753   5.518  18.388  0.00  0.00    +0.000 A 
ATOM      3  C   UNL     1       2.705   4.749  18.962  0.00  0.00    +0.000 A 
ATOM      4  C   UNL     1       1.909   4.911  20.118  0.00  0.00    +0.000 A 
ATOM      5  C   UNL     1       0.927   3.944  20.375  0.00  0.00    +0.000 A 
ATOM      6  C   UNL     1       0.747   2.855  19.520  0.00  0.00    +0.000 A 
ATOM      7  C   UNL     1       1.535   2.681  18.381  0.00  0.00    +0.000 A 
ATOM      8  C   UNL     1       2.511   3.650  18.127  0.00  0.00    +0.000 A 
ATOM      9  N   UNL     1       3.421   3.751  17.097  0.00  0.00    +0.000 N 
ATOM     10  H   UNL     1       3.496   3.090  16.339  0.00  0.00    +0.000 HD
ENDROOT
BRANCH   4  11
ATOM     11  O   UNL     1       2.170   6.008  20.894  0.00  0.00    +0.000 OA
ATOM     12  C   UNL     1       1.459   7.199  20.601  0.00  0.00    +0.000 C 
ENDBRANCH   4  11
BRANCH   1  13
ATOM     13  C   UNL     1       5.254   5.263  16.264  0.00  0.00    +0.000 C 
BRANCH  13  14
ATOM     14  C   UNL     1       6.173   4.082  15.931  0.00  0.00    +0.000 C 
BRANCH  14  17
ATOM     15  C   UNL     1       6.962   4.439  13.632  0.00  0.00    +0.000 C 
ATOM     16  O   UNL     1       7.678   5.380  13.957  0.00  0.00    +0.000 OA
ATOM     17  N   UNL     1       6.166   3.751  14.521  0.00  0.00    +0.000 N 
ATOM     18  H   UNL     1       5.520   3.049  14.184  0.00  0.00    +0.000 HD
BRANCH  15  20
ATOM     19  C   UNL     1       5.606   3.100  12.003  0.00  0.00    +0.000 C 
ATOM     20  C   UNL     1       6.878   3.902  12.219  0.00  0.00    +0.000 C 
ENDBRANCH  15  20
ENDBRANCH  14  17
ENDBRANCH  13  14
ENDBRANCH   1  13
TORSDOF 5
ENDMDL
