MODEL 1
REMARK VINA RESULT:      -8.1      0.000      0.000
REMARK  Name = 
REMARK  8 active torsions:
REMARK  status: ('A' for Active; 'I' for Inactive)
REMARK    1  A    between atoms: CD1_1  and  CG1_2
REMARK    2  A    between atoms: CG1_2  and  CB_3
REMARK    3  A    between atoms: CB_3  and  CG2_4
REMARK    4  A    between atoms: CB_3  and  CA_5
REMARK    5  A    between atoms: CA_5  and  N_6
REMARK    6  A    between atoms: CA_5  and  C_23
REMARK    7  A    between atoms: C_7  and  C_9
REMARK    8  A    between atoms: C_23  and  OXT_25
REMARK                            x       y       z     vdW  Elec       q    Type
REMARK                         _______ _______ _______ _____ _____    ______ ____
ROOT
ATOM      1  C   UNK A   0       3.252   5.829  18.138  0.00  0.00    +0.000 A 
ATOM      2  C   UNK A   0       4.195   5.444  17.132  0.00  0.00    +0.000 A 
ATOM      3  C   UNK A   0       4.844   6.300  16.193  0.00  0.00    +0.000 A 
ATOM      4  C   UNK A   0       5.766   5.816  15.262  0.00  0.00    +0.000 A 
ATOM      5  C   UNK A   0       6.062   4.464  15.240  0.00  0.00    +0.000 A 
ATOM      6  C   UNK A   0       5.421   3.611  16.134  0.00  0.00    +0.000 A 
ATOM      7  C   UNK A   0       4.492   4.072  17.059  0.00  0.00    +0.000 A 
ATOM      8  N   UNK A   0       3.918   3.160  17.848  0.00  0.00    +0.000 NA
ATOM      9  C   UNK A   0       3.007   3.523  18.756  0.00  0.00    +0.000 A 
ATOM     10  C   UNK A   0       2.440   2.505  19.514  0.00  0.00    +0.000 A 
ATOM     11  C   UNK A   0       1.456   2.749  20.470  0.00  0.00    +0.000 A 
ATOM     12  C   UNK A   0       1.049   4.046  20.703  0.00  0.00    +0.000 A 
ATOM     13  C   UNK A   0       1.646   5.085  19.990  0.00  0.00    +0.000 A 
ATOM     14  C   UNK A   0       2.614   4.853  18.968  0.00  0.00    +0.000 A 
ENDROOT
BRANCH   1  16
ATOM     15  N   ILE A   1       1.890   7.648  19.094  0.00  0.00    +0.000 N 
ATOM     16  C   UNK A   0       2.989   7.288  18.332  0.00  0.00    +0.000 C 
ATOM     17  O   UNK A   0       3.692   8.133  17.789  0.00  0.00    +0.000 OA
ATOM     18  H   ILE A   1       1.283   6.932  19.479  0.00  0.00    +0.000 HD
BRANCH  15  19
ATOM     19  CA  ILE A   1       1.548   9.068  19.334  0.00  0.00    +0.000 C 
BRANCH  19  20
ATOM     20  CB  ILE A   1       0.514   9.262  20.480  0.00  0.00    +0.000 C 
ATOM     21  CG2 ILE A   1       0.086  10.730  20.604  0.00  0.00    +0.000 C 
BRANCH  20  23
ATOM     22  CD1 ILE A   1       0.427   9.351  23.054  0.00  0.00    +0.000 C 
ATOM     23  CG1 ILE A   1       1.015   8.682  21.820  0.00  0.00    +0.000 C 
ENDBRANCH  20  23
ENDBRANCH  19  20
BRANCH  19  24
ATOM     24  C   ILE A   1       1.019   9.696  18.025  0.00  0.00    +0.000 C 
ATOM     25  O   ILE A   1      -0.093   9.489  17.567  0.00  0.00    +0.000 OA
BRANCH  24  26
ATOM     26  OXT ILE A   1       1.930  10.471  17.392  0.00  0.00    +0.000 OA
ATOM     27  HXT ILE A   1       2.830  10.154  17.601  0.00  0.00    +0.000 HD
ENDBRANCH  24  26
ENDBRANCH  19  24
ENDBRANCH  15  19
ENDBRANCH   1  16
TORSDOF 6
ENDMDL
MODEL 2
REMARK VINA RESULT:      -8.0      0.149      3.644
REMARK  Name = 
REMARK  8 active torsions:
REMARK  status: ('A' for Active; 'I' for Inactive)
REMARK    1  A    between atoms: CD1_1  and  CG1_2
REMARK    2  A    between atoms: CG1_2  and  CB_3
REMARK    3  A    between atoms: CB_3  and  CG2_4
REMARK    4  A    between atoms: CB_3  and  CA_5
REMARK    5  A    between atoms: CA_5  and  N_6
REMARK    6  A    between atoms: CA_5  and  C_23
REMARK    7  A    between atoms: C_7  and  C_9
REMARK    8  A    between atoms: C_23  and  OXT_25
REMARK                            x       y       z     vdW  Elec       q    Type
REMARK                         _______ _______ _______ _____ _____    ______ ____
ROOT
ATOM      1  C   UNK A   0       3.304   5.867  18.112  0.00  0.00    +0.000 A 
ATOM      2  C   UNK A   0       2.607   4.921  18.931  0.00  0.00    +0.000 A 
ATOM      3  C   UNK A   0       1.730   5.212  20.018  0.00  0.00    +0.000 A 
ATOM      4  C   UNK A   0       1.085   4.206  20.741  0.00  0.00    +0.000 A 
ATOM      5  C   UNK A   0       1.303   2.881  20.401  0.00  0.00    +0.000 A 
ATOM      6  C   UNK A   0       2.174   2.579  19.357  0.00  0.00    +0.000 A 
ATOM      7  C   UNK A   0       2.832   3.566  18.635  0.00  0.00    +0.000 A 
ATOM      8  N   UNK A   0       3.666   3.159  17.674  0.00  0.00    +0.000 NA
ATOM      9  C   UNK A   0       4.346   4.048  16.942  0.00  0.00    +0.000 A 
ATOM     10  C   UNK A   0       5.213   3.535  15.984  0.00  0.00    +0.000 A 
ATOM     11  C   UNK A   0       6.000   4.356  15.179  0.00  0.00    +0.000 A 
ATOM     12  C   UNK A   0       5.899   5.725  15.308  0.00  0.00    +0.000 A 
ATOM     13  C   UNK A   0       4.994   6.257  16.227  0.00  0.00    +0.000 A 
ATOM     14  C   UNK A   0       4.219   5.437  17.098  0.00  0.00    +0.000 A 
ENDROOT
BRANCH   1  16
ATOM     15  N   ILE A   1       1.913   7.652  19.089  0.00  0.00    +0.000 N 
ATOM     16  C   UNK A   0       3.010   7.319  18.311  0.00  0.00    +0.000 C 
ATOM     17  O   UNK A   0       3.684   8.181  17.758  0.00  0.00    +0.000 OA
ATOM     18  H   ILE A   1       1.329   6.922  19.482  0.00  0.00    +0.000 HD
BRANCH  15  19
ATOM     19  CA  ILE A   1       1.541   9.063  19.335  0.00  0.00    +0.000 C 
BRANCH  19  20
ATOM     20  CB  ILE A   1       0.499   9.230  20.478  0.00  0.00    +0.000 C 
ATOM     21  CG2 ILE A   1      -0.005  10.676  20.568  0.00  0.00    +0.000 C 
BRANCH  20  23
ATOM     22  CD1 ILE A   1       0.374   9.339  23.049  0.00  0.00    +0.000 C 
ATOM     23  CG1 ILE A   1       1.031   8.709  21.830  0.00  0.00    +0.000 C 
ENDBRANCH  20  23
ENDBRANCH  19  20
BRANCH  19  24
ATOM     24  C   ILE A   1       1.003   9.687  18.027  0.00  0.00    +0.000 C 
ATOM     25  O   ILE A   1      -0.107   9.468  17.570  0.00  0.00    +0.000 OA
BRANCH  24  26
ATOM     26  OXT ILE A   1       1.905  10.472  17.393  0.00  0.00    +0.000 OA
ATOM     27  HXT ILE A   1       2.432   9.931  16.775  0.00  0.00    +0.000 HD
ENDBRANCH  24  26
ENDBRANCH  19  24
ENDBRANCH  15  19
ENDBRANCH   1  16
TORSDOF 6
ENDMDL
MODEL 3
REMARK VINA RESULT:      -7.9      1.243      3.830
REMARK  Name = 
REMARK  8 active torsions:
REMARK  status: ('A' for Active; 'I' for Inactive)
REMARK    1  A    between atoms: CD1_1  and  CG1_2
REMARK    2  A    between atoms: CG1_2  and  CB_3
REMARK    3  A    between atoms: CB_3  and  CG2_4
REMARK    4  A    between atoms: CB_3  and  CA_5
REMARK    5  A    between atoms: CA_5  and  N_6
REMARK    6  A    between atoms: CA_5  and  C_23
REMARK    7  A    between atoms: C_7  and  C_9
REMARK    8  A    between atoms: C_23  and  OXT_25
REMARK                            x       y       z     vdW  Elec       q    Type
REMARK                         _______ _______ _______ _____ _____    ______ ____
ROOT
ATOM      1  C   UNK A   0       2.746   5.849  18.733  0.00  0.00    +0.000 A 
ATOM      2  C   UNK A   0       2.080   4.622  19.053  0.00  0.00    +0.000 A 
ATOM      3  C   UNK A   0       1.123   4.412  20.091  0.00  0.00    +0.000 A 
ATOM      4  C   UNK A   0       0.520   3.170  20.302  0.00  0.00    +0.000 A 
ATOM      5  C   UNK A   0       0.859   2.103  19.488  0.00  0.00    +0.000 A 
ATOM      6  C   UNK A   0       1.808   2.286  18.485  0.00  0.00    +0.000 A 
ATOM      7  C   UNK A   0       2.427   3.510  18.267  0.00  0.00    +0.000 A 
ATOM      8  N   UNK A   0       3.343   3.562  17.295  0.00  0.00    +0.000 NA
ATOM      9  C   UNK A   0       3.990   4.702  17.032  0.00  0.00    +0.000 A 
ATOM     10  C   UNK A   0       4.947   4.657  16.024  0.00  0.00    +0.000 A 
ATOM     11  C   UNK A   0       5.712   5.768  15.675  0.00  0.00    +0.000 A 
ATOM     12  C   UNK A   0       5.497   6.966  16.325  0.00  0.00    +0.000 A 
ATOM     13  C   UNK A   0       4.503   7.042  17.300  0.00  0.00    +0.000 A 
ATOM     14  C   UNK A   0       3.747   5.905  17.711  0.00  0.00    +0.000 A 
ENDROOT
BRANCH   1  16
ATOM     15  N   ILE A   1       1.822   8.135  18.713  0.00  0.00    +0.000 N 
ATOM     16  C   UNK A   0       2.328   7.085  19.463  0.00  0.00    +0.000 C 
ATOM     17  O   UNK A   0       2.482   7.185  20.675  0.00  0.00    +0.000 OA
ATOM     18  H   ILE A   1       1.766   8.056  17.704  0.00  0.00    +0.000 HD
BRANCH  15  19
ATOM     19  CA  ILE A   1       1.389   9.399  19.349  0.00  0.00    +0.000 C 
BRANCH  19  20
ATOM     20  CB  ILE A   1      -0.140   9.449  19.633  0.00  0.00    +0.000 C 
ATOM     21  CG2 ILE A   1      -0.890  10.200  18.526  0.00  0.00    +0.000 C 
BRANCH  20  23
ATOM     22  CD1 ILE A   1      -0.257   9.009  22.169  0.00  0.00    +0.000 C 
ATOM     23  CG1 ILE A   1      -0.451  10.008  21.037  0.00  0.00    +0.000 C 
ENDBRANCH  20  23
ENDBRANCH  19  20
BRANCH  19  24
ATOM     24  C   ILE A   1       1.805  10.590  18.455  0.00  0.00    +0.000 C 
ATOM     25  O   ILE A   1       1.803  11.755  18.821  0.00  0.00    +0.000 OA
BRANCH  24  26
ATOM     26  OXT ILE A   1       2.128  10.228  17.192  0.00  0.00    +0.000 OA
ATOM     27  HXT ILE A   1       2.246   9.260  17.148  0.00  0.00    +0.000 HD
ENDBRANCH  24  26
ENDBRANCH  19  24
ENDBRANCH  15  19
ENDBRANCH   1  16
TORSDOF 6
ENDMDL
MODEL 4
REMARK VINA RESULT:      -7.8      1.217      1.557
REMARK  Name = 
REMARK  8 active torsions:
REMARK  status: ('A' for Active; 'I' for Inactive)
REMARK    1  A    between atoms: CD1_1  and  CG1_2
REMARK    2  A    between atoms: CG1_2  and  CB_3
REMARK    3  A    between atoms: CB_3  and  CG2_4
REMARK    4  A    between atoms: CB_3  and  CA_5
REMARK    5  A    between atoms: CA_5  and  N_6
REMARK    6  A    between atoms: CA_5  and  C_23
REMARK    7  A    between atoms: C_7  and  C_9
REMARK    8  A    between atoms: C_23  and  OXT_25
REMARK                            x       y       z     vdW  Elec       q    Type
REMARK                         _______ _______ _______ _____ _____    ______ ____
ROOT
ATOM      1  C   UNK A   0       2.641   5.965  18.850  0.00  0.00    +0.000 A 
ATOM      2  C   UNK A   0       3.600   6.041  17.789  0.00  0.00    +0.000 A 
ATOM      3  C   UNK A   0       4.137   7.225  17.201  0.00  0.00    +0.000 A 
ATOM      4  C   UNK A   0       5.086   7.181  16.178  0.00  0.00    +0.000 A 
ATOM      5  C   UNK A   0       5.521   5.953  15.709  0.00  0.00    +0.000 A 
ATOM      6  C   UNK A   0       4.991   4.787  16.256  0.00  0.00    +0.000 A 
ATOM      7  C   UNK A   0       4.038   4.812  17.267  0.00  0.00    +0.000 A 
ATOM      8  N   UNK A   0       3.578   3.633  17.695  0.00  0.00    +0.000 NA
ATOM      9  C   UNK A   0       2.651   3.573  18.657  0.00  0.00    +0.000 A 
ATOM     10  C   UNK A   0       2.210   2.306  19.020  0.00  0.00    +0.000 A 
ATOM     11  C   UNK A   0       1.225   2.111  19.987  0.00  0.00    +0.000 A 
ATOM     12  C   UNK A   0       0.688   3.205  20.633  0.00  0.00    +0.000 A 
ATOM     13  C   UNK A   0       1.159   4.479  20.319  0.00  0.00    +0.000 A 
ATOM     14  C   UNK A   0       2.126   4.706  19.295  0.00  0.00    +0.000 A 
ENDROOT
BRANCH   1  16
ATOM     15  N   ILE A   1       1.735   8.254  18.715  0.00  0.00    +0.000 N 
ATOM     16  C   UNK A   0       2.231   7.239  19.517  0.00  0.00    +0.000 C 
ATOM     17  O   UNK A   0       2.381   7.397  20.723  0.00  0.00    +0.000 OA
ATOM     18  H   ILE A   1       1.682   8.127  17.710  0.00  0.00    +0.000 HD
BRANCH  15  19
ATOM     19  CA  ILE A   1       1.311   9.552  19.286  0.00  0.00    +0.000 C 
BRANCH  19  20
ATOM     20  CB  ILE A   1      -0.231   9.668  19.462  0.00  0.00    +0.000 C 
ATOM     21  CG2 ILE A   1      -0.904  10.170  18.179  0.00  0.00    +0.000 C 
BRANCH  20  23
ATOM     22  CD1 ILE A   1       0.050  10.070  21.991  0.00  0.00    +0.000 C 
ATOM     23  CG1 ILE A   1      -0.612  10.514  20.695  0.00  0.00    +0.000 C 
ENDBRANCH  20  23
ENDBRANCH  19  20
BRANCH  19  24
ATOM     24  C   ILE A   1       1.834  10.700  18.393  0.00  0.00    +0.000 C 
ATOM     25  O   ILE A   1       1.856  11.874  18.729  0.00  0.00    +0.000 OA
BRANCH  24  26
ATOM     26  OXT ILE A   1       2.225  10.292  17.164  0.00  0.00    +0.000 OA
ATOM     27  HXT ILE A   1       1.716   9.499  16.905  0.00  0.00    +0.000 HD
ENDBRANCH  24  26
ENDBRANCH  19  24
ENDBRANCH  15  19
ENDBRANCH   1  16
TORSDOF 6
ENDMDL
MODEL 5
REMARK VINA RESULT:      -7.8      1.910      6.439
REMARK  Name = 
REMARK  8 active torsions:
REMARK  status: ('A' for Active; 'I' for Inactive)
REMARK    1  A    between atoms: CD1_1  and  CG1_2
REMARK    2  A    between atoms: CG1_2  and  CB_3
REMARK    3  A    between atoms: CB_3  and  CG2_4
REMARK    4  A    between atoms: CB_3  and  CA_5
REMARK    5  A    between atoms: CA_5  and  N_6
REMARK    6  A    between atoms: CA_5  and  C_23
REMARK    7  A    between atoms: C_7  and  C_9
REMARK    8  A    between atoms: C_23  and  OXT_25
REMARK                            x       y       z     vdW  Elec       q    Type
REMARK                         _______ _______ _______ _____ _____    ______ ____
ROOT
ATOM      1  C   UNK A   0       2.852   6.486  18.841  0.00  0.00    +0.000 A 
ATOM      2  C   UNK A   0       2.846   5.212  19.495  0.00  0.00    +0.000 A 
ATOM      3  C   UNK A   0       3.490   4.018  19.052  0.00  0.00    +0.000 A 
ATOM      4  C   UNK A   0       3.432   2.829  19.782  0.00  0.00    +0.000 A 
ATOM      5  C   UNK A   0       2.726   2.798  20.972  0.00  0.00    +0.000 A 
ATOM      6  C   UNK A   0       2.072   3.948  21.408  0.00  0.00    +0.000 A 
ATOM      7  C   UNK A   0       2.109   5.136  20.689  0.00  0.00    +0.000 A 
ATOM      8  N   UNK A   0       1.422   6.168  21.188  0.00  0.00    +0.000 NA
ATOM      9  C   UNK A   0       1.399   7.342  20.548  0.00  0.00    +0.000 A 
ATOM     10  C   UNK A   0       0.635   8.350  21.123  0.00  0.00    +0.000 A 
ATOM     11  C   UNK A   0       0.503   9.609  20.539  0.00  0.00    +0.000 A 
ATOM     12  C   UNK A   0       1.178   9.882  19.367  0.00  0.00    +0.000 A 
ATOM     13  C   UNK A   0       1.992   8.898  18.806  0.00  0.00    +0.000 A 
ATOM     14  C   UNK A   0       2.097   7.587  19.356  0.00  0.00    +0.000 A 
ENDROOT
BRANCH   1  16
ATOM     15  N   ILE A   1       4.850   5.860  17.538  0.00  0.00    +0.000 N 
ATOM     16  C   UNK A   0       3.715   6.649  17.631  0.00  0.00    +0.000 C 
ATOM     17  O   UNK A   0       3.453   7.491  16.779  0.00  0.00    +0.000 OA
ATOM     18  H   ILE A   1       5.083   5.217  18.287  0.00  0.00    +0.000 HD
BRANCH  15  19
ATOM     19  CA  ILE A   1       5.766   5.958  16.380  0.00  0.00    +0.000 C 
BRANCH  19  20
ATOM     20  CB  ILE A   1       5.559   4.819  15.340  0.00  0.00    +0.000 C 
ATOM     21  CG2 ILE A   1       5.325   3.469  16.029  0.00  0.00    +0.000 C 
BRANCH  20  23
ATOM     22  CD1 ILE A   1       6.401   3.917  13.078  0.00  0.00    +0.000 C 
ATOM     23  CG1 ILE A   1       6.705   4.761  14.308  0.00  0.00    +0.000 C 
ENDBRANCH  20  23
ENDBRANCH  19  20
BRANCH  19  24
ATOM     24  C   ILE A   1       7.228   5.963  16.882  0.00  0.00    +0.000 C 
ATOM     25  O   ILE A   1       7.766   5.017  17.436  0.00  0.00    +0.000 OA
BRANCH  24  26
ATOM     26  OXT ILE A   1       7.856   7.147  16.697  0.00  0.00    +0.000 OA
ATOM     27  HXT ILE A   1       7.927   7.617  17.551  0.00  0.00    +0.000 HD
ENDBRANCH  24  26
ENDBRANCH  19  24
ENDBRANCH  15  19
ENDBRANCH   1  16
TORSDOF 6
ENDMDL
MODEL 6
REMARK VINA RESULT:      -7.8      1.314      1.459
REMARK  Name = 
REMARK  8 active torsions:
REMARK  status: ('A' for Active; 'I' for Inactive)
REMARK    1  A    between atoms: CD1_1  and  CG1_2
REMARK    2  A    between atoms: CG1_2  and  CB_3
REMARK    3  A    between atoms: CB_3  and  CG2_4
REMARK    4  A    between atoms: CB_3  and  CA_5
REMARK    5  A    between atoms: CA_5  and  N_6
REMARK    6  A    between atoms: CA_5  and  C_23
REMARK    7  A    between atoms: C_7  and  C_9
REMARK    8  A    between atoms: C_23  and  OXT_25
REMARK                            x       y       z     vdW  Elec       q    Type
REMARK                         _______ _______ _______ _____ _____    ______ ____
ROOT
ATOM      1  C   UNK A   0       3.135   5.972  18.870  0.00  0.00    +0.000 A 
ATOM      2  C   UNK A   0       4.446   5.962  18.294  0.00  0.00    +0.000 A 
ATOM      3  C   UNK A   0       5.023   6.964  17.458  0.00  0.00    +0.000 A 
ATOM      4  C   UNK A   0       6.325   6.860  16.965  0.00  0.00    +0.000 A 
ATOM      5  C   UNK A   0       7.085   5.749  17.288  0.00  0.00    +0.000 A 
ATOM      6  C   UNK A   0       6.530   4.750  18.085  0.00  0.00    +0.000 A 
ATOM      7  C   UNK A   0       5.233   4.832  18.575  0.00  0.00    +0.000 A 
ATOM      8  N   UNK A   0       4.795   3.802  19.305  0.00  0.00    +0.000 NA
ATOM      9  C   UNK A   0       3.554   3.801  19.803  0.00  0.00    +0.000 A 
ATOM     10  C   UNK A   0       3.173   2.676  20.525  0.00  0.00    +0.000 A 
ATOM     11  C   UNK A   0       1.897   2.539  21.069  0.00  0.00    +0.000 A 
ATOM     12  C   UNK A   0       0.986   3.563  20.917  0.00  0.00    +0.000 A 
ATOM     13  C   UNK A   0       1.370   4.721  20.241  0.00  0.00    +0.000 A 
ATOM     14  C   UNK A   0       2.651   4.861  19.631  0.00  0.00    +0.000 A 
ENDROOT
BRANCH   1  16
ATOM     15  N   ILE A   1       2.329   8.145  19.711  0.00  0.00    +0.000 N 
ATOM     16  C   UNK A   0       2.302   7.202  18.697  0.00  0.00    +0.000 C 
ATOM     17  O   UNK A   0       1.579   7.342  17.716  0.00  0.00    +0.000 OA
ATOM     18  H   ILE A   1       2.882   7.977  20.545  0.00  0.00    +0.000 HD
BRANCH  15  19
ATOM     19  CA  ILE A   1       1.532   9.389  19.631  0.00  0.00    +0.000 C 
BRANCH  19  20
ATOM     20  CB  ILE A   1       0.095   9.233  20.207  0.00  0.00    +0.000 C 
ATOM     21  CG2 ILE A   1      -0.588  10.596  20.381  0.00  0.00    +0.000 C 
BRANCH  20  23
ATOM     22  CD1 ILE A   1      -0.336   9.174  22.747  0.00  0.00    +0.000 C 
ATOM     23  CG1 ILE A   1       0.078   8.397  21.505  0.00  0.00    +0.000 C 
ENDBRANCH  20  23
ENDBRANCH  19  20
BRANCH  19  24
ATOM     24  C   ILE A   1       1.469   9.863  18.161  0.00  0.00    +0.000 C 
ATOM     25  O   ILE A   1       2.402  10.378  17.567  0.00  0.00    +0.000 OA
BRANCH  24  26
ATOM     26  OXT ILE A   1       0.251   9.700  17.594  0.00  0.00    +0.000 OA
ATOM     27  HXT ILE A   1      -0.140   8.857  17.896  0.00  0.00    +0.000 HD
ENDBRANCH  24  26
ENDBRANCH  19  24
ENDBRANCH  15  19
ENDBRANCH   1  16
TORSDOF 6
ENDMDL
MODEL 7
REMARK VINA RESULT:      -7.7      2.054      6.148
REMARK  Name = 
REMARK  8 active torsions:
REMARK  status: ('A' for Active; 'I' for Inactive)
REMARK    1  A    between atoms: CD1_1  and  CG1_2
REMARK    2  A    between atoms: CG1_2  and  CB_3
REMARK    3  A    between atoms: CB_3  and  CG2_4
REMARK    4  A    between atoms: CB_3  and  CA_5
REMARK    5  A    between atoms: CA_5  and  N_6
REMARK    6  A    between atoms: CA_5  and  C_23
REMARK    7  A    between atoms: C_7  and  C_9
REMARK    8  A    between atoms: C_23  and  OXT_25
REMARK                            x       y       z     vdW  Elec       q    Type
REMARK                         _______ _______ _______ _____ _____    ______ ____
ROOT
ATOM      1  C   UNK A   0       3.092   6.359  18.957  0.00  0.00    +0.000 A 
ATOM      2  C   UNK A   0       3.034   5.092  19.622  0.00  0.00    +0.000 A 
ATOM      3  C   UNK A   0       3.748   3.907  19.272  0.00  0.00    +0.000 A 
ATOM      4  C   UNK A   0       3.629   2.725  20.006  0.00  0.00    +0.000 A 
ATOM      5  C   UNK A   0       2.790   2.692  21.106  0.00  0.00    +0.000 A 
ATOM      6  C   UNK A   0       2.068   3.833  21.448  0.00  0.00    +0.000 A 
ATOM      7  C   UNK A   0       2.165   5.014  20.723  0.00  0.00    +0.000 A 
ATOM      8  N   UNK A   0       1.404   6.036  21.125  0.00  0.00    +0.000 NA
ATOM      9  C   UNK A   0       1.433   7.202  20.472  0.00  0.00    +0.000 A 
ATOM     10  C   UNK A   0       0.588   8.201  20.942  0.00  0.00    +0.000 A 
ATOM     11  C   UNK A   0       0.501   9.450  20.330  0.00  0.00    +0.000 A 
ATOM     12  C   UNK A   0       1.302   9.725  19.241  0.00  0.00    +0.000 A 
ATOM     13  C   UNK A   0       2.194   8.752  18.790  0.00  0.00    +0.000 A 
ATOM     14  C   UNK A   0       2.260   7.449  19.366  0.00  0.00    +0.000 A 
ENDROOT
BRANCH   1  16
ATOM     15  N   ILE A   1       5.427   6.383  18.167  0.00  0.00    +0.000 N 
ATOM     16  C   UNK A   0       4.085   6.527  17.852  0.00  0.00    +0.000 C 
ATOM     17  O   UNK A   0       3.726   6.836  16.721  0.00  0.00    +0.000 OA
ATOM     18  H   ILE A   1       5.706   6.193  19.123  0.00  0.00    +0.000 HD
BRANCH  15  19
ATOM     19  CA  ILE A   1       6.482   6.539  17.140  0.00  0.00    +0.000 C 
BRANCH  19  20
ATOM     20  CB  ILE A   1       7.036   5.180  16.623  0.00  0.00    +0.000 C 
ATOM     21  CG2 ILE A   1       7.349   5.239  15.122  0.00  0.00    +0.000 C 
BRANCH  20  23
ATOM     22  CD1 ILE A   1       5.139   3.604  15.879  0.00  0.00    +0.000 C 
ATOM     23  CG1 ILE A   1       6.109   4.000  16.983  0.00  0.00    +0.000 C 
ENDBRANCH  20  23
ENDBRANCH  19  20
BRANCH  19  24
ATOM     24  C   ILE A   1       7.630   7.400  17.712  0.00  0.00    +0.000 C 
ATOM     25  O   ILE A   1       8.006   8.454  17.222  0.00  0.00    +0.000 OA
BRANCH  24  26
ATOM     26  OXT ILE A   1       8.228   6.852  18.795  0.00  0.00    +0.000 OA
ATOM     27  HXT ILE A   1       7.694   6.100  19.118  0.00  0.00    +0.000 HD
ENDBRANCH  24  26
ENDBRANCH  19  24
ENDBRANCH  15  19
ENDBRANCH   1  16
TORSDOF 6
ENDMDL
MODEL 8
REMARK VINA RESULT:      -7.7      4.235      7.813
REMARK  Name = 
REMARK  8 active torsions:
REMARK  status: ('A' for Active; 'I' for Inactive)
REMARK    1  A    between atoms: CD1_1  and  CG1_2
REMARK    2  A    between atoms: CG1_2  and  CB_3
REMARK    3  A    between atoms: CB_3  and  CG2_4
REMARK    4  A    between atoms: CB_3  and  CA_5
REMARK    5  A    between atoms: CA_5  and  N_6
REMARK    6  A    between atoms: CA_5  and  C_23
REMARK    7  A    between atoms: C_7  and  C_9
REMARK    8  A    between atoms: C_23  and  OXT_25
REMARK                            x       y       z     vdW  Elec       q    Type
REMARK                         _______ _______ _______ _____ _____    ______ ____
ROOT
ATOM      1  C   UNK A   0      -0.850  10.866  19.426  0.00  0.00    +0.000 A 
ATOM      2  C   UNK A   0      -1.200  11.226  20.767  0.00  0.00    +0.000 A 
ATOM      3  C   UNK A   0      -2.151  12.211  21.170  0.00  0.00    +0.000 A 
ATOM      4  C   UNK A   0      -2.428  12.469  22.514  0.00  0.00    +0.000 A 
ATOM      5  C   UNK A   0      -1.759  11.754  23.494  0.00  0.00    +0.000 A 
ATOM      6  C   UNK A   0      -0.811  10.805  23.119  0.00  0.00    +0.000 A 
ATOM      7  C   UNK A   0      -0.515  10.543  21.787  0.00  0.00    +0.000 A 
ATOM      8  N   UNK A   0       0.432   9.633  21.545  0.00  0.00    +0.000 NA
ATOM      9  C   UNK A   0       0.782   9.333  20.289  0.00  0.00    +0.000 A 
ATOM     10  C   UNK A   0       1.797   8.396  20.132  0.00  0.00    +0.000 A 
ATOM     11  C   UNK A   0       2.274   8.021  18.877  0.00  0.00    +0.000 A 
ATOM     12  C   UNK A   0       1.704   8.570  17.747  0.00  0.00    +0.000 A 
ATOM     13  C   UNK A   0       0.649   9.471  17.887  0.00  0.00    +0.000 A 
ATOM     14  C   UNK A   0       0.182   9.910  19.161  0.00  0.00    +0.000 A 
ENDROOT
BRANCH   1  16
ATOM     15  N   ILE A   1      -2.807  10.854  17.926  0.00  0.00    +0.000 N 
ATOM     16  C   UNK A   0      -1.631  11.479  18.309  0.00  0.00    +0.000 C 
ATOM     17  O   UNK A   0      -1.215  12.469  17.716  0.00  0.00    +0.000 OA
ATOM     18  H   ILE A   1      -3.098   9.997  18.386  0.00  0.00    +0.000 HD
BRANCH  15  19
ATOM     19  CA  ILE A   1      -3.642  11.385  16.826  0.00  0.00    +0.000 C 
BRANCH  19  20
ATOM     20  CB  ILE A   1      -5.166  11.335  17.137  0.00  0.00    +0.000 C 
ATOM     21  CG2 ILE A   1      -5.824  12.704  16.921  0.00  0.00    +0.000 C 
BRANCH  20  23
ATOM     22  CD1 ILE A   1      -6.912  10.396  18.782  0.00  0.00    +0.000 C 
ATOM     23  CG1 ILE A   1      -5.454  10.759  18.539  0.00  0.00    +0.000 C 
ENDBRANCH  20  23
ENDBRANCH  19  20
BRANCH  19  24
ATOM     24  C   ILE A   1      -3.336  10.603  15.528  0.00  0.00    +0.000 C 
ATOM     25  O   ILE A   1      -3.513  11.046  14.404  0.00  0.00    +0.000 OA
BRANCH  24  26
ATOM     26  OXT ILE A   1      -2.894   9.344  15.748  0.00  0.00    +0.000 OA
ATOM     27  HXT ILE A   1      -1.926   9.310  15.620  0.00  0.00    +0.000 HD
ENDBRANCH  24  26
ENDBRANCH  19  24
ENDBRANCH  15  19
ENDBRANCH   1  16
TORSDOF 6
ENDMDL
MODEL 9
REMARK VINA RESULT:      -7.7      2.028      4.388
REMARK  Name = 
REMARK  8 active torsions:
REMARK  status: ('A' for Active; 'I' for Inactive)
REMARK    1  A    between atoms: CD1_1  and  CG1_2
REMARK    2  A    between atoms: CG1_2  and  CB_3
REMARK    3  A    between atoms: CB_3  and  CG2_4
REMARK    4  A    between atoms: CB_3  and  CA_5
REMARK    5  A    between atoms: CA_5  and  N_6
REMARK    6  A    between atoms: CA_5  and  C_23
REMARK    7  A    between atoms: C_7  and  C_9
REMARK    8  A    between atoms: C_23  and  OXT_25
REMARK                            x       y       z     vdW  Elec       q    Type
REMARK                         _______ _______ _______ _____ _____    ______ ____
ROOT
ATOM      1  C   UNK A   0       3.399   5.731  19.193  0.00  0.00    +0.000 A 
ATOM      2  C   UNK A   0       3.146   4.569  19.991  0.00  0.00    +0.000 A 
ATOM      3  C   UNK A   0       2.026   4.344  20.846  0.00  0.00    +0.000 A 
ATOM      4  C   UNK A   0       1.871   3.159  21.569  0.00  0.00    +0.000 A 
ATOM      5  C   UNK A   0       2.832   2.169  21.462  0.00  0.00    +0.000 A 
ATOM      6  C   UNK A   0       3.943   2.381  20.649  0.00  0.00    +0.000 A 
ATOM      7  C   UNK A   0       4.120   3.558  19.932  0.00  0.00    +0.000 A 
ATOM      8  N   UNK A   0       5.238   3.664  19.208  0.00  0.00    +0.000 NA
ATOM      9  C   UNK A   0       5.486   4.771  18.500  0.00  0.00    +0.000 A 
ATOM     10  C   UNK A   0       6.686   4.807  17.800  0.00  0.00    +0.000 A 
ATOM     11  C   UNK A   0       7.076   5.914  17.049  0.00  0.00    +0.000 A 
ATOM     12  C   UNK A   0       6.234   7.003  16.966  0.00  0.00    +0.000 A 
ATOM     13  C   UNK A   0       5.002   6.961  17.619  0.00  0.00    +0.000 A 
ATOM     14  C   UNK A   0       4.607   5.862  18.436  0.00  0.00    +0.000 A 
ENDROOT
BRANCH   1  16
ATOM     15  N   ILE A   1       2.151   7.574  20.254  0.00  0.00    +0.000 N 
ATOM     16  C   UNK A   0       2.339   6.784  19.131  0.00  0.00    +0.000 C 
ATOM     17  O   UNK A   0       1.627   6.905  18.141  0.00  0.00    +0.000 OA
ATOM     18  H   ILE A   1       2.707   7.412  21.087  0.00  0.00    +0.000 HD
BRANCH  15  19
ATOM     19  CA  ILE A   1       1.121   8.637  20.287  0.00  0.00    +0.000 C 
BRANCH  19  20
ATOM     20  CB  ILE A   1       1.564   9.939  19.559  0.00  0.00    +0.000 C 
ATOM     21  CG2 ILE A   1       1.136  11.188  20.340  0.00  0.00    +0.000 C 
BRANCH  20  23
ATOM     22  CD1 ILE A   1      -0.424   9.958  17.920  0.00  0.00    +0.000 C 
ATOM     23  CG1 ILE A   1       1.088   9.973  18.091  0.00  0.00    +0.000 C 
ENDBRANCH  20  23
ENDBRANCH  19  20
BRANCH  19  24
ATOM     24  C   ILE A   1       0.751   8.945  21.755  0.00  0.00    +0.000 C 
ATOM     25  O   ILE A   1      -0.395   9.029  22.169  0.00  0.00    +0.000 OA
BRANCH  24  26
ATOM     26  OXT ILE A   1       1.825   9.169  22.547  0.00  0.00    +0.000 OA
ATOM     27  HXT ILE A   1       1.534   9.259  23.475  0.00  0.00    +0.000 HD
ENDBRANCH  24  26
ENDBRANCH  19  24
ENDBRANCH  15  19
ENDBRANCH   1  16
TORSDOF 6
ENDMDL
