MODEL 1
REMARK VINA RESULT:      -8.5      0.000      0.000
REMARK  Name = 
REMARK  7 active torsions:
REMARK  status: ('A' for Active; 'I' for Inactive)
REMARK    1  A    between atoms: C_1  and  C_2
REMARK    2  A    between atoms: C_2  and  C_3
REMARK    3  A    between atoms: C_2  and  N_12
REMARK    4  A    between atoms: N_5  and  C_6
REMARK    5  A    between atoms: C_6  and  C_7
REMARK    6  A    between atoms: C_17  and  S_18
REMARK    7  A    between atoms: S_18  and  N_21
REMARK                            x       y       z     vdW  Elec       q    Type
REMARK                         _______ _______ _______ _____ _____    ______ ____
ROOT
ATOM      1  N   UNL     1       1.385   8.662  19.655  0.00  0.00    +0.000 N 
ATOM      2  C   UNL     1       1.773   9.337  18.521  0.00  0.00    +0.000 A 
ATOM      3  C   UNL     1       2.492   8.472  17.728  0.00  0.00    +0.000 A 
ATOM      4  C   UNL     1       2.553   7.220  18.397  0.00  0.00    +0.000 A 
ATOM      5  C   UNL     1       3.134   5.975  18.079  0.00  0.00    +0.000 A 
ATOM      6  C   UNL     1       2.991   4.905  18.976  0.00  0.00    +0.000 A 
ATOM      7  C   UNL     1       2.352   5.084  20.205  0.00  0.00    +0.000 A 
ATOM      8  C   UNL     1       1.796   6.320  20.546  0.00  0.00    +0.000 A 
ATOM      9  C   UNL     1       1.880   7.369  19.615  0.00  0.00    +0.000 A 
ENDROOT
BRANCH   6  10
ATOM     10  S   UNL     1       3.762   3.335  18.604  0.00  0.00    +0.000 S 
ATOM     11  O   UNL     1       4.194   2.758  19.865  0.00  0.00    +0.000 OA
ATOM     12  O   UNL     1       2.856   2.616  17.732  0.00  0.00    +0.000 OA
BRANCH  10  13
ATOM     13  N   UNL     1       5.159   3.741  17.694  0.00  0.00    +0.000 NA
ATOM     14  C   UNL     1       4.917   4.000  16.252  0.00  0.00    +0.000 C 
ATOM     15  C   UNL     1       6.212   4.220  15.479  0.00  0.00    +0.000 C 
ATOM     16  C   UNL     1       7.085   5.273  16.143  0.00  0.00    +0.000 C 
ATOM     17  C   UNL     1       7.394   4.850  17.570  0.00  0.00    +0.000 C 
ATOM     18  C   UNL     1       6.118   4.642  18.380  0.00  0.00    +0.000 C 
ENDBRANCH  10  13
ENDBRANCH   6  10
BRANCH   1  20
ATOM     19  C   UNL     1       1.366   9.320  22.053  0.00  0.00    +0.000 C 
ATOM     20  C   UNL     1       0.578   9.223  20.744  0.00  0.00    +0.000 C 
BRANCH  20  21
ATOM     21  C   UNL     1      -0.014  10.580  20.356  0.00  0.00    +0.000 C 
ATOM     22  O   UNL     1       0.500  11.647  20.692  0.00  0.00    +0.000 OA
ATOM     23  N   UNL     1      -1.196  10.534  19.635  0.00  0.00    +0.000 N 
ATOM     24  H   UNL     1      -1.499   9.673  19.200  0.00  0.00    +0.000 HD
BRANCH  23  25
ATOM     25  C   UNL     1      -1.835  11.756  19.185  0.00  0.00    +0.000 C 
BRANCH  25  26
ATOM     26  C   UNL     1      -2.685  11.463  18.005  0.00  0.00    +0.000 A 
ATOM     27  C   UNL     1      -4.048  11.519  17.790  0.00  0.00    +0.000 A 
ATOM     28  C   UNL     1      -4.255  11.151  16.439  0.00  0.00    +0.000 A 
ATOM     29  C   UNL     1      -3.012  10.877  15.922  0.00  0.00    +0.000 A 
ATOM     30  O   UNL     1      -2.050  11.059  16.866  0.00  0.00    +0.000 OA
ENDBRANCH  25  26
ENDBRANCH  23  25
ENDBRANCH  20  21
ENDBRANCH   1  20
TORSDOF 6
ENDMDL
MODEL 2
REMARK VINA RESULT:      -8.5      3.218      4.317
REMARK  Name = 
REMARK  7 active torsions:
REMARK  status: ('A' for Active; 'I' for Inactive)
REMARK    1  A    between atoms: C_1  and  C_2
REMARK    2  A    between atoms: C_2  and  C_3
REMARK    3  A    between atoms: C_2  and  N_12
REMARK    4  A    between atoms: N_5  and  C_6
REMARK    5  A    between atoms: C_6  and  C_7
REMARK    6  A    between atoms: C_17  and  S_18
REMARK    7  A    between atoms: S_18  and  N_21
REMARK                            x       y       z     vdW  Elec       q    Type
REMARK                         _______ _______ _______ _____ _____    ______ ____
ROOT
ATOM      1  N   UNL     1       0.858  10.330  19.698  0.00  0.00    +0.000 N 
ATOM      2  C   UNL     1       0.551  10.245  21.035  0.00  0.00    +0.000 A 
ATOM      3  C   UNL     1       0.922   8.999  21.486  0.00  0.00    +0.000 A 
ATOM      4  C   UNL     1       1.476   8.288  20.387  0.00  0.00    +0.000 A 
ATOM      5  C   UNL     1       2.025   6.997  20.242  0.00  0.00    +0.000 A 
ATOM      6  C   UNL     1       2.515   6.600  18.988  0.00  0.00    +0.000 A 
ATOM      7  C   UNL     1       2.391   7.436  17.876  0.00  0.00    +0.000 A 
ATOM      8  C   UNL     1       1.823   8.707  17.999  0.00  0.00    +0.000 A 
ATOM      9  C   UNL     1       1.398   9.127  19.270  0.00  0.00    +0.000 A 
ENDROOT
BRANCH   6  10
ATOM     10  S   UNL     1       3.172   4.949  18.781  0.00  0.00    +0.000 S 
ATOM     11  O   UNL     1       3.232   4.342  20.099  0.00  0.00    +0.000 OA
ATOM     12  O   UNL     1       2.418   4.327  17.712  0.00  0.00    +0.000 OA
BRANCH  10  13
ATOM     13  N   UNL     1       4.778   5.187  18.226  0.00  0.00    +0.000 NA
ATOM     14  C   UNL     1       5.810   5.242  19.293  0.00  0.00    +0.000 C 
ATOM     15  C   UNL     1       7.189   5.590  18.745  0.00  0.00    +0.000 C 
ATOM     16  C   UNL     1       7.571   4.687  17.583  0.00  0.00    +0.000 C 
ATOM     17  C   UNL     1       6.528   4.805  16.484  0.00  0.00    +0.000 C 
ATOM     18  C   UNL     1       5.136   4.442  16.993  0.00  0.00    +0.000 C 
ENDBRANCH  10  13
ENDBRANCH   6  10
BRANCH   1  20
ATOM     19  C   UNL     1      -0.522  12.368  19.342  0.00  0.00    +0.000 C 
ATOM     20  C   UNL     1       0.642  11.505  18.847  0.00  0.00    +0.000 C 
BRANCH  20  21
ATOM     21  C   UNL     1       1.922  12.335  18.710  0.00  0.00    +0.000 C 
ATOM     22  O   UNL     1       2.785  12.084  17.868  0.00  0.00    +0.000 OA
ATOM     23  N   UNL     1       2.071  13.364  19.624  0.00  0.00    +0.000 N 
ATOM     24  H   UNL     1       1.283  13.683  20.172  0.00  0.00    +0.000 HD
BRANCH  23  25
ATOM     25  C   UNL     1       3.228  14.236  19.573  0.00  0.00    +0.000 C 
BRANCH  25  26
ATOM     26  C   UNL     1       2.939  15.389  18.684  0.00  0.00    +0.000 A 
ATOM     27  C   UNL     1       3.489  15.821  17.494  0.00  0.00    +0.000 A 
ATOM     28  C   UNL     1       2.759  16.971  17.111  0.00  0.00    +0.000 A 
ATOM     29  C   UNL     1       1.826  17.179  18.098  0.00  0.00    +0.000 A 
ATOM     30  O   UNL     1       1.928  16.225  19.062  0.00  0.00    +0.000 OA
ENDBRANCH  25  26
ENDBRANCH  23  25
ENDBRANCH  20  21
ENDBRANCH   1  20
TORSDOF 6
ENDMDL
MODEL 3
REMARK VINA RESULT:      -8.5      2.476      8.842
REMARK  Name = 
REMARK  7 active torsions:
REMARK  status: ('A' for Active; 'I' for Inactive)
REMARK    1  A    between atoms: C_1  and  C_2
REMARK    2  A    between atoms: C_2  and  C_3
REMARK    3  A    between atoms: C_2  and  N_12
REMARK    4  A    between atoms: N_5  and  C_6
REMARK    5  A    between atoms: C_6  and  C_7
REMARK    6  A    between atoms: C_17  and  S_18
REMARK    7  A    between atoms: S_18  and  N_21
REMARK                            x       y       z     vdW  Elec       q    Type
REMARK                         _______ _______ _______ _____ _____    ______ ____
ROOT
ATOM      1  N   UNL     1       2.819   4.953  19.356  0.00  0.00    +0.000 N 
ATOM      2  C   UNL     1       2.392   4.575  20.607  0.00  0.00    +0.000 A 
ATOM      3  C   UNL     1       1.791   5.659  21.205  0.00  0.00    +0.000 A 
ATOM      4  C   UNL     1       1.851   6.746  20.292  0.00  0.00    +0.000 A 
ATOM      5  C   UNL     1       1.402   8.082  20.340  0.00  0.00    +0.000 A 
ATOM      6  C   UNL     1       1.611   8.913  19.228  0.00  0.00    +0.000 A 
ATOM      7  C   UNL     1       2.323   8.455  18.117  0.00  0.00    +0.000 A 
ATOM      8  C   UNL     1       2.798   7.141  18.068  0.00  0.00    +0.000 A 
ATOM      9  C   UNL     1       2.526   6.292  19.153  0.00  0.00    +0.000 A 
ENDROOT
BRANCH   6  10
ATOM     10  S   UNL     1       1.087  10.622  19.295  0.00  0.00    +0.000 S 
ATOM     11  O   UNL     1       1.159  11.040  20.685  0.00  0.00    +0.000 OA
ATOM     12  O   UNL     1       1.824  11.329  18.269  0.00  0.00    +0.000 OA
BRANCH  10  13
ATOM     13  N   UNL     1      -0.565  10.589  18.831  0.00  0.00    +0.000 NA
ATOM     14  C   UNL     1      -1.320  11.837  19.106  0.00  0.00    +0.000 C 
ATOM     15  C   UNL     1      -2.807  11.693  18.797  0.00  0.00    +0.000 C 
ATOM     16  C   UNL     1      -3.033  11.148  17.396  0.00  0.00    +0.000 C 
ATOM     17  C   UNL     1      -2.338   9.803  17.256  0.00  0.00    +0.000 C 
ATOM     18  C   UNL     1      -0.844   9.915  17.538  0.00  0.00    +0.000 C 
ENDBRANCH  10  13
ENDBRANCH   6  10
BRANCH   1  20
ATOM     19  C   UNL     1       2.677   3.921  17.098  0.00  0.00    +0.000 C 
ATOM     20  C   UNL     1       3.489   4.080  18.386  0.00  0.00    +0.000 C 
BRANCH  20  21
ATOM     21  C   UNL     1       4.909   4.570  18.086  0.00  0.00    +0.000 C 
ATOM     22  O   UNL     1       5.581   5.192  18.909  0.00  0.00    +0.000 OA
ATOM     23  N   UNL     1       5.376   4.306  16.810  0.00  0.00    +0.000 N 
ATOM     24  H   UNL     1       4.906   3.635  16.218  0.00  0.00    +0.000 HD
BRANCH  23  25
ATOM     25  C   UNL     1       6.718   4.696  16.420  0.00  0.00    +0.000 C 
BRANCH  25  26
ATOM     26  C   UNL     1       6.854   4.588  14.946  0.00  0.00    +0.000 A 
ATOM     27  C   UNL     1       6.213   3.820  13.995  0.00  0.00    +0.000 A 
ATOM     28  C   UNL     1       6.761   4.192  12.744  0.00  0.00    +0.000 A 
ATOM     29  C   UNL     1       7.712   5.147  13.012  0.00  0.00    +0.000 A 
ATOM     30  O   UNL     1       7.781   5.393  14.348  0.00  0.00    +0.000 OA
ENDBRANCH  25  26
ENDBRANCH  23  25
ENDBRANCH  20  21
ENDBRANCH   1  20
TORSDOF 6
ENDMDL
MODEL 4
REMARK VINA RESULT:      -8.3      2.454      3.797
REMARK  Name = 
REMARK  7 active torsions:
REMARK  status: ('A' for Active; 'I' for Inactive)
REMARK    1  A    between atoms: C_1  and  C_2
REMARK    2  A    between atoms: C_2  and  C_3
REMARK    3  A    between atoms: C_2  and  N_12
REMARK    4  A    between atoms: N_5  and  C_6
REMARK    5  A    between atoms: C_6  and  C_7
REMARK    6  A    between atoms: C_17  and  S_18
REMARK    7  A    between atoms: S_18  and  N_21
REMARK                            x       y       z     vdW  Elec       q    Type
REMARK                         _______ _______ _______ _____ _____    ______ ____
ROOT
ATOM      1  N   UNL     1       0.966   9.900  20.303  0.00  0.00    +0.000 N 
ATOM      2  C   UNL     1       0.564   9.586  21.580  0.00  0.00    +0.000 A 
ATOM      3  C   UNL     1       0.874   8.265  21.817  0.00  0.00    +0.000 A 
ATOM      4  C   UNL     1       1.485   7.747  20.644  0.00  0.00    +0.000 A 
ATOM      5  C   UNL     1       2.011   6.484  20.299  0.00  0.00    +0.000 A 
ATOM      6  C   UNL     1       2.576   6.304  19.028  0.00  0.00    +0.000 A 
ATOM      7  C   UNL     1       2.550   7.332  18.082  0.00  0.00    +0.000 A 
ATOM      8  C   UNL     1       2.006   8.579  18.401  0.00  0.00    +0.000 A 
ATOM      9  C   UNL     1       1.505   8.777  19.698  0.00  0.00    +0.000 A 
ENDROOT
BRANCH   6  10
ATOM     10  S   UNL     1       3.206   4.696  18.563  0.00  0.00    +0.000 S 
ATOM     11  O   UNL     1       3.241   3.883  19.767  0.00  0.00    +0.000 OA
ATOM     12  O   UNL     1       2.453   4.267  17.402  0.00  0.00    +0.000 OA
BRANCH  10  13
ATOM     13  N   UNL     1       4.822   4.988  18.067  0.00  0.00    +0.000 NA
ATOM     14  C   UNL     1       5.787   5.220  19.171  0.00  0.00    +0.000 C 
ATOM     15  C   UNL     1       7.170   5.607  18.659  0.00  0.00    +0.000 C 
ATOM     16  C   UNL     1       7.673   4.621  17.617  0.00  0.00    +0.000 C 
ATOM     17  C   UNL     1       6.688   4.557  16.462  0.00  0.00    +0.000 C 
ATOM     18  C   UNL     1       5.296   4.151  16.936  0.00  0.00    +0.000 C 
ENDBRANCH  10  13
ENDBRANCH   6  10
BRANCH   1  20
ATOM     19  C   UNL     1      -0.337  11.275  18.691  0.00  0.00    +0.000 C 
ATOM     20  C   UNL     1       0.837  11.218  19.672  0.00  0.00    +0.000 C 
BRANCH  20  21
ATOM     21  C   UNL     1       0.733  12.329  20.721  0.00  0.00    +0.000 C 
ATOM     22  O   UNL     1       1.724  12.853  21.230  0.00  0.00    +0.000 OA
ATOM     23  N   UNL     1      -0.553  12.681  21.095  0.00  0.00    +0.000 N 
ATOM     24  H   UNL     1      -1.347  12.394  20.540  0.00  0.00    +0.000 HD
BRANCH  23  25
ATOM     25  C   UNL     1      -0.777  13.742  22.059  0.00  0.00    +0.000 C 
BRANCH  25  26
ATOM     26  C   UNL     1      -1.950  13.403  22.902  0.00  0.00    +0.000 A 
ATOM     27  C   UNL     1      -2.710  12.258  23.042  0.00  0.00    +0.000 A 
ATOM     28  C   UNL     1      -3.678  12.539  24.035  0.00  0.00    +0.000 A 
ATOM     29  C   UNL     1      -3.462  13.840  24.423  0.00  0.00    +0.000 A 
ATOM     30  O   UNL     1      -2.416  14.376  23.738  0.00  0.00    +0.000 OA
ENDBRANCH  25  26
ENDBRANCH  23  25
ENDBRANCH  20  21
ENDBRANCH   1  20
TORSDOF 6
ENDMDL
MODEL 5
REMARK VINA RESULT:      -8.2      3.205      4.968
REMARK  Name = 
REMARK  7 active torsions:
REMARK  status: ('A' for Active; 'I' for Inactive)
REMARK    1  A    between atoms: C_1  and  C_2
REMARK    2  A    between atoms: C_2  and  C_3
REMARK    3  A    between atoms: C_2  and  N_12
REMARK    4  A    between atoms: N_5  and  C_6
REMARK    5  A    between atoms: C_6  and  C_7
REMARK    6  A    between atoms: C_17  and  S_18
REMARK    7  A    between atoms: S_18  and  N_21
REMARK                            x       y       z     vdW  Elec       q    Type
REMARK                         _______ _______ _______ _____ _____    ______ ____
ROOT
ATOM      1  N   UNL     1       0.447  10.177  19.699  0.00  0.00    +0.000 N 
ATOM      2  C   UNL     1       0.100   9.877  20.995  0.00  0.00    +0.000 A 
ATOM      3  C   UNL     1       0.719   8.699  21.346  0.00  0.00    +0.000 A 
ATOM      4  C   UNL     1       1.472   8.255  20.227  0.00  0.00    +0.000 A 
ATOM      5  C   UNL     1       2.304   7.139  19.995  0.00  0.00    +0.000 A 
ATOM      6  C   UNL     1       2.932   7.003  18.747  0.00  0.00    +0.000 A 
ATOM      7  C   UNL     1       2.679   7.911  17.717  0.00  0.00    +0.000 A 
ATOM      8  C   UNL     1       1.835   9.006  17.924  0.00  0.00    +0.000 A 
ATOM      9  C   UNL     1       1.264   9.178  19.195  0.00  0.00    +0.000 A 
ENDROOT
BRANCH   6  10
ATOM     10  S   UNL     1       3.952   5.569  18.427  0.00  0.00    +0.000 S 
ATOM     11  O   UNL     1       4.159   5.500  16.991  0.00  0.00    +0.000 OA
ATOM     12  O   UNL     1       5.078   5.641  19.336  0.00  0.00    +0.000 OA
BRANCH  10  13
ATOM     13  N   UNL     1       2.982   4.232  18.893  0.00  0.00    +0.000 NA
ATOM     14  C   UNL     1       2.971   3.940  20.349  0.00  0.00    +0.000 C 
ATOM     15  C   UNL     1       2.204   2.664  20.677  0.00  0.00    +0.000 C 
ATOM     16  C   UNL     1       0.818   2.673  20.053  0.00  0.00    +0.000 C 
ATOM     17  C   UNL     1       0.939   2.836  18.548  0.00  0.00    +0.000 C 
ATOM     18  C   UNL     1       1.684   4.116  18.183  0.00  0.00    +0.000 C 
ENDBRANCH  10  13
ENDBRANCH   6  10
BRANCH   1  20
ATOM     19  C   UNL     1      -1.508  11.439  18.820  0.00  0.00    +0.000 C 
ATOM     20  C   UNL     1       0.015  11.366  18.956  0.00  0.00    +0.000 C 
BRANCH  20  21
ATOM     21  C   UNL     1       0.575  12.647  19.582  0.00  0.00    +0.000 C 
ATOM     22  O   UNL     1      -0.151  13.537  20.026  0.00  0.00    +0.000 OA
ATOM     23  N   UNL     1       1.955  12.762  19.580  0.00  0.00    +0.000 N 
ATOM     24  H   UNL     1       2.537  11.956  19.399  0.00  0.00    +0.000 HD
BRANCH  23  25
ATOM     25  C   UNL     1       2.600  13.917  20.173  0.00  0.00    +0.000 C 
BRANCH  25  26
ATOM     26  C   UNL     1       2.805  14.956  19.134  0.00  0.00    +0.000 A 
ATOM     27  C   UNL     1       3.416  14.942  17.896  0.00  0.00    +0.000 A 
ATOM     28  C   UNL     1       3.258  16.241  17.357  0.00  0.00    +0.000 A 
ATOM     29  C   UNL     1       2.580  16.969  18.305  0.00  0.00    +0.000 A 
ATOM     30  O   UNL     1       2.303  16.200  19.392  0.00  0.00    +0.000 OA
ENDBRANCH  25  26
ENDBRANCH  23  25
ENDBRANCH  20  21
ENDBRANCH   1  20
TORSDOF 6
ENDMDL
MODEL 6
REMARK VINA RESULT:      -8.2      2.882      8.783
REMARK  Name = 
REMARK  7 active torsions:
REMARK  status: ('A' for Active; 'I' for Inactive)
REMARK    1  A    between atoms: C_1  and  C_2
REMARK    2  A    between atoms: C_2  and  C_3
REMARK    3  A    between atoms: C_2  and  N_12
REMARK    4  A    between atoms: N_5  and  C_6
REMARK    5  A    between atoms: C_6  and  C_7
REMARK    6  A    between atoms: C_17  and  S_18
REMARK    7  A    between atoms: S_18  and  N_21
REMARK                            x       y       z     vdW  Elec       q    Type
REMARK                         _______ _______ _______ _____ _____    ______ ____
ROOT
ATOM      1  N   UNL     1       3.368   4.444  19.477  0.00  0.00    +0.000 N 
ATOM      2  C   UNL     1       2.834   4.189  20.718  0.00  0.00    +0.000 A 
ATOM      3  C   UNL     1       2.099   5.287  21.106  0.00  0.00    +0.000 A 
ATOM      4  C   UNL     1       2.186   6.254  20.069  0.00  0.00    +0.000 A 
ATOM      5  C   UNL     1       1.646   7.546  19.896  0.00  0.00    +0.000 A 
ATOM      6  C   UNL     1       1.918   8.247  18.712  0.00  0.00    +0.000 A 
ATOM      7  C   UNL     1       2.776   7.715  17.747  0.00  0.00    +0.000 A 
ATOM      8  C   UNL     1       3.340   6.448  17.918  0.00  0.00    +0.000 A 
ATOM      9  C   UNL     1       3.010   5.720  19.072  0.00  0.00    +0.000 A 
ENDROOT
BRANCH   6  10
ATOM     10  S   UNL     1       1.276   9.904  18.502  0.00  0.00    +0.000 S 
ATOM     11  O   UNL     1       2.385  10.746  18.091  0.00  0.00    +0.000 OA
ATOM     12  O   UNL     1       0.086   9.794  17.684  0.00  0.00    +0.000 OA
BRANCH  10  13
ATOM     13  N   UNL     1       0.792  10.385  20.077  0.00  0.00    +0.000 NA
ATOM     14  C   UNL     1       0.537  11.839  20.238  0.00  0.00    +0.000 C 
ATOM     15  C   UNL     1       0.246  12.217  21.686  0.00  0.00    +0.000 C 
ATOM     16  C   UNL     1      -0.849  11.344  22.280  0.00  0.00    +0.000 C 
ATOM     17  C   UNL     1      -0.436   9.884  22.194  0.00  0.00    +0.000 C 
ATOM     18  C   UNL     1      -0.156   9.466  20.754  0.00  0.00    +0.000 C 
ENDBRANCH  10  13
ENDBRANCH   6  10
BRANCH   1  20
ATOM     19  C   UNL     1       3.446   2.940  17.497  0.00  0.00    +0.000 C 
ATOM     20  C   UNL     1       4.197   3.515  18.701  0.00  0.00    +0.000 C 
BRANCH  20  21
ATOM     21  C   UNL     1       5.511   4.172  18.267  0.00  0.00    +0.000 C 
ATOM     22  O   UNL     1       6.288   4.687  19.070  0.00  0.00    +0.000 OA
ATOM     23  N   UNL     1       5.751   4.189  16.904  0.00  0.00    +0.000 N 
ATOM     24  H   UNL     1       5.216   3.600  16.280  0.00  0.00    +0.000 HD
BRANCH  23  25
ATOM     25  C   UNL     1       6.977   4.758  16.377  0.00  0.00    +0.000 C 
BRANCH  25  26
ATOM     26  C   UNL     1       6.992   4.617  14.900  0.00  0.00    +0.000 A 
ATOM     27  C   UNL     1       6.265   3.838  14.021  0.00  0.00    +0.000 A 
ATOM     28  C   UNL     1       6.715   4.175  12.723  0.00  0.00    +0.000 A 
ATOM     29  C   UNL     1       7.698   5.121  12.891  0.00  0.00    +0.000 A 
ATOM     30  O   UNL     1       7.878   5.394  14.211  0.00  0.00    +0.000 OA
ENDBRANCH  25  26
ENDBRANCH  23  25
ENDBRANCH  20  21
ENDBRANCH   1  20
TORSDOF 6
ENDMDL
MODEL 7
REMARK VINA RESULT:      -8.1      2.723      9.114
REMARK  Name = 
REMARK  7 active torsions:
REMARK  status: ('A' for Active; 'I' for Inactive)
REMARK    1  A    between atoms: C_1  and  C_2
REMARK    2  A    between atoms: C_2  and  C_3
REMARK    3  A    between atoms: C_2  and  N_12
REMARK    4  A    between atoms: N_5  and  C_6
REMARK    5  A    between atoms: C_6  and  C_7
REMARK    6  A    between atoms: C_17  and  S_18
REMARK    7  A    between atoms: S_18  and  N_21
REMARK                            x       y       z     vdW  Elec       q    Type
REMARK                         _______ _______ _______ _____ _____    ______ ____
ROOT
ATOM      1  N   UNL     1       2.239   6.688  19.464  0.00  0.00    +0.000 N 
ATOM      2  C   UNL     1       2.519   6.757  18.120  0.00  0.00    +0.000 A 
ATOM      3  C   UNL     1       2.252   8.036  17.687  0.00  0.00    +0.000 A 
ATOM      4  C   UNL     1       1.788   8.782  18.803  0.00  0.00    +0.000 A 
ATOM      5  C   UNL     1       1.377  10.121  18.975  0.00  0.00    +0.000 A 
ATOM      6  C   UNL     1       0.983  10.556  20.249  0.00  0.00    +0.000 A 
ATOM      7  C   UNL     1       0.919   9.664  21.321  0.00  0.00    +0.000 A 
ATOM      8  C   UNL     1       1.297   8.328  21.159  0.00  0.00    +0.000 A 
ATOM      9  C   UNL     1       1.757   7.912  19.899  0.00  0.00    +0.000 A 
ENDROOT
BRANCH   6  10
ATOM     10  S   UNL     1       0.416  12.239  20.469  0.00  0.00    +0.000 S 
ATOM     11  O   UNL     1       1.314  12.874  21.417  0.00  0.00    +0.000 OA
ATOM     12  O   UNL     1       0.222  12.794  19.145  0.00  0.00    +0.000 OA
BRANCH  10  13
ATOM     13  N   UNL     1      -1.124  12.086  21.209  0.00  0.00    +0.000 NA
ATOM     14  C   UNL     1      -1.118  12.150  22.692  0.00  0.00    +0.000 C 
ATOM     15  C   UNL     1      -2.493  11.872  23.289  0.00  0.00    +0.000 C 
ATOM     16  C   UNL     1      -3.562  12.745  22.652  0.00  0.00    +0.000 C 
ATOM     17  C   UNL     1      -3.586  12.507  21.152  0.00  0.00    +0.000 C 
ATOM     18  C   UNL     1      -2.229  12.797  20.518  0.00  0.00    +0.000 C 
ENDBRANCH  10  13
ENDBRANCH   6  10
BRANCH   1  20
ATOM     19  C   UNL     1       1.110   4.716  20.475  0.00  0.00    +0.000 C 
ATOM     20  C   UNL     1       2.413   5.503  20.310  0.00  0.00    +0.000 C 
BRANCH  20  21
ATOM     21  C   UNL     1       3.536   4.604  19.784  0.00  0.00    +0.000 C 
ATOM     22  O   UNL     1       3.414   3.384  19.683  0.00  0.00    +0.000 OA
ATOM     23  N   UNL     1       4.720   5.249  19.469  0.00  0.00    +0.000 N 
ATOM     24  H   UNL     1       4.747   6.254  19.367  0.00  0.00    +0.000 HD
BRANCH  23  25
ATOM     25  C   UNL     1       5.845   4.506  18.933  0.00  0.00    +0.000 C 
BRANCH  25  26
ATOM     26  C   UNL     1       5.856   4.625  17.454  0.00  0.00    +0.000 A 
ATOM     27  C   UNL     1       4.905   4.383  16.482  0.00  0.00    +0.000 A 
ATOM     28  C   UNL     1       5.503   4.718  15.245  0.00  0.00    +0.000 A 
ATOM     29  C   UNL     1       6.784   5.125  15.536  0.00  0.00    +0.000 A 
ATOM     30  O   UNL     1       7.011   5.069  16.875  0.00  0.00    +0.000 OA
ENDBRANCH  25  26
ENDBRANCH  23  25
ENDBRANCH  20  21
ENDBRANCH   1  20
TORSDOF 6
ENDMDL
MODEL 8
REMARK VINA RESULT:      -8.1      2.741      4.528
REMARK  Name = 
REMARK  7 active torsions:
REMARK  status: ('A' for Active; 'I' for Inactive)
REMARK    1  A    between atoms: C_1  and  C_2
REMARK    2  A    between atoms: C_2  and  C_3
REMARK    3  A    between atoms: C_2  and  N_12
REMARK    4  A    between atoms: N_5  and  C_6
REMARK    5  A    between atoms: C_6  and  C_7
REMARK    6  A    between atoms: C_17  and  S_18
REMARK    7  A    between atoms: S_18  and  N_21
REMARK                            x       y       z     vdW  Elec       q    Type
REMARK                         _______ _______ _______ _____ _____    ______ ____
ROOT
ATOM      1  N   UNL     1       0.368  10.142  19.793  0.00  0.00    +0.000 N 
ATOM      2  C   UNL     1       0.037   9.822  21.088  0.00  0.00    +0.000 A 
ATOM      3  C   UNL     1       0.680   8.651  21.422  0.00  0.00    +0.000 A 
ATOM      4  C   UNL     1       1.432   8.233  20.292  0.00  0.00    +0.000 A 
ATOM      5  C   UNL     1       2.282   7.136  20.041  0.00  0.00    +0.000 A 
ATOM      6  C   UNL     1       2.902   7.025  18.787  0.00  0.00    +0.000 A 
ATOM      7  C   UNL     1       2.625   7.939  17.769  0.00  0.00    +0.000 A 
ATOM      8  C   UNL     1       1.762   9.016  17.995  0.00  0.00    +0.000 A 
ATOM      9  C   UNL     1       1.199   9.163  19.272  0.00  0.00    +0.000 A 
ENDROOT
BRANCH   6  10
ATOM     10  S   UNL     1       3.946   5.613  18.443  0.00  0.00    +0.000 S 
ATOM     11  O   UNL     1       4.157   5.574  17.006  0.00  0.00    +0.000 OA
ATOM     12  O   UNL     1       5.069   5.687  19.355  0.00  0.00    +0.000 OA
BRANCH  10  13
ATOM     13  N   UNL     1       2.997   4.253  18.882  0.00  0.00    +0.000 NA
ATOM     14  C   UNL     1       2.977   3.943  20.334  0.00  0.00    +0.000 C 
ATOM     15  C   UNL     1       2.231   2.648  20.639  0.00  0.00    +0.000 C 
ATOM     16  C   UNL     1       0.851   2.639  20.001  0.00  0.00    +0.000 C 
ATOM     17  C   UNL     1       0.984   2.823  18.499  0.00  0.00    +0.000 C 
ATOM     18  C   UNL     1       1.709   4.122  18.157  0.00  0.00    +0.000 C 
ENDBRANCH  10  13
ENDBRANCH   6  10
BRANCH   1  20
ATOM     19  C   UNL     1      -1.332  11.043  18.216  0.00  0.00    +0.000 C 
ATOM     20  C   UNL     1      -0.092  11.331  19.067  0.00  0.00    +0.000 C 
BRANCH  20  21
ATOM     21  C   UNL     1      -0.338  12.504  20.020  0.00  0.00    +0.000 C 
ATOM     22  O   UNL     1       0.579  13.103  20.581  0.00  0.00    +0.000 OA
ATOM     23  N   UNL     1      -1.666  12.824  20.247  0.00  0.00    +0.000 N 
ATOM     24  H   UNL     1      -2.392  12.465  19.641  0.00  0.00    +0.000 HD
BRANCH  23  25
ATOM     25  C   UNL     1      -2.022  13.935  21.108  0.00  0.00    +0.000 C 
BRANCH  25  26
ATOM     26  C   UNL     1      -2.826  13.437  22.251  0.00  0.00    +0.000 A 
ATOM     27  C   UNL     1      -2.670  12.375  23.119  0.00  0.00    +0.000 A 
ATOM     28  C   UNL     1      -3.754  12.439  24.027  0.00  0.00    +0.000 A 
ATOM     29  C   UNL     1      -4.511  13.521  23.645  0.00  0.00    +0.000 A 
ATOM     30  O   UNL     1      -3.958  14.133  22.564  0.00  0.00    +0.000 OA
ENDBRANCH  25  26
ENDBRANCH  23  25
ENDBRANCH  20  21
ENDBRANCH   1  20
TORSDOF 6
ENDMDL
MODEL 9
REMARK VINA RESULT:      -8.1      1.660      1.999
REMARK  Name = 
REMARK  7 active torsions:
REMARK  status: ('A' for Active; 'I' for Inactive)
REMARK    1  A    between atoms: C_1  and  C_2
REMARK    2  A    between atoms: C_2  and  C_3
REMARK    3  A    between atoms: C_2  and  N_12
REMARK    4  A    between atoms: N_5  and  C_6
REMARK    5  A    between atoms: C_6  and  C_7
REMARK    6  A    between atoms: C_17  and  S_18
REMARK    7  A    between atoms: S_18  and  N_21
REMARK                            x       y       z     vdW  Elec       q    Type
REMARK                         _______ _______ _______ _____ _____    ______ ____
ROOT
ATOM      1  N   UNL     1       1.338   8.806  19.866  0.00  0.00    +0.000 N 
ATOM      2  C   UNL     1       1.627   9.527  18.732  0.00  0.00    +0.000 A 
ATOM      3  C   UNL     1       2.241   8.687  17.830  0.00  0.00    +0.000 A 
ATOM      4  C   UNL     1       2.337   7.403  18.431  0.00  0.00    +0.000 A 
ATOM      5  C   UNL     1       2.851   6.163  17.998  0.00  0.00    +0.000 A 
ATOM      6  C   UNL     1       2.771   5.054  18.854  0.00  0.00    +0.000 A 
ATOM      7  C   UNL     1       2.264   5.186  20.149  0.00  0.00    +0.000 A 
ATOM      8  C   UNL     1       1.777   6.415  20.601  0.00  0.00    +0.000 A 
ATOM      9  C   UNL     1       1.794   7.506  19.717  0.00  0.00    +0.000 A 
ENDROOT
BRANCH   6  10
ATOM     10  S   UNL     1       3.461   3.488  18.333  0.00  0.00    +0.000 S 
ATOM     11  O   UNL     1       3.635   2.677  19.525  0.00  0.00    +0.000 OA
ATOM     12  O   UNL     1       2.651   3.017  17.228  0.00  0.00    +0.000 OA
BRANCH  10  13
ATOM     13  N   UNL     1       5.015   3.879  17.719  0.00  0.00    +0.000 NA
ATOM     14  C   UNL     1       5.064   4.150  16.260  0.00  0.00    +0.000 C 
ATOM     15  C   UNL     1       6.489   4.356  15.758  0.00  0.00    +0.000 C 
ATOM     16  C   UNL     1       7.228   5.393  16.590  0.00  0.00    +0.000 C 
ATOM     17  C   UNL     1       7.244   4.958  18.045  0.00  0.00    +0.000 C 
ATOM     18  C   UNL     1       5.832   4.763  18.587  0.00  0.00    +0.000 C 
ENDBRANCH  10  13
ENDBRANCH   6  10
BRANCH   1  20
ATOM     19  C   UNL     1       1.509   9.167  22.321  0.00  0.00    +0.000 C 
ATOM     20  C   UNL     1       0.660   9.329  21.057  0.00  0.00    +0.000 C 
BRANCH  20  21
ATOM     21  C   UNL     1       0.238  10.788  20.860  0.00  0.00    +0.000 C 
ATOM     22  O   UNL     1       0.906  11.732  21.282  0.00  0.00    +0.000 OA
ATOM     23  N   UNL     1      -0.972  10.980  20.214  0.00  0.00    +0.000 N 
ATOM     24  H   UNL     1      -1.408  10.223  19.704  0.00  0.00    +0.000 HD
BRANCH  23  25
ATOM     25  C   UNL     1      -1.461  12.318  19.944  0.00  0.00    +0.000 C 
BRANCH  25  26
ATOM     26  C   UNL     1      -2.729  12.539  20.682  0.00  0.00    +0.000 A 
ATOM     27  C   UNL     1      -3.028  12.662  22.024  0.00  0.00    +0.000 A 
ATOM     28  C   UNL     1      -4.421  12.896  22.104  0.00  0.00    +0.000 A 
ATOM     29  C   UNL     1      -4.886  12.881  20.811  0.00  0.00    +0.000 A 
ATOM     30  O   UNL     1      -3.867  12.661  19.938  0.00  0.00    +0.000 OA
ENDBRANCH  25  26
ENDBRANCH  23  25
ENDBRANCH  20  21
ENDBRANCH   1  20
TORSDOF 6
ENDMDL
