MODEL 1
REMARK VINA RESULT:      -8.1      0.000      0.000
REMARK  Name = 
REMARK  15 active torsions:
REMARK  status: ('A' for Active; 'I' for Inactive)
REMARK    1  A    between atoms: C_1  and  C_2
REMARK    2  A    between atoms: C_2  and  C_3
REMARK    3  A    between atoms: C_3  and  C_4
REMARK    4  A    between atoms: C_3  and  C_5
REMARK    5  A    between atoms: C_5  and  O_7
REMARK    6  A    between atoms: O_7  and  C_8
REMARK    7  A    between atoms: C_8  and  C_9
REMARK    8  A    between atoms: C_8  and  C_14
REMARK    9  A    between atoms: C_9  and  C_10
REMARK   10  A    between atoms: C_11  and  C_12
REMARK   11  A    between atoms: C_11  and  C_13
REMARK   12  A    between atoms: C_16  and  O_17
REMARK   13  A    between atoms: O_17  and  C_18
REMARK   14  A    between atoms: C_21  and  O_22
REMARK   15  A    between atoms: O_22  and  C_23
REMARK                            x       y       z     vdW  Elec       q    Type
REMARK                         _______ _______ _______ _____ _____    ______ ____
ROOT
ATOM      1  C   UNL     1       4.684   4.865  17.224  0.00  0.00    +0.000 A 
ATOM      2  C   UNL     1       4.303   6.214  17.272  0.00  0.00    +0.000 A 
ATOM      3  C   UNL     1       3.380   6.739  18.177  0.00  0.00    +0.000 A 
ATOM      4  C   UNL     1       2.821   5.866  19.114  0.00  0.00    +0.000 A 
ATOM      5  C   UNL     1       3.206   4.483  19.116  0.00  0.00    +0.000 A 
ATOM      6  C   UNL     1       4.117   3.968  18.156  0.00  0.00    +0.000 A 
ATOM      7  C   UNL     1       2.629   3.668  20.219  0.00  0.00    +0.000 C 
ATOM      8  O   UNL     1       3.237   2.801  20.826  0.00  0.00    +0.000 OA
ATOM      9  C   UNL     1       1.265   3.992  20.661  0.00  0.00    +0.000 C 
ATOM     10  C   UNL     1       0.877   5.267  20.625  0.00  0.00    +0.000 C 
ATOM     11  C   UNL     1       1.819   6.287  20.138  0.00  0.00    +0.000 C 
ATOM     12  O   UNL     1       1.733   7.398  20.633  0.00  0.00    +0.000 OA
ENDROOT
BRANCH   3  13
ATOM     13  O   UNL     1       3.222   8.058  17.885  0.00  0.00    +0.000 OA
ATOM     14  C   UNL     1       1.986   8.666  17.593  0.00  0.00    +0.000 C 
ENDBRANCH   3  13
BRANCH   6  15
ATOM     15  O   UNL     1       4.547   2.692  17.928  0.00  0.00    +0.000 OA
ATOM     16  C   UNL     1       3.698   1.571  17.787  0.00  0.00    +0.000 C 
ENDBRANCH   6  15
BRANCH   1  17
ATOM     17  C   UNL     1       5.730   4.426  16.181  0.00  0.00    +0.000 C 
BRANCH  17  18
ATOM     18  O   UNL     1       6.972   5.167  16.338  0.00  0.00    +0.000 OA
BRANCH  18  19
ATOM     19  C   UNL     1       7.789   4.929  17.393  0.00  0.00    +0.000 C 
ATOM     20  O   UNL     1       8.392   3.882  17.591  0.00  0.00    +0.000 OA
BRANCH  19  21
ATOM     21  C   UNL     1       7.895   6.117  18.339  0.00  0.00    +0.000 C 
ATOM     22  C   UNL     1       7.218   5.927  19.694  0.00  0.00    +0.000 C 
BRANCH  21  24
ATOM     23  C   UNL     1       8.250   8.649  18.036  0.00  0.00    +0.000 C 
ATOM     24  C   UNL     1       7.446   7.415  17.645  0.00  0.00    +0.000 C 
ENDBRANCH  21  24
ENDBRANCH  19  21
ENDBRANCH  18  19
ENDBRANCH  17  18
BRANCH  17  25
ATOM     25  C   UNL     1       5.191   4.389  14.726  0.00  0.00    +0.000 C 
BRANCH  25  26
ATOM     26  C   UNL     1       6.137   3.829  13.692  0.00  0.00    +0.000 C 
ATOM     27  C   UNL     1       5.830   3.419  12.447  0.00  0.00    +0.000 C 
ATOM     28  C   UNL     1       4.436   3.351  11.887  0.00  0.00    +0.000 C 
ATOM     29  C   UNL     1       6.912   2.983  11.495  0.00  0.00    +0.000 C 
ENDBRANCH  25  26
ENDBRANCH  17  25
ENDBRANCH   1  17
TORSDOF 9
ENDMDL
MODEL 2
REMARK VINA RESULT:      -7.1      0.707      1.388
REMARK  Name = 
REMARK  15 active torsions:
REMARK  status: ('A' for Active; 'I' for Inactive)
REMARK    1  A    between atoms: C_1  and  C_2
REMARK    2  A    between atoms: C_2  and  C_3
REMARK    3  A    between atoms: C_3  and  C_4
REMARK    4  A    between atoms: C_3  and  C_5
REMARK    5  A    between atoms: C_5  and  O_7
REMARK    6  A    between atoms: O_7  and  C_8
REMARK    7  A    between atoms: C_8  and  C_9
REMARK    8  A    between atoms: C_8  and  C_14
REMARK    9  A    between atoms: C_9  and  C_10
REMARK   10  A    between atoms: C_11  and  C_12
REMARK   11  A    between atoms: C_11  and  C_13
REMARK   12  A    between atoms: C_16  and  O_17
REMARK   13  A    between atoms: O_17  and  C_18
REMARK   14  A    between atoms: C_21  and  O_22
REMARK   15  A    between atoms: O_22  and  C_23
REMARK                            x       y       z     vdW  Elec       q    Type
REMARK                         _______ _______ _______ _____ _____    ______ ____
ROOT
ATOM      1  C   UNL     1       4.515   4.756  17.210  0.00  0.00    +0.000 A 
ATOM      2  C   UNL     1       4.155   6.111  17.262  0.00  0.00    +0.000 A 
ATOM      3  C   UNL     1       3.277   6.656  18.199  0.00  0.00    +0.000 A 
ATOM      4  C   UNL     1       2.744   5.799  19.166  0.00  0.00    +0.000 A 
ATOM      5  C   UNL     1       3.109   4.411  19.164  0.00  0.00    +0.000 A 
ATOM      6  C   UNL     1       3.972   3.875  18.173  0.00  0.00    +0.000 A 
ATOM      7  C   UNL     1       2.565   3.614  20.296  0.00  0.00    +0.000 C 
ATOM      8  O   UNL     1       3.185   2.743  20.886  0.00  0.00    +0.000 OA
ATOM      9  C   UNL     1       1.226   3.962  20.791  0.00  0.00    +0.000 C 
ATOM     10  C   UNL     1       0.855   5.241  20.759  0.00  0.00    +0.000 C 
ATOM     11  C   UNL     1       1.791   6.244  20.226  0.00  0.00    +0.000 C 
ATOM     12  O   UNL     1       1.741   7.360  20.714  0.00  0.00    +0.000 OA
ENDROOT
BRANCH   3  13
ATOM     13  O   UNL     1       3.126   7.975  17.902  0.00  0.00    +0.000 OA
ATOM     14  C   UNL     1       1.890   8.594  17.633  0.00  0.00    +0.000 C 
ENDBRANCH   3  13
BRANCH   6  15
ATOM     15  O   UNL     1       4.375   2.591  17.938  0.00  0.00    +0.000 OA
ATOM     16  C   UNL     1       3.505   1.481  17.847  0.00  0.00    +0.000 C 
ENDBRANCH   6  15
BRANCH   1  17
ATOM     17  C   UNL     1       5.511   4.293  16.130  0.00  0.00    +0.000 C 
BRANCH  17  18
ATOM     18  O   UNL     1       6.883   4.560  16.532  0.00  0.00    +0.000 OA
BRANCH  18  19
ATOM     19  C   UNL     1       7.422   5.794  16.370  0.00  0.00    +0.000 C 
ATOM     20  O   UNL     1       7.929   6.207  15.336  0.00  0.00    +0.000 OA
BRANCH  19  21
ATOM     21  C   UNL     1       7.334   6.647  17.628  0.00  0.00    +0.000 C 
ATOM     22  C   UNL     1       7.857   8.074  17.479  0.00  0.00    +0.000 C 
BRANCH  21  24
ATOM     23  C   UNL     1       6.959   5.332  19.809  0.00  0.00    +0.000 C 
ATOM     24  C   UNL     1       7.966   5.923  18.830  0.00  0.00    +0.000 C 
ENDBRANCH  21  24
ENDBRANCH  19  21
ENDBRANCH  18  19
ENDBRANCH  17  18
BRANCH  17  25
ATOM     25  C   UNL     1       5.161   4.783  14.700  0.00  0.00    +0.000 C 
BRANCH  25  26
ATOM     26  C   UNL     1       5.150   3.720  13.628  0.00  0.00    +0.000 C 
ATOM     27  C   UNL     1       6.045   3.559  12.635  0.00  0.00    +0.000 C 
ATOM     28  C   UNL     1       7.188   4.493  12.352  0.00  0.00    +0.000 C 
ATOM     29  C   UNL     1       5.953   2.378  11.705  0.00  0.00    +0.000 C 
ENDBRANCH  25  26
ENDBRANCH  17  25
ENDBRANCH   1  17
TORSDOF 9
ENDMDL
MODEL 3
REMARK VINA RESULT:      -7.0      1.091      2.954
REMARK  Name = 
REMARK  15 active torsions:
REMARK  status: ('A' for Active; 'I' for Inactive)
REMARK    1  A    between atoms: C_1  and  C_2
REMARK    2  A    between atoms: C_2  and  C_3
REMARK    3  A    between atoms: C_3  and  C_4
REMARK    4  A    between atoms: C_3  and  C_5
REMARK    5  A    between atoms: C_5  and  O_7
REMARK    6  A    between atoms: O_7  and  C_8
REMARK    7  A    between atoms: C_8  and  C_9
REMARK    8  A    between atoms: C_8  and  C_14
REMARK    9  A    between atoms: C_9  and  C_10
REMARK   10  A    between atoms: C_11  and  C_12
REMARK   11  A    between atoms: C_11  and  C_13
REMARK   12  A    between atoms: C_16  and  O_17
REMARK   13  A    between atoms: O_17  and  C_18
REMARK   14  A    between atoms: C_21  and  O_22
REMARK   15  A    between atoms: O_22  and  C_23
REMARK                            x       y       z     vdW  Elec       q    Type
REMARK                         _______ _______ _______ _____ _____    ______ ____
ROOT
ATOM      1  C   UNL     1       4.764   4.563  17.162  0.00  0.00    +0.000 A 
ATOM      2  C   UNL     1       4.222   3.497  17.895  0.00  0.00    +0.000 A 
ATOM      3  C   UNL     1       3.223   3.632  18.859  0.00  0.00    +0.000 A 
ATOM      4  C   UNL     1       2.710   4.912  19.087  0.00  0.00    +0.000 A 
ATOM      5  C   UNL     1       3.218   6.026  18.339  0.00  0.00    +0.000 A 
ATOM      6  C   UNL     1       4.265   5.865  17.393  0.00  0.00    +0.000 A 
ATOM      7  C   UNL     1       2.531   7.321  18.588  0.00  0.00    +0.000 C 
ATOM      8  O   UNL     1       2.275   8.144  17.723  0.00  0.00    +0.000 OA
ATOM      9  C   UNL     1       2.052   7.584  19.953  0.00  0.00    +0.000 C 
ATOM     10  C   UNL     1       1.617   6.554  20.677  0.00  0.00    +0.000 C 
ATOM     11  C   UNL     1       1.642   5.205  20.090  0.00  0.00    +0.000 C 
ATOM     12  O   UNL     1       0.766   4.433  20.441  0.00  0.00    +0.000 OA
ENDROOT
BRANCH   3  13
ATOM     13  O   UNL     1       2.998   2.402  19.394  0.00  0.00    +0.000 OA
ATOM     14  C   UNL     1       1.938   1.554  19.021  0.00  0.00    +0.000 C 
ENDBRANCH   3  13
BRANCH   6  15
ATOM     15  O   UNL     1       4.944   6.785  16.647  0.00  0.00    +0.000 OA
ATOM     16  C   UNL     1       4.529   7.255  15.380  0.00  0.00    +0.000 C 
ENDBRANCH   6  15
BRANCH   1  17
ATOM     17  C   UNL     1       5.853   4.267  16.115  0.00  0.00    +0.000 C 
BRANCH  17  18
ATOM     18  O   UNL     1       7.032   5.091  16.334  0.00  0.00    +0.000 OA
BRANCH  18  19
ATOM     19  C   UNL     1       7.844   4.865  17.396  0.00  0.00    +0.000 C 
ATOM     20  O   UNL     1       8.443   3.820  17.611  0.00  0.00    +0.000 OA
BRANCH  19  21
ATOM     21  C   UNL     1       7.948   6.066  18.326  0.00  0.00    +0.000 C 
ATOM     22  C   UNL     1       7.190   5.931  19.644  0.00  0.00    +0.000 C 
BRANCH  21  24
ATOM     23  C   UNL     1       8.253   8.617  18.159  0.00  0.00    +0.000 C 
ATOM     24  C   UNL     1       7.594   7.368  17.586  0.00  0.00    +0.000 C 
ENDBRANCH  21  24
ENDBRANCH  19  21
ENDBRANCH  18  19
ENDBRANCH  17  18
BRANCH  17  25
ATOM     25  C   UNL     1       5.337   4.273  14.651  0.00  0.00    +0.000 C 
BRANCH  25  26
ATOM     26  C   UNL     1       6.272   3.681  13.625  0.00  0.00    +0.000 C 
ATOM     27  C   UNL     1       5.969   3.312  12.366  0.00  0.00    +0.000 C 
ATOM     28  C   UNL     1       4.586   3.333  11.777  0.00  0.00    +0.000 C 
ATOM     29  C   UNL     1       7.045   2.835  11.427  0.00  0.00    +0.000 C 
ENDBRANCH  25  26
ENDBRANCH  17  25
ENDBRANCH   1  17
TORSDOF 9
ENDMDL
MODEL 4
REMARK VINA RESULT:      -7.0      0.866      1.086
REMARK  Name = 
REMARK  15 active torsions:
REMARK  status: ('A' for Active; 'I' for Inactive)
REMARK    1  A    between atoms: C_1  and  C_2
REMARK    2  A    between atoms: C_2  and  C_3
REMARK    3  A    between atoms: C_3  and  C_4
REMARK    4  A    between atoms: C_3  and  C_5
REMARK    5  A    between atoms: C_5  and  O_7
REMARK    6  A    between atoms: O_7  and  C_8
REMARK    7  A    between atoms: C_8  and  C_9
REMARK    8  A    between atoms: C_8  and  C_14
REMARK    9  A    between atoms: C_9  and  C_10
REMARK   10  A    between atoms: C_11  and  C_12
REMARK   11  A    between atoms: C_11  and  C_13
REMARK   12  A    between atoms: C_16  and  O_17
REMARK   13  A    between atoms: O_17  and  C_18
REMARK   14  A    between atoms: C_21  and  O_22
REMARK   15  A    between atoms: O_22  and  C_23
REMARK                            x       y       z     vdW  Elec       q    Type
REMARK                         _______ _______ _______ _____ _____    ______ ____
ROOT
ATOM      1  C   UNL     1       4.440   4.418  17.335  0.00  0.00    +0.000 A 
ATOM      2  C   UNL     1       3.885   5.706  17.351  0.00  0.00    +0.000 A 
ATOM      3  C   UNL     1       2.957   6.151  18.293  0.00  0.00    +0.000 A 
ATOM      4  C   UNL     1       2.579   5.262  19.302  0.00  0.00    +0.000 A 
ATOM      5  C   UNL     1       3.144   3.943  19.336  0.00  0.00    +0.000 A 
ATOM      6  C   UNL     1       4.055   3.503  18.340  0.00  0.00    +0.000 A 
ATOM      7  C   UNL     1       2.749   3.117  20.509  0.00  0.00    +0.000 C 
ATOM      8  O   UNL     1       3.504   2.369  21.110  0.00  0.00    +0.000 OA
ATOM      9  C   UNL     1       1.384   3.283  21.028  0.00  0.00    +0.000 C 
ATOM     10  C   UNL     1       0.828   4.492  20.964  0.00  0.00    +0.000 C 
ATOM     11  C   UNL     1       1.594   5.600  20.372  0.00  0.00    +0.000 C 
ATOM     12  O   UNL     1       1.391   6.715  20.824  0.00  0.00    +0.000 OA
ENDROOT
BRANCH   3  13
ATOM     13  O   UNL     1       2.607   7.422  17.956  0.00  0.00    +0.000 OA
ATOM     14  C   UNL     1       3.481   8.363  17.382  0.00  0.00    +0.000 C 
ENDBRANCH   3  13
BRANCH   6  15
ATOM     15  O   UNL     1       4.637   2.285  18.138  0.00  0.00    +0.000 OA
ATOM     16  C   UNL     1       3.930   1.065  18.025  0.00  0.00    +0.000 C 
ENDBRANCH   6  15
BRANCH   1  17
ATOM     17  C   UNL     1       5.469   4.066  16.244  0.00  0.00    +0.000 C 
BRANCH  17  18
ATOM     18  O   UNL     1       6.827   4.307  16.706  0.00  0.00    +0.000 OA
BRANCH  18  19
ATOM     19  C   UNL     1       7.435   5.496  16.470  0.00  0.00    +0.000 C 
ATOM     20  O   UNL     1       7.755   5.913  15.365  0.00  0.00    +0.000 OA
BRANCH  19  21
ATOM     21  C   UNL     1       7.692   6.292  17.743  0.00  0.00    +0.000 C 
ATOM     22  C   UNL     1       7.167   5.648  19.024  0.00  0.00    +0.000 C 
BRANCH  21  24
ATOM     23  C   UNL     1       8.228   8.793  18.033  0.00  0.00    +0.000 C 
ATOM     24  C   UNL     1       7.213   7.746  17.589  0.00  0.00    +0.000 C 
ENDBRANCH  21  24
ENDBRANCH  19  21
ENDBRANCH  18  19
ENDBRANCH  17  18
BRANCH  17  25
ATOM     25  C   UNL     1       5.151   4.684  14.856  0.00  0.00    +0.000 C 
BRANCH  25  26
ATOM     26  C   UNL     1       5.037   3.704  13.714  0.00  0.00    +0.000 C 
ATOM     27  C   UNL     1       5.902   3.538  12.696  0.00  0.00    +0.000 C 
ATOM     28  C   UNL     1       7.116   4.392  12.456  0.00  0.00    +0.000 C 
ATOM     29  C   UNL     1       5.698   2.437  11.688  0.00  0.00    +0.000 C 
ENDBRANCH  25  26
ENDBRANCH  17  25
ENDBRANCH   1  17
TORSDOF 9
ENDMDL
MODEL 5
REMARK VINA RESULT:      -6.8      1.483      5.360
REMARK  Name = 
REMARK  15 active torsions:
REMARK  status: ('A' for Active; 'I' for Inactive)
REMARK    1  A    between atoms: C_1  and  C_2
REMARK    2  A    between atoms: C_2  and  C_3
REMARK    3  A    between atoms: C_3  and  C_4
REMARK    4  A    between atoms: C_3  and  C_5
REMARK    5  A    between atoms: C_5  and  O_7
REMARK    6  A    between atoms: O_7  and  C_8
REMARK    7  A    between atoms: C_8  and  C_9
REMARK    8  A    between atoms: C_8  and  C_14
REMARK    9  A    between atoms: C_9  and  C_10
REMARK   10  A    between atoms: C_11  and  C_12
REMARK   11  A    between atoms: C_11  and  C_13
REMARK   12  A    between atoms: C_16  and  O_17
REMARK   13  A    between atoms: O_17  and  C_18
REMARK   14  A    between atoms: C_21  and  O_22
REMARK   15  A    between atoms: O_22  and  C_23
REMARK                            x       y       z     vdW  Elec       q    Type
REMARK                         _______ _______ _______ _____ _____    ______ ____
ROOT
ATOM      1  C   UNL     1       4.840   4.548  16.642  0.00  0.00    +0.000 A 
ATOM      2  C   UNL     1       4.345   3.297  17.037  0.00  0.00    +0.000 A 
ATOM      3  C   UNL     1       3.338   3.112  17.984  0.00  0.00    +0.000 A 
ATOM      4  C   UNL     1       2.767   4.253  18.555  0.00  0.00    +0.000 A 
ATOM      5  C   UNL     1       3.226   5.553  18.157  0.00  0.00    +0.000 A 
ATOM      6  C   UNL     1       4.282   5.710  17.221  0.00  0.00    +0.000 A 
ATOM      7  C   UNL     1       2.480   6.695  18.750  0.00  0.00    +0.000 C 
ATOM      8  O   UNL     1       2.189   7.717  18.147  0.00  0.00    +0.000 OA
ATOM      9  C   UNL     1       1.986   6.543  20.126  0.00  0.00    +0.000 C 
ATOM     10  C   UNL     1       1.596   5.333  20.525  0.00  0.00    +0.000 C 
ATOM     11  C   UNL     1       1.685   4.206  19.583  0.00  0.00    +0.000 C 
ATOM     12  O   UNL     1       0.844   3.330  19.690  0.00  0.00    +0.000 OA
ENDROOT
BRANCH   3  13
ATOM     13  O   UNL     1       3.168   1.773  18.149  0.00  0.00    +0.000 OA
ATOM     14  C   UNL     1       3.956   0.968  18.994  0.00  0.00    +0.000 C 
ENDBRANCH   3  13
BRANCH   6  15
ATOM     15  O   UNL     1       4.920   6.831  16.774  0.00  0.00    +0.000 OA
ATOM     16  C   UNL     1       4.916   7.276  15.432  0.00  0.00    +0.000 C 
ENDBRANCH   6  15
BRANCH   1  17
ATOM     17  C   UNL     1       5.945   4.606  15.570  0.00  0.00    +0.000 C 
BRANCH  17  18
ATOM     18  O   UNL     1       5.754   3.573  14.563  0.00  0.00    +0.000 OA
BRANCH  18  19
ATOM     19  C   UNL     1       6.179   3.765  13.289  0.00  0.00    +0.000 C 
ATOM     20  O   UNL     1       6.963   4.634  12.935  0.00  0.00    +0.000 OA
BRANCH  19  21
ATOM     21  C   UNL     1       5.574   2.768  12.309  0.00  0.00    +0.000 C 
ATOM     22  C   UNL     1       6.478   2.380  11.142  0.00  0.00    +0.000 C 
BRANCH  21  24
ATOM     23  C   UNL     1       4.160   3.785  10.413  0.00  0.00    +0.000 C 
ATOM     24  C   UNL     1       4.187   3.236  11.834  0.00  0.00    +0.000 C 
ENDBRANCH  21  24
ENDBRANCH  19  21
ENDBRANCH  18  19
ENDBRANCH  17  18
BRANCH  17  25
ATOM     25  C   UNL     1       7.383   4.668  16.150  0.00  0.00    +0.000 C 
BRANCH  25  26
ATOM     26  C   UNL     1       7.480   4.670  17.656  0.00  0.00    +0.000 C 
ATOM     27  C   UNL     1       7.677   5.735  18.457  0.00  0.00    +0.000 C 
ATOM     28  C   UNL     1       7.940   7.134  17.972  0.00  0.00    +0.000 C 
ATOM     29  C   UNL     1       7.642   5.585  19.955  0.00  0.00    +0.000 C 
ENDBRANCH  25  26
ENDBRANCH  17  25
ENDBRANCH   1  17
TORSDOF 9
ENDMDL
MODEL 6
REMARK VINA RESULT:      -6.6      1.103      4.394
REMARK  Name = 
REMARK  15 active torsions:
REMARK  status: ('A' for Active; 'I' for Inactive)
REMARK    1  A    between atoms: C_1  and  C_2
REMARK    2  A    between atoms: C_2  and  C_3
REMARK    3  A    between atoms: C_3  and  C_4
REMARK    4  A    between atoms: C_3  and  C_5
REMARK    5  A    between atoms: C_5  and  O_7
REMARK    6  A    between atoms: O_7  and  C_8
REMARK    7  A    between atoms: C_8  and  C_9
REMARK    8  A    between atoms: C_8  and  C_14
REMARK    9  A    between atoms: C_9  and  C_10
REMARK   10  A    between atoms: C_11  and  C_12
REMARK   11  A    between atoms: C_11  and  C_13
REMARK   12  A    between atoms: C_16  and  O_17
REMARK   13  A    between atoms: O_17  and  C_18
REMARK   14  A    between atoms: C_21  and  O_22
REMARK   15  A    between atoms: O_22  and  C_23
REMARK                            x       y       z     vdW  Elec       q    Type
REMARK                         _______ _______ _______ _____ _____    ______ ____
ROOT
ATOM      1  C   UNL     1       4.590   5.633  16.891  0.00  0.00    +0.000 A 
ATOM      2  C   UNL     1       4.018   6.878  17.193  0.00  0.00    +0.000 A 
ATOM      3  C   UNL     1       3.109   7.096  18.229  0.00  0.00    +0.000 A 
ATOM      4  C   UNL     1       2.769   6.007  19.034  0.00  0.00    +0.000 A 
ATOM      5  C   UNL     1       3.353   4.721  18.776  0.00  0.00    +0.000 A 
ATOM      6  C   UNL     1       4.244   4.519  17.689  0.00  0.00    +0.000 A 
ATOM      7  C   UNL     1       3.000   3.659  19.756  0.00  0.00    +0.000 C 
ATOM      8  O   UNL     1       3.781   2.814  20.167  0.00  0.00    +0.000 OA
ATOM      9  C   UNL     1       1.647   3.685  20.329  0.00  0.00    +0.000 C 
ATOM     10  C   UNL     1       1.073   4.870  20.535  0.00  0.00    +0.000 C 
ATOM     11  C   UNL     1       1.808   6.092  20.174  0.00  0.00    +0.000 C 
ATOM     12  O   UNL     1       1.602   7.082  20.856  0.00  0.00    +0.000 OA
ENDROOT
BRANCH   3  13
ATOM     13  O   UNL     1       2.733   8.402  18.177  0.00  0.00    +0.000 OA
ATOM     14  C   UNL     1       1.477   8.851  17.727  0.00  0.00    +0.000 C 
ENDBRANCH   3  13
BRANCH   6  15
ATOM     15  O   UNL     1       4.837   3.382  17.220  0.00  0.00    +0.000 OA
ATOM     16  C   UNL     1       4.172   2.148  17.031  0.00  0.00    +0.000 C 
ENDBRANCH   6  15
BRANCH   1  17
ATOM     17  C   UNL     1       5.595   5.539  15.728  0.00  0.00    +0.000 C 
BRANCH  17  18
ATOM     18  O   UNL     1       5.260   4.444  14.831  0.00  0.00    +0.000 OA
BRANCH  18  19
ATOM     19  C   UNL     1       5.999   4.214  13.717  0.00  0.00    +0.000 C 
ATOM     20  O   UNL     1       7.086   4.723  13.479  0.00  0.00    +0.000 OA
BRANCH  19  21
ATOM     21  C   UNL     1       5.334   3.234  12.759  0.00  0.00    +0.000 C 
ATOM     22  C   UNL     1       6.297   2.375  11.943  0.00  0.00    +0.000 C 
BRANCH  21  24
ATOM     23  C   UNL     1       3.625   3.048  10.843  0.00  0.00    +0.000 C 
ATOM     24  C   UNL     1       4.301   3.948  11.870  0.00  0.00    +0.000 C 
ENDBRANCH  21  24
ENDBRANCH  19  21
ENDBRANCH  18  19
ENDBRANCH  17  18
BRANCH  17  25
ATOM     25  C   UNL     1       7.080   5.561  16.176  0.00  0.00    +0.000 C 
BRANCH  25  26
ATOM     26  C   UNL     1       7.548   6.839  16.828  0.00  0.00    +0.000 C 
ATOM     27  C   UNL     1       7.876   7.019  18.122  0.00  0.00    +0.000 C 
ATOM     28  C   UNL     1       7.733   5.976  19.195  0.00  0.00    +0.000 C 
ATOM     29  C   UNL     1       8.431   8.337  18.596  0.00  0.00    +0.000 C 
ENDBRANCH  25  26
ENDBRANCH  17  25
ENDBRANCH   1  17
TORSDOF 9
ENDMDL
MODEL 7
REMARK VINA RESULT:      -6.6      1.183      4.012
REMARK  Name = 
REMARK  15 active torsions:
REMARK  status: ('A' for Active; 'I' for Inactive)
REMARK    1  A    between atoms: C_1  and  C_2
REMARK    2  A    between atoms: C_2  and  C_3
REMARK    3  A    between atoms: C_3  and  C_4
REMARK    4  A    between atoms: C_3  and  C_5
REMARK    5  A    between atoms: C_5  and  O_7
REMARK    6  A    between atoms: O_7  and  C_8
REMARK    7  A    between atoms: C_8  and  C_9
REMARK    8  A    between atoms: C_8  and  C_14
REMARK    9  A    between atoms: C_9  and  C_10
REMARK   10  A    between atoms: C_11  and  C_12
REMARK   11  A    between atoms: C_11  and  C_13
REMARK   12  A    between atoms: C_16  and  O_17
REMARK   13  A    between atoms: O_17  and  C_18
REMARK   14  A    between atoms: C_21  and  O_22
REMARK   15  A    between atoms: O_22  and  C_23
REMARK                            x       y       z     vdW  Elec       q    Type
REMARK                         _______ _______ _______ _____ _____    ______ ____
ROOT
ATOM      1  C   UNL     1       4.395   5.930  16.990  0.00  0.00    +0.000 A 
ATOM      2  C   UNL     1       3.812   7.168  17.298  0.00  0.00    +0.000 A 
ATOM      3  C   UNL     1       2.936   7.382  18.363  0.00  0.00    +0.000 A 
ATOM      4  C   UNL     1       2.645   6.296  19.192  0.00  0.00    +0.000 A 
ATOM      5  C   UNL     1       3.242   5.019  18.928  0.00  0.00    +0.000 A 
ATOM      6  C   UNL     1       4.098   4.820  17.812  0.00  0.00    +0.000 A 
ATOM      7  C   UNL     1       2.945   3.962  19.931  0.00  0.00    +0.000 C 
ATOM      8  O   UNL     1       3.754   3.136  20.324  0.00  0.00    +0.000 OA
ATOM      9  C   UNL     1       1.612   3.970  20.552  0.00  0.00    +0.000 C 
ATOM     10  C   UNL     1       1.024   5.147  20.765  0.00  0.00    +0.000 C 
ATOM     11  C   UNL     1       1.723   6.378  20.365  0.00  0.00    +0.000 C 
ATOM     12  O   UNL     1       1.523   7.372  21.043  0.00  0.00    +0.000 OA
ENDROOT
BRANCH   3  13
ATOM     13  O   UNL     1       2.534   8.681  18.310  0.00  0.00    +0.000 OA
ATOM     14  C   UNL     1       1.323   9.116  17.740  0.00  0.00    +0.000 C 
ENDBRANCH   3  13
BRANCH   6  15
ATOM     15  O   UNL     1       4.695   3.688  17.335  0.00  0.00    +0.000 OA
ATOM     16  C   UNL     1       4.031   2.458  17.122  0.00  0.00    +0.000 C 
ENDBRANCH   6  15
BRANCH   1  17
ATOM     17  C   UNL     1       5.360   5.841  15.793  0.00  0.00    +0.000 C 
BRANCH  17  18
ATOM     18  O   UNL     1       4.919   4.838  14.836  0.00  0.00    +0.000 OA
BRANCH  18  19
ATOM     19  C   UNL     1       5.817   4.028  14.222  0.00  0.00    +0.000 C 
ATOM     20  O   UNL     1       6.559   3.242  14.796  0.00  0.00    +0.000 OA
BRANCH  19  21
ATOM     21  C   UNL     1       5.817   4.187  12.708  0.00  0.00    +0.000 C 
ATOM     22  C   UNL     1       4.987   3.154  11.949  0.00  0.00    +0.000 C 
BRANCH  21  24
ATOM     23  C   UNL     1       8.037   5.490  12.672  0.00  0.00    +0.000 C 
ATOM     24  C   UNL     1       7.254   4.285  12.165  0.00  0.00    +0.000 C 
ENDBRANCH  21  24
ENDBRANCH  19  21
ENDBRANCH  18  19
ENDBRANCH  17  18
BRANCH  17  25
ATOM     25  C   UNL     1       6.853   5.720  16.196  0.00  0.00    +0.000 C 
BRANCH  25  26
ATOM     26  C   UNL     1       7.450   6.932  16.870  0.00  0.00    +0.000 C 
ATOM     27  C   UNL     1       7.859   7.032  18.149  0.00  0.00    +0.000 C 
ATOM     28  C   UNL     1       7.698   5.955  19.186  0.00  0.00    +0.000 C 
ATOM     29  C   UNL     1       8.535   8.284  18.642  0.00  0.00    +0.000 C 
ENDBRANCH  25  26
ENDBRANCH  17  25
ENDBRANCH   1  17
TORSDOF 9
ENDMDL
MODEL 8
REMARK VINA RESULT:      -6.5      0.771      1.129
REMARK  Name = 
REMARK  15 active torsions:
REMARK  status: ('A' for Active; 'I' for Inactive)
REMARK    1  A    between atoms: C_1  and  C_2
REMARK    2  A    between atoms: C_2  and  C_3
REMARK    3  A    between atoms: C_3  and  C_4
REMARK    4  A    between atoms: C_3  and  C_5
REMARK    5  A    between atoms: C_5  and  O_7
REMARK    6  A    between atoms: O_7  and  C_8
REMARK    7  A    between atoms: C_8  and  C_9
REMARK    8  A    between atoms: C_8  and  C_14
REMARK    9  A    between atoms: C_9  and  C_10
REMARK   10  A    between atoms: C_11  and  C_12
REMARK   11  A    between atoms: C_11  and  C_13
REMARK   12  A    between atoms: C_16  and  O_17
REMARK   13  A    between atoms: O_17  and  C_18
REMARK   14  A    between atoms: C_21  and  O_22
REMARK   15  A    between atoms: O_22  and  C_23
REMARK                            x       y       z     vdW  Elec       q    Type
REMARK                         _______ _______ _______ _____ _____    ______ ____
ROOT
ATOM      1  C   UNL     1       4.614   4.704  17.311  0.00  0.00    +0.000 A 
ATOM      2  C   UNL     1       4.241   6.056  17.334  0.00  0.00    +0.000 A 
ATOM      3  C   UNL     1       3.341   6.609  18.245  0.00  0.00    +0.000 A 
ATOM      4  C   UNL     1       2.798   5.763  19.215  0.00  0.00    +0.000 A 
ATOM      5  C   UNL     1       3.174   4.379  19.243  0.00  0.00    +0.000 A 
ATOM      6  C   UNL     1       4.062   3.835  18.277  0.00  0.00    +0.000 A 
ATOM      7  C   UNL     1       2.617   3.595  20.378  0.00  0.00    +0.000 C 
ATOM      8  O   UNL     1       3.233   2.739  20.994  0.00  0.00    +0.000 OA
ATOM      9  C   UNL     1       1.265   3.938  20.841  0.00  0.00    +0.000 C 
ATOM     10  C   UNL     1       0.883   5.214  20.782  0.00  0.00    +0.000 C 
ATOM     11  C   UNL     1       1.820   6.216  20.250  0.00  0.00    +0.000 C 
ATOM     12  O   UNL     1       1.751   7.339  20.719  0.00  0.00    +0.000 OA
ENDROOT
BRANCH   3  13
ATOM     13  O   UNL     1       3.184   7.922  17.924  0.00  0.00    +0.000 OA
ATOM     14  C   UNL     1       1.947   8.527  17.632  0.00  0.00    +0.000 C 
ENDBRANCH   3  13
BRANCH   6  15
ATOM     15  O   UNL     1       4.480   2.551  18.072  0.00  0.00    +0.000 OA
ATOM     16  C   UNL     1       3.619   1.444  17.895  0.00  0.00    +0.000 C 
ENDBRANCH   6  15
BRANCH   1  17
ATOM     17  C   UNL     1       5.635   4.233  16.258  0.00  0.00    +0.000 C 
BRANCH  17  18
ATOM     18  O   UNL     1       6.997   4.369  16.749  0.00  0.00    +0.000 OA
BRANCH  18  19
ATOM     19  C   UNL     1       7.264   5.125  17.843  0.00  0.00    +0.000 C 
ATOM     20  O   UNL     1       7.470   4.685  18.966  0.00  0.00    +0.000 OA
BRANCH  19  21
ATOM     21  C   UNL     1       7.288   6.617  17.540  0.00  0.00    +0.000 C 
ATOM     22  C   UNL     1       7.634   6.978  16.097  0.00  0.00    +0.000 C 
BRANCH  21  24
ATOM     23  C   UNL     1       8.389   8.842  18.221  0.00  0.00    +0.000 C 
ATOM     24  C   UNL     1       8.168   7.371  18.552  0.00  0.00    +0.000 C 
ENDBRANCH  21  24
ENDBRANCH  19  21
ENDBRANCH  18  19
ENDBRANCH  17  18
BRANCH  17  25
ATOM     25  C   UNL     1       5.405   4.835  14.846  0.00  0.00    +0.000 C 
BRANCH  25  26
ATOM     26  C   UNL     1       5.589   3.881  13.691  0.00  0.00    +0.000 C 
ATOM     27  C   UNL     1       6.559   3.912  12.758  0.00  0.00    +0.000 C 
ATOM     28  C   UNL     1       7.601   4.990  12.641  0.00  0.00    +0.000 C 
ATOM     29  C   UNL     1       6.666   2.819  11.727  0.00  0.00    +0.000 C 
ENDBRANCH  25  26
ENDBRANCH  17  25
ENDBRANCH   1  17
TORSDOF 9
ENDMDL
MODEL 9
REMARK VINA RESULT:      -6.4      1.318      5.215
REMARK  Name = 
REMARK  15 active torsions:
REMARK  status: ('A' for Active; 'I' for Inactive)
REMARK    1  A    between atoms: C_1  and  C_2
REMARK    2  A    between atoms: C_2  and  C_3
REMARK    3  A    between atoms: C_3  and  C_4
REMARK    4  A    between atoms: C_3  and  C_5
REMARK    5  A    between atoms: C_5  and  O_7
REMARK    6  A    between atoms: O_7  and  C_8
REMARK    7  A    between atoms: C_8  and  C_9
REMARK    8  A    between atoms: C_8  and  C_14
REMARK    9  A    between atoms: C_9  and  C_10
REMARK   10  A    between atoms: C_11  and  C_12
REMARK   11  A    between atoms: C_11  and  C_13
REMARK   12  A    between atoms: C_16  and  O_17
REMARK   13  A    between atoms: O_17  and  C_18
REMARK   14  A    between atoms: C_21  and  O_22
REMARK   15  A    between atoms: O_22  and  C_23
REMARK                            x       y       z     vdW  Elec       q    Type
REMARK                         _______ _______ _______ _____ _____    ______ ____
ROOT
ATOM      1  C   UNL     1       4.464   5.230  16.956  0.00  0.00    +0.000 A 
ATOM      2  C   UNL     1       4.253   3.843  16.946  0.00  0.00    +0.000 A 
ATOM      3  C   UNL     1       3.459   3.162  17.869  0.00  0.00    +0.000 A 
ATOM      4  C   UNL     1       2.810   3.918  18.850  0.00  0.00    +0.000 A 
ATOM      5  C   UNL     1       2.979   5.343  18.877  0.00  0.00    +0.000 A 
ATOM      6  C   UNL     1       3.827   6.004  17.950  0.00  0.00    +0.000 A 
ATOM      7  C   UNL     1       2.163   6.056  19.897  0.00  0.00    +0.000 C 
ATOM      8  O   UNL     1       1.615   7.131  19.711  0.00  0.00    +0.000 OA
ATOM      9  C   UNL     1       1.934   5.377  21.179  0.00  0.00    +0.000 C 
ATOM     10  C   UNL     1       1.818   4.049  21.177  0.00  0.00    +0.000 C 
ATOM     11  C   UNL     1       1.933   3.323  19.903  0.00  0.00    +0.000 C 
ATOM     12  O   UNL     1       1.276   2.303  19.787  0.00  0.00    +0.000 OA
ENDROOT
BRANCH   3  13
ATOM     13  O   UNL     1       3.539   1.835  17.582  0.00  0.00    +0.000 OA
ATOM     14  C   UNL     1       4.127   0.873  18.424  0.00  0.00    +0.000 C 
ENDBRANCH   3  13
BRANCH   6  15
ATOM     15  O   UNL     1       4.190   7.317  17.852  0.00  0.00    +0.000 OA
ATOM     16  C   UNL     1       3.323   8.364  17.461  0.00  0.00    +0.000 C 
ENDBRANCH   6  15
BRANCH   1  17
ATOM     17  C   UNL     1       5.354   5.853  15.863  0.00  0.00    +0.000 C 
BRANCH  17  18
ATOM     18  O   UNL     1       5.314   5.065  14.641  0.00  0.00    +0.000 OA
BRANCH  18  19
ATOM     19  C   UNL     1       6.461   4.737  13.995  0.00  0.00    +0.000 C 
ATOM     20  O   UNL     1       7.545   5.276  14.172  0.00  0.00    +0.000 OA
BRANCH  19  21
ATOM     21  C   UNL     1       6.273   3.600  12.999  0.00  0.00    +0.000 C 
ATOM     22  C   UNL     1       7.037   3.757  11.687  0.00  0.00    +0.000 C 
BRANCH  21  24
ATOM     23  C   UNL     1       4.374   3.229  11.301  0.00  0.00    +0.000 C 
ATOM     24  C   UNL     1       4.779   3.312  12.767  0.00  0.00    +0.000 C 
ENDBRANCH  21  24
ENDBRANCH  19  21
ENDBRANCH  18  19
ENDBRANCH  17  18
BRANCH  17  25
ATOM     25  C   UNL     1       6.786   6.208  16.344  0.00  0.00    +0.000 C 
BRANCH  25  26
ATOM     26  C   UNL     1       7.196   5.616  17.670  0.00  0.00    +0.000 C 
ATOM     27  C   UNL     1       7.816   6.247  18.685  0.00  0.00    +0.000 C 
ATOM     28  C   UNL     1       8.312   7.666  18.636  0.00  0.00    +0.000 C 
ATOM     29  C   UNL     1       8.062   5.540  19.992  0.00  0.00    +0.000 C 
ENDBRANCH  25  26
ENDBRANCH  17  25
ENDBRANCH   1  17
TORSDOF 9
ENDMDL
