MODEL 1
REMARK VINA RESULT:      -7.4      0.000      0.000
REMARK  Name = 
REMARK  6 active torsions:
REMARK  status: ('A' for Active; 'I' for Inactive)
REMARK    1  A    between atoms: C_1  and  N_2
REMARK    2  A    between atoms: C_3  and  S_4
REMARK    3  A    between atoms: S_4  and  C_5
REMARK    4  A    between atoms: C_5  and  C_6
REMARK    5  A    between atoms: N_8  and  C_9
REMARK    6  A    between atoms: C_14  and  C_15
REMARK                            x       y       z     vdW  Elec       q    Type
REMARK                         _______ _______ _______ _____ _____    ______ ____
ROOT
ATOM      1  C   UNL     1       3.518   6.395  18.092  0.00  0.00    +0.000 C 
ATOM      2  N   UNL     1       4.554   5.478  18.497  0.00  0.00    +0.000 N 
ATOM      3  C   UNL     1       5.892   5.576  18.234  0.00  0.00    +0.000 A 
ATOM      4  N   UNL     1       6.526   4.558  18.760  0.00  0.00    +0.000 NA
ATOM      5  N   UNL     1       5.595   3.777  19.397  0.00  0.00    +0.000 NA
ATOM      6  C   UNL     1       4.394   4.312  19.232  0.00  0.00    +0.000 A 
ENDROOT
BRANCH   6   7
ATOM      7  C   UNL     1       3.129   3.721  19.703  0.00  0.00    +0.000 A 
ATOM      8  C   UNL     1       2.820   3.741  21.074  0.00  0.00    +0.000 A 
ATOM      9  C   UNL     1       1.622   3.214  21.565  0.00  0.00    +0.000 A 
ATOM     10  C   UNL     1       0.680   2.694  20.687  0.00  0.00    +0.000 A 
ATOM     11  C   UNL     1       0.944   2.690  19.319  0.00  0.00    +0.000 A 
ATOM     12  C   UNL     1       2.159   3.193  18.827  0.00  0.00    +0.000 A 
ATOM     13 CL   UNL     1       2.394   3.094  17.116  0.00  0.00    +0.000 Cl
ENDBRANCH   6   7
BRANCH   3  14
ATOM     14  S   UNL     1       6.618   6.820  17.280  0.00  0.00    +0.000 S 
BRANCH  14  15
ATOM     15  C   UNL     1       5.863   6.488  15.663  0.00  0.00    +0.000 C 
BRANCH  15  16
ATOM     16  C   UNL     1       6.473   5.234  15.058  0.00  0.00    +0.000 C 
ATOM     17  O   UNL     1       7.568   4.801  15.405  0.00  0.00    +0.000 OA
ATOM     18  N   UNL     1       5.686   4.645  14.083  0.00  0.00    +0.000 N 
ATOM     19  H   UNL     1       4.906   5.189  13.716  0.00  0.00    +0.000 HD
BRANCH  18  20
ATOM     20  C   UNL     1       6.129   3.531  13.304  0.00  0.00    +0.000 C 
ATOM     21  C   UNL     1       5.473   3.209  11.990  0.00  0.00    +0.000 C 
ATOM     22  C   UNL     1       6.863   3.774  12.012  0.00  0.00    +0.000 C 
ENDBRANCH  18  20
ENDBRANCH  15  16
ENDBRANCH  14  15
ENDBRANCH   3  14
TORSDOF 5
ENDMDL
MODEL 2
REMARK VINA RESULT:      -7.4      3.579      5.053
REMARK  Name = 
REMARK  6 active torsions:
REMARK  status: ('A' for Active; 'I' for Inactive)
REMARK    1  A    between atoms: C_1  and  N_2
REMARK    2  A    between atoms: C_3  and  S_4
REMARK    3  A    between atoms: S_4  and  C_5
REMARK    4  A    between atoms: C_5  and  C_6
REMARK    5  A    between atoms: N_8  and  C_9
REMARK    6  A    between atoms: C_14  and  C_15
REMARK                            x       y       z     vdW  Elec       q    Type
REMARK                         _______ _______ _______ _____ _____    ______ ____
ROOT
ATOM      1  C   UNL     1       3.957   6.638  17.682  0.00  0.00    +0.000 C 
ATOM      2  N   UNL     1       4.909   5.731  18.274  0.00  0.00    +0.000 N 
ATOM      3  C   UNL     1       6.272   5.793  18.188  0.00  0.00    +0.000 A 
ATOM      4  N   UNL     1       6.807   4.799  18.850  0.00  0.00    +0.000 NA
ATOM      5  N   UNL     1       5.781   4.071  19.400  0.00  0.00    +0.000 NA
ATOM      6  C   UNL     1       4.627   4.613  19.046  0.00  0.00    +0.000 A 
ENDROOT
BRANCH   6   7
ATOM      7  C   UNL     1       3.296   4.071  19.376  0.00  0.00    +0.000 A 
ATOM      8  C   UNL     1       2.489   4.733  20.317  0.00  0.00    +0.000 A 
ATOM      9  C   UNL     1       1.212   4.269  20.645  0.00  0.00    +0.000 A 
ATOM     10  C   UNL     1       0.692   3.153  20.003  0.00  0.00    +0.000 A 
ATOM     11  C   UNL     1       1.456   2.494  19.043  0.00  0.00    +0.000 A 
ATOM     12  C   UNL     1       2.750   2.942  18.733  0.00  0.00    +0.000 A 
ATOM     13 CL   UNL     1       3.621   2.018  17.558  0.00  0.00    +0.000 Cl
ENDBRANCH   6   7
BRANCH   3  14
ATOM     14  S   UNL     1       7.147   6.968  17.270  0.00  0.00    +0.000 S 
BRANCH  14  15
ATOM     15  C   UNL     1       8.275   7.613  18.537  0.00  0.00    +0.000 C 
BRANCH  15  16
ATOM     16  C   UNL     1       8.412   9.119  18.386  0.00  0.00    +0.000 C 
ATOM     17  O   UNL     1       7.833   9.747  17.505  0.00  0.00    +0.000 OA
ATOM     18  N   UNL     1       9.251   9.699  19.322  0.00  0.00    +0.000 N 
ATOM     19  H   UNL     1       9.847   9.079  19.869  0.00  0.00    +0.000 HD
BRANCH  18  20
ATOM     20  C   UNL     1       9.614  11.082  19.279  0.00  0.00    +0.000 C 
ATOM     21  C   UNL     1      10.818  11.579  20.028  0.00  0.00    +0.000 C 
ATOM     22  C   UNL     1      10.850  11.503  18.530  0.00  0.00    +0.000 C 
ENDBRANCH  18  20
ENDBRANCH  15  16
ENDBRANCH  14  15
ENDBRANCH   3  14
TORSDOF 5
ENDMDL
MODEL 3
REMARK VINA RESULT:      -7.2      1.625      1.786
REMARK  Name = 
REMARK  6 active torsions:
REMARK  status: ('A' for Active; 'I' for Inactive)
REMARK    1  A    between atoms: C_1  and  N_2
REMARK    2  A    between atoms: C_3  and  S_4
REMARK    3  A    between atoms: S_4  and  C_5
REMARK    4  A    between atoms: C_5  and  C_6
REMARK    5  A    between atoms: N_8  and  C_9
REMARK    6  A    between atoms: C_14  and  C_15
REMARK                            x       y       z     vdW  Elec       q    Type
REMARK                         _______ _______ _______ _____ _____    ______ ____
ROOT
ATOM      1  C   UNL     1       4.073   5.012  16.808  0.00  0.00    +0.000 C 
ATOM      2  N   UNL     1       4.961   4.963  17.943  0.00  0.00    +0.000 N 
ATOM      3  C   UNL     1       6.298   5.251  17.959  0.00  0.00    +0.000 A 
ATOM      4  N   UNL     1       6.775   5.095  19.167  0.00  0.00    +0.000 NA
ATOM      5  N   UNL     1       5.733   4.711  19.975  0.00  0.00    +0.000 NA
ATOM      6  C   UNL     1       4.633   4.610  19.245  0.00  0.00    +0.000 A 
ENDROOT
BRANCH   6   7
ATOM      7  C   UNL     1       3.325   4.146  19.739  0.00  0.00    +0.000 A 
ATOM      8  C   UNL     1       3.140   2.788  20.050  0.00  0.00    +0.000 A 
ATOM      9  C   UNL     1       1.924   2.306  20.543  0.00  0.00    +0.000 A 
ATOM     10  C   UNL     1       0.874   3.183  20.781  0.00  0.00    +0.000 A 
ATOM     11  C   UNL     1       1.038   4.540  20.513  0.00  0.00    +0.000 A 
ATOM     12  C   UNL     1       2.248   5.021  19.991  0.00  0.00    +0.000 A 
ATOM     13 CL   UNL     1       2.320   6.717  19.654  0.00  0.00    +0.000 Cl
ENDBRANCH   6   7
BRANCH   3  14
ATOM     14  S   UNL     1       7.227   5.680  16.566  0.00  0.00    +0.000 S 
BRANCH  14  15
ATOM     15  C   UNL     1       7.160   4.128  15.626  0.00  0.00    +0.000 C 
BRANCH  15  16
ATOM     16  C   UNL     1       6.811   4.419  14.176  0.00  0.00    +0.000 C 
ATOM     17  O   UNL     1       6.746   5.561  13.731  0.00  0.00    +0.000 OA
ATOM     18  N   UNL     1       6.567   3.284  13.422  0.00  0.00    +0.000 N 
ATOM     19  H   UNL     1       6.435   2.406  13.923  0.00  0.00    +0.000 HD
BRANCH  18  20
ATOM     20  C   UNL     1       6.103   3.341  12.071  0.00  0.00    +0.000 C 
ATOM     21  C   UNL     1       5.504   2.127  11.417  0.00  0.00    +0.000 C 
ATOM     22  C   UNL     1       4.624   3.284  11.791  0.00  0.00    +0.000 C 
ENDBRANCH  18  20
ENDBRANCH  15  16
ENDBRANCH  14  15
ENDBRANCH   3  14
TORSDOF 5
ENDMDL
MODEL 4
REMARK VINA RESULT:      -7.2      1.722      1.962
REMARK  Name = 
REMARK  6 active torsions:
REMARK  status: ('A' for Active; 'I' for Inactive)
REMARK    1  A    between atoms: C_1  and  N_2
REMARK    2  A    between atoms: C_3  and  S_4
REMARK    3  A    between atoms: S_4  and  C_5
REMARK    4  A    between atoms: C_5  and  C_6
REMARK    5  A    between atoms: N_8  and  C_9
REMARK    6  A    between atoms: C_14  and  C_15
REMARK                            x       y       z     vdW  Elec       q    Type
REMARK                         _______ _______ _______ _____ _____    ______ ____
ROOT
ATOM      1  C   UNL     1       4.483   3.413  16.943  0.00  0.00    +0.000 C 
ATOM      2  N   UNL     1       5.243   4.115  17.947  0.00  0.00    +0.000 N 
ATOM      3  C   UNL     1       6.512   4.611  17.827  0.00  0.00    +0.000 A 
ATOM      4  N   UNL     1       6.876   5.184  18.945  0.00  0.00    +0.000 NA
ATOM      5  N   UNL     1       5.824   5.082  19.821  0.00  0.00    +0.000 NA
ATOM      6  C   UNL     1       4.836   4.423  19.238  0.00  0.00    +0.000 A 
ENDROOT
BRANCH   6   7
ATOM      7  C   UNL     1       3.567   4.045  19.886  0.00  0.00    +0.000 A 
ATOM      8  C   UNL     1       2.458   4.905  19.798  0.00  0.00    +0.000 A 
ATOM      9  C   UNL     1       1.228   4.578  20.377  0.00  0.00    +0.000 A 
ATOM     10  C   UNL     1       1.064   3.358  21.020  0.00  0.00    +0.000 A 
ATOM     11  C   UNL     1       2.137   2.472  21.095  0.00  0.00    +0.000 A 
ATOM     12  C   UNL     1       3.380   2.810  20.540  0.00  0.00    +0.000 A 
ATOM     13 CL   UNL     1       4.649   1.651  20.734  0.00  0.00    +0.000 Cl
ENDBRANCH   6   7
BRANCH   3  14
ATOM     14  S   UNL     1       7.508   4.430  16.426  0.00  0.00    +0.000 S 
BRANCH  14  15
ATOM     15  C   UNL     1       6.600   5.453  15.232  0.00  0.00    +0.000 C 
BRANCH  15  16
ATOM     16  C   UNL     1       6.890   4.974  13.819  0.00  0.00    +0.000 C 
ATOM     17  O   UNL     1       7.761   5.481  13.118  0.00  0.00    +0.000 OA
ATOM     18  N   UNL     1       6.077   3.932  13.405  0.00  0.00    +0.000 N 
ATOM     19  H   UNL     1       5.252   3.727  13.968  0.00  0.00    +0.000 HD
BRANCH  18  20
ATOM     20  C   UNL     1       6.102   3.419  12.071  0.00  0.00    +0.000 C 
ATOM     21  C   UNL     1       5.722   1.991  11.794  0.00  0.00    +0.000 C 
ATOM     22  C   UNL     1       4.805   3.102  11.373  0.00  0.00    +0.000 C 
ENDBRANCH  18  20
ENDBRANCH  15  16
ENDBRANCH  14  15
ENDBRANCH   3  14
TORSDOF 5
ENDMDL
MODEL 5
REMARK VINA RESULT:      -7.1      1.200      1.770
REMARK  Name = 
REMARK  6 active torsions:
REMARK  status: ('A' for Active; 'I' for Inactive)
REMARK    1  A    between atoms: C_1  and  N_2
REMARK    2  A    between atoms: C_3  and  S_4
REMARK    3  A    between atoms: S_4  and  C_5
REMARK    4  A    between atoms: C_5  and  C_6
REMARK    5  A    between atoms: N_8  and  C_9
REMARK    6  A    between atoms: C_14  and  C_15
REMARK                            x       y       z     vdW  Elec       q    Type
REMARK                         _______ _______ _______ _____ _____    ______ ____
ROOT
ATOM      1  C   UNL     1       5.581   3.834  18.357  0.00  0.00    +0.000 C 
ATOM      2  N   UNL     1       4.835   5.044  18.117  0.00  0.00    +0.000 N 
ATOM      3  C   UNL     1       5.244   6.140  17.408  0.00  0.00    +0.000 A 
ATOM      4  N   UNL     1       4.301   7.048  17.404  0.00  0.00    +0.000 NA
ATOM      5  N   UNL     1       3.239   6.541  18.111  0.00  0.00    +0.000 NA
ATOM      6  C   UNL     1       3.554   5.337  18.563  0.00  0.00    +0.000 A 
ENDROOT
BRANCH   6   7
ATOM      7  C   UNL     1       2.701   4.505  19.431  0.00  0.00    +0.000 A 
ATOM      8  C   UNL     1       2.998   4.397  20.801  0.00  0.00    +0.000 A 
ATOM      9  C   UNL     1       2.205   3.638  21.667  0.00  0.00    +0.000 A 
ATOM     10  C   UNL     1       1.065   3.005  21.190  0.00  0.00    +0.000 A 
ATOM     11  C   UNL     1       0.728   3.120  19.844  0.00  0.00    +0.000 A 
ATOM     12  C   UNL     1       1.538   3.857  18.967  0.00  0.00    +0.000 A 
ATOM     13 CL   UNL     1       1.044   3.892  17.309  0.00  0.00    +0.000 Cl
ENDBRANCH   6   7
BRANCH   3  14
ATOM     14  S   UNL     1       6.808   6.321  16.694  0.00  0.00    +0.000 S 
BRANCH  14  15
ATOM     15  C   UNL     1       7.069   4.652  16.029  0.00  0.00    +0.000 C 
BRANCH  15  16
ATOM     16  C   UNL     1       7.123   4.706  14.511  0.00  0.00    +0.000 C 
ATOM     17  O   UNL     1       7.766   5.557  13.905  0.00  0.00    +0.000 OA
ATOM     18  N   UNL     1       6.376   3.719  13.891  0.00  0.00    +0.000 N 
ATOM     19  H   UNL     1       5.713   3.199  14.466  0.00  0.00    +0.000 HD
BRANCH  18  20
ATOM     20  C   UNL     1       6.191   3.667  12.474  0.00  0.00    +0.000 C 
ATOM     21  C   UNL     1       5.885   2.364  11.791  0.00  0.00    +0.000 C 
ATOM     22  C   UNL     1       4.817   3.411  11.913  0.00  0.00    +0.000 C 
ENDBRANCH  18  20
ENDBRANCH  15  16
ENDBRANCH  14  15
ENDBRANCH   3  14
TORSDOF 5
ENDMDL
MODEL 6
REMARK VINA RESULT:      -7.0      1.766      2.068
REMARK  Name = 
REMARK  6 active torsions:
REMARK  status: ('A' for Active; 'I' for Inactive)
REMARK    1  A    between atoms: C_1  and  N_2
REMARK    2  A    between atoms: C_3  and  S_4
REMARK    3  A    between atoms: S_4  and  C_5
REMARK    4  A    between atoms: C_5  and  C_6
REMARK    5  A    between atoms: N_8  and  C_9
REMARK    6  A    between atoms: C_14  and  C_15
REMARK                            x       y       z     vdW  Elec       q    Type
REMARK                         _______ _______ _______ _____ _____    ______ ____
ROOT
ATOM      1  C   UNL     1       4.034   6.193  18.570  0.00  0.00    +0.000 C 
ATOM      2  N   UNL     1       4.147   4.955  17.840  0.00  0.00    +0.000 N 
ATOM      3  C   UNL     1       4.765   4.760  16.636  0.00  0.00    +0.000 A 
ATOM      4  N   UNL     1       4.665   3.505  16.280  0.00  0.00    +0.000 NA
ATOM      5  N   UNL     1       3.980   2.849  17.273  0.00  0.00    +0.000 NA
ATOM      6  C   UNL     1       3.645   3.717  18.215  0.00  0.00    +0.000 A 
ENDROOT
BRANCH   6   7
ATOM      7  C   UNL     1       2.833   3.408  19.405  0.00  0.00    +0.000 A 
ATOM      8  C   UNL     1       1.499   3.845  19.471  0.00  0.00    +0.000 A 
ATOM      9  C   UNL     1       0.684   3.556  20.570  0.00  0.00    +0.000 A 
ATOM     10  C   UNL     1       1.173   2.781  21.613  0.00  0.00    +0.000 A 
ATOM     11  C   UNL     1       2.482   2.307  21.561  0.00  0.00    +0.000 A 
ATOM     12  C   UNL     1       3.310   2.620  20.473  0.00  0.00    +0.000 A 
ATOM     13 CL   UNL     1       4.929   2.014  20.540  0.00  0.00    +0.000 Cl
ENDBRANCH   6   7
BRANCH   3  14
ATOM     14  S   UNL     1       5.499   6.010  15.694  0.00  0.00    +0.000 S 
BRANCH  14  15
ATOM     15  C   UNL     1       7.144   5.296  15.411  0.00  0.00    +0.000 C 
BRANCH  15  16
ATOM     16  C   UNL     1       7.311   4.955  13.940  0.00  0.00    +0.000 C 
ATOM     17  O   UNL     1       8.161   5.487  13.232  0.00  0.00    +0.000 OA
ATOM     18  N   UNL     1       6.414   4.004  13.483  0.00  0.00    +0.000 N 
ATOM     19  H   UNL     1       5.618   3.783  14.080  0.00  0.00    +0.000 HD
BRANCH  18  20
ATOM     20  C   UNL     1       6.319   3.633  12.105  0.00  0.00    +0.000 C 
ATOM     21  C   UNL     1       6.668   2.239  11.664  0.00  0.00    +0.000 C 
ATOM     22  C   UNL     1       5.235   2.685  11.665  0.00  0.00    +0.000 C 
ENDBRANCH  18  20
ENDBRANCH  15  16
ENDBRANCH  14  15
ENDBRANCH   3  14
TORSDOF 5
ENDMDL
MODEL 7
REMARK VINA RESULT:      -7.0      3.798      5.463
REMARK  Name = 
REMARK  6 active torsions:
REMARK  status: ('A' for Active; 'I' for Inactive)
REMARK    1  A    between atoms: C_1  and  N_2
REMARK    2  A    between atoms: C_3  and  S_4
REMARK    3  A    between atoms: S_4  and  C_5
REMARK    4  A    between atoms: C_5  and  C_6
REMARK    5  A    between atoms: N_8  and  C_9
REMARK    6  A    between atoms: C_14  and  C_15
REMARK                            x       y       z     vdW  Elec       q    Type
REMARK                         _______ _______ _______ _____ _____    ______ ____
ROOT
ATOM      1  C   UNL     1       4.149   6.513  17.089  0.00  0.00    +0.000 C 
ATOM      2  N   UNL     1       5.046   5.751  17.921  0.00  0.00    +0.000 N 
ATOM      3  C   UNL     1       6.386   5.960  18.100  0.00  0.00    +0.000 A 
ATOM      4  N   UNL     1       6.872   5.068  18.926  0.00  0.00    +0.000 NA
ATOM      5  N   UNL     1       5.833   4.260  19.316  0.00  0.00    +0.000 NA
ATOM      6  C   UNL     1       4.726   4.649  18.703  0.00  0.00    +0.000 A 
ENDROOT
BRANCH   6   7
ATOM      7  C   UNL     1       3.417   3.979  18.804  0.00  0.00    +0.000 A 
ATOM      8  C   UNL     1       3.238   2.711  18.225  0.00  0.00    +0.000 A 
ATOM      9  C   UNL     1       2.021   2.028  18.316  0.00  0.00    +0.000 A 
ATOM     10  C   UNL     1       0.966   2.579  19.030  0.00  0.00    +0.000 A 
ATOM     11  C   UNL     1       1.125   3.820  19.642  0.00  0.00    +0.000 A 
ATOM     12  C   UNL     1       2.335   4.521  19.529  0.00  0.00    +0.000 A 
ATOM     13 CL   UNL     1       2.400   6.072  20.292  0.00  0.00    +0.000 Cl
ENDBRANCH   6   7
BRANCH   3  14
ATOM     14  S   UNL     1       7.307   7.176  17.288  0.00  0.00    +0.000 S 
BRANCH  14  15
ATOM     15  C   UNL     1       8.347   7.776  18.650  0.00  0.00    +0.000 C 
BRANCH  15  16
ATOM     16  C   UNL     1       8.553   9.276  18.518  0.00  0.00    +0.000 C 
ATOM     17  O   UNL     1       7.998   9.943  17.651  0.00  0.00    +0.000 OA
ATOM     18  N   UNL     1       9.427   9.803  19.454  0.00  0.00    +0.000 N 
ATOM     19  H   UNL     1       9.997   9.148  19.988  0.00  0.00    +0.000 HD
BRANCH  18  20
ATOM     20  C   UNL     1       9.853  11.168  19.427  0.00  0.00    +0.000 C 
ATOM     21  C   UNL     1       9.158  12.202  20.269  0.00  0.00    +0.000 C 
ATOM     22  C   UNL     1      10.544  11.754  20.630  0.00  0.00    +0.000 C 
ENDBRANCH  18  20
ENDBRANCH  15  16
ENDBRANCH  14  15
ENDBRANCH   3  14
TORSDOF 5
ENDMDL
MODEL 8
REMARK VINA RESULT:      -7.0      1.151      1.276
REMARK  Name = 
REMARK  6 active torsions:
REMARK  status: ('A' for Active; 'I' for Inactive)
REMARK    1  A    between atoms: C_1  and  N_2
REMARK    2  A    between atoms: C_3  and  S_4
REMARK    3  A    between atoms: S_4  and  C_5
REMARK    4  A    between atoms: C_5  and  C_6
REMARK    5  A    between atoms: N_8  and  C_9
REMARK    6  A    between atoms: C_14  and  C_15
REMARK                            x       y       z     vdW  Elec       q    Type
REMARK                         _______ _______ _______ _____ _____    ______ ____
ROOT
ATOM      1  C   UNL     1       3.504   5.729  17.173  0.00  0.00    +0.000 C 
ATOM      2  N   UNL     1       4.612   5.123  17.868  0.00  0.00    +0.000 N 
ATOM      3  C   UNL     1       5.941   5.247  17.571  0.00  0.00    +0.000 A 
ATOM      4  N   UNL     1       6.656   4.553  18.419  0.00  0.00    +0.000 NA
ATOM      5  N   UNL     1       5.788   3.970  19.309  0.00  0.00    +0.000 NA
ATOM      6  C   UNL     1       4.547   4.292  18.977  0.00  0.00    +0.000 A 
ENDROOT
BRANCH   6   7
ATOM      7  C   UNL     1       3.332   3.793  19.647  0.00  0.00    +0.000 A 
ATOM      8  C   UNL     1       2.770   4.528  20.706  0.00  0.00    +0.000 A 
ATOM      9  C   UNL     1       1.606   4.106  21.355  0.00  0.00    +0.000 A 
ATOM     10  C   UNL     1       0.948   2.960  20.930  0.00  0.00    +0.000 A 
ATOM     11  C   UNL     1       1.464   2.229  19.862  0.00  0.00    +0.000 A 
ATOM     12  C   UNL     1       2.648   2.634  19.226  0.00  0.00    +0.000 A 
ATOM     13 CL   UNL     1       3.217   1.623  17.944  0.00  0.00    +0.000 Cl
ENDBRANCH   6   7
BRANCH   3  14
ATOM     14  S   UNL     1       6.568   6.126  16.221  0.00  0.00    +0.000 S 
BRANCH  14  15
ATOM     15  C   UNL     1       7.596   4.852  15.437  0.00  0.00    +0.000 C 
BRANCH  15  16
ATOM     16  C   UNL     1       7.331   4.826  13.941  0.00  0.00    +0.000 C 
ATOM     17  O   UNL     1       7.838   5.633  13.168  0.00  0.00    +0.000 OA
ATOM     18  N   UNL     1       6.464   3.822  13.545  0.00  0.00    +0.000 N 
ATOM     19  H   UNL     1       5.933   3.345  14.273  0.00  0.00    +0.000 HD
BRANCH  18  20
ATOM     20  C   UNL     1       5.986   3.700  12.203  0.00  0.00    +0.000 C 
ATOM     21  C   UNL     1       6.006   2.370  11.503  0.00  0.00    +0.000 C 
ATOM     22  C   UNL     1       4.699   2.966  11.937  0.00  0.00    +0.000 C 
ENDBRANCH  18  20
ENDBRANCH  15  16
ENDBRANCH  14  15
ENDBRANCH   3  14
TORSDOF 5
ENDMDL
MODEL 9
REMARK VINA RESULT:      -7.0      1.717      2.393
REMARK  Name = 
REMARK  6 active torsions:
REMARK  status: ('A' for Active; 'I' for Inactive)
REMARK    1  A    between atoms: C_1  and  N_2
REMARK    2  A    between atoms: C_3  and  S_4
REMARK    3  A    between atoms: S_4  and  C_5
REMARK    4  A    between atoms: C_5  and  C_6
REMARK    5  A    between atoms: N_8  and  C_9
REMARK    6  A    between atoms: C_14  and  C_15
REMARK                            x       y       z     vdW  Elec       q    Type
REMARK                         _______ _______ _______ _____ _____    ______ ____
ROOT
ATOM      1  C   UNL     1       5.281   3.709  17.875  0.00  0.00    +0.000 C 
ATOM      2  N   UNL     1       4.648   4.986  17.655  0.00  0.00    +0.000 N 
ATOM      3  C   UNL     1       5.217   6.108  17.118  0.00  0.00    +0.000 A 
ATOM      4  N   UNL     1       4.339   7.078  17.075  0.00  0.00    +0.000 NA
ATOM      5  N   UNL     1       3.160   6.588  17.579  0.00  0.00    +0.000 NA
ATOM      6  C   UNL     1       3.336   5.329  17.950  0.00  0.00    +0.000 A 
ENDROOT
BRANCH   6   7
ATOM      7  C   UNL     1       2.322   4.487  18.610  0.00  0.00    +0.000 A 
ATOM      8  C   UNL     1       1.868   3.319  17.974  0.00  0.00    +0.000 A 
ATOM      9  C   UNL     1       0.924   2.477  18.571  0.00  0.00    +0.000 A 
ATOM     10  C   UNL     1       0.445   2.762  19.843  0.00  0.00    +0.000 A 
ATOM     11  C   UNL     1       0.901   3.896  20.511  0.00  0.00    +0.000 A 
ATOM     12  C   UNL     1       1.827   4.757  19.902  0.00  0.00    +0.000 A 
ATOM     13 CL   UNL     1       2.286   6.157  20.808  0.00  0.00    +0.000 Cl
ENDBRANCH   6   7
BRANCH   3  14
ATOM     14  S   UNL     1       6.874   6.239  16.643  0.00  0.00    +0.000 S 
BRANCH  14  15
ATOM     15  C   UNL     1       7.150   4.593  15.927  0.00  0.00    +0.000 C 
BRANCH  15  16
ATOM     16  C   UNL     1       7.126   4.682  14.411  0.00  0.00    +0.000 C 
ATOM     17  O   UNL     1       7.724   5.558  13.793  0.00  0.00    +0.000 OA
ATOM     18  N   UNL     1       6.365   3.696  13.806  0.00  0.00    +0.000 N 
ATOM     19  H   UNL     1       5.740   3.153  14.400  0.00  0.00    +0.000 HD
BRANCH  18  20
ATOM     20  C   UNL     1       6.110   3.673  12.399  0.00  0.00    +0.000 C 
ATOM     21  C   UNL     1       5.942   2.367  11.675  0.00  0.00    +0.000 C 
ATOM     22  C   UNL     1       4.753   3.256  11.897  0.00  0.00    +0.000 C 
ENDBRANCH  18  20
ENDBRANCH  15  16
ENDBRANCH  14  15
ENDBRANCH   3  14
TORSDOF 5
ENDMDL
