MODEL 1
REMARK VINA RESULT:      -5.6      0.000      0.000
REMARK  Name = 
REMARK  10 active torsions:
REMARK  status: ('A' for Active; 'I' for Inactive)
REMARK    1  A    between atoms: C_1  and  O_2
REMARK    2  A    between atoms: O_2  and  C_3
REMARK    3  A    between atoms: C_8  and  O_9
REMARK    4  A    between atoms: C_15  and  O_16
REMARK    5  A    between atoms: O_16  and  C_17
REMARK    6  A    between atoms: C_18  and  O_19
REMARK    7  A    between atoms: O_19  and  C_20
REMARK    8  A    between atoms: C_21  and  O_22
REMARK    9  A    between atoms: O_22  and  C_23
REMARK   10  A    between atoms: C_28  and  C_29
REMARK                            x       y       z     vdW  Elec       q    Type
REMARK                         _______ _______ _______ _____ _____    ______ ____
ROOT
ATOM      1  C   UNL     1       1.052  16.832  18.329  0.00  0.00    +0.000 A 
ATOM      2  C   UNL     1      -0.277  16.599  18.665  0.00  0.00    +0.000 A 
ATOM      3  C   UNL     1      -0.635  15.396  19.318  0.00  0.00    +0.000 A 
ATOM      4  C   UNL     1       0.281  14.322  19.449  0.00  0.00    +0.000 A 
ATOM      5  C   UNL     1       1.611  14.547  19.081  0.00  0.00    +0.000 A 
ATOM      6  C   UNL     1       1.988  15.813  18.578  0.00  0.00    +0.000 A 
ATOM      7  C   UNL     1      -0.160  13.168  20.371  0.00  0.00    +0.000 C 
ATOM      8  C   UNL     1      -1.200  12.265  19.651  0.00  0.00    +0.000 C 
ATOM      9  C   UNL     1      -2.719  12.541  19.701  0.00  0.00    +0.000 C 
ATOM     10  C   UNL     1      -3.324  13.377  20.809  0.00  0.00    +0.000 A 
ATOM     11  C   UNL     1      -4.151  12.776  21.780  0.00  0.00    +0.000 A 
ATOM     12  C   UNL     1      -4.513  13.470  22.949  0.00  0.00    +0.000 A 
ATOM     13  C   UNL     1      -4.245  14.853  23.065  0.00  0.00    +0.000 A 
ATOM     14  C   UNL     1      -3.678  15.527  21.983  0.00  0.00    +0.000 A 
ATOM     15  C   UNL     1      -3.058  14.756  20.953  0.00  0.00    +0.000 A 
ATOM     16  C   UNL     1      -1.850  15.524  20.292  0.00  0.00    +0.000 C 
ATOM     17  C   UNL     1      -0.888  15.209  21.542  0.00  0.00    +0.000 C 
ATOM     18  N   UNL     1      -0.581  13.764  21.650  0.00  0.00    +0.000 N 
ATOM     19  C   UNL     1      -0.836  13.163  22.872  0.00  0.00    +0.000 C 
ATOM     20  C   UNL     1      -1.170  11.694  22.939  0.00  0.00    +0.000 C 
ATOM     21  O   UNL     1      -0.910  13.822  23.915  0.00  0.00    +0.000 OA
ENDROOT
BRANCH   1  23
ATOM     22  C   UNL     1       1.013  18.588  16.705  0.00  0.00    +0.000 C 
ATOM     23  O   UNL     1       1.548  18.037  17.903  0.00  0.00    +0.000 OA
ENDBRANCH   1  23
BRANCH   6  24
ATOM     24  O   UNL     1       3.319  16.096  18.393  0.00  0.00    +0.000 OA
ATOM     25  H   UNL     1       3.454  16.399  17.481  0.00  0.00    +0.000 HD
ENDBRANCH   6  24
BRANCH  12  26
ATOM     26  O   UNL     1      -5.137  12.912  24.032  0.00  0.00    +0.000 OA
ATOM     27  C   UNL     1      -6.539  12.700  24.039  0.00  0.00    +0.000 C 
ENDBRANCH  12  26
BRANCH  13  28
ATOM     28  O   UNL     1      -4.512  15.572  24.205  0.00  0.00    +0.000 OA
ATOM     29  C   UNL     1      -3.384  15.823  25.050  0.00  0.00    +0.000 C 
ENDBRANCH  13  28
BRANCH  14  30
ATOM     30  O   UNL     1      -3.481  16.871  21.792  0.00  0.00    +0.000 OA
ATOM     31  C   UNL     1      -4.584  17.699  21.451  0.00  0.00    +0.000 C 
ENDBRANCH  14  30
TORSDOF 5
ENDMDL
MODEL 2
REMARK VINA RESULT:      -5.4      2.455      4.931
REMARK  Name = 
REMARK  10 active torsions:
REMARK  status: ('A' for Active; 'I' for Inactive)
REMARK    1  A    between atoms: C_1  and  O_2
REMARK    2  A    between atoms: O_2  and  C_3
REMARK    3  A    between atoms: C_8  and  O_9
REMARK    4  A    between atoms: C_15  and  O_16
REMARK    5  A    between atoms: O_16  and  C_17
REMARK    6  A    between atoms: C_18  and  O_19
REMARK    7  A    between atoms: O_19  and  C_20
REMARK    8  A    between atoms: C_21  and  O_22
REMARK    9  A    between atoms: O_22  and  C_23
REMARK   10  A    between atoms: C_28  and  C_29
REMARK                            x       y       z     vdW  Elec       q    Type
REMARK                         _______ _______ _______ _____ _____    ______ ____
ROOT
ATOM      1  C   UNL     1       0.393  10.248  20.522  0.00  0.00    +0.000 A 
ATOM      2  C   UNL     1      -0.360  11.358  20.156  0.00  0.00    +0.000 A 
ATOM      3  C   UNL     1      -1.130  12.036  21.130  0.00  0.00    +0.000 A 
ATOM      4  C   UNL     1      -1.331  11.496  22.425  0.00  0.00    +0.000 A 
ATOM      5  C   UNL     1      -0.597  10.361  22.783  0.00  0.00    +0.000 A 
ATOM      6  C   UNL     1       0.293   9.787  21.846  0.00  0.00    +0.000 A 
ATOM      7  C   UNL     1      -1.995  12.435  23.452  0.00  0.00    +0.000 C 
ATOM      8  C   UNL     1      -3.524  12.527  23.193  0.00  0.00    +0.000 C 
ATOM      9  C   UNL     1      -4.146  13.564  22.231  0.00  0.00    +0.000 C 
ATOM     10  C   UNL     1      -3.403  14.833  21.867  0.00  0.00    +0.000 A 
ATOM     11  C   UNL     1      -3.866  16.082  22.328  0.00  0.00    +0.000 A 
ATOM     12  C   UNL     1      -3.064  17.233  22.219  0.00  0.00    +0.000 A 
ATOM     13  C   UNL     1      -1.882  17.204  21.445  0.00  0.00    +0.000 A 
ATOM     14  C   UNL     1      -1.559  16.042  20.743  0.00  0.00    +0.000 A 
ATOM     15  C   UNL     1      -2.213  14.826  21.108  0.00  0.00    +0.000 A 
ATOM     16  C   UNL     1      -1.287  13.571  20.878  0.00  0.00    +0.000 C 
ATOM     17  C   UNL     1      -0.436  13.880  22.208  0.00  0.00    +0.000 C 
ATOM     18  N   UNL     1      -1.248  13.703  23.434  0.00  0.00    +0.000 N 
ATOM     19  C   UNL     1      -1.285  14.772  24.316  0.00  0.00    +0.000 C 
ATOM     20  C   UNL     1      -2.484  14.979  25.205  0.00  0.00    +0.000 C 
ATOM     21  O   UNL     1      -0.403  15.639  24.321  0.00  0.00    +0.000 OA
ENDROOT
BRANCH   1  23
ATOM     22  C   UNL     1       1.128   9.666  18.322  0.00  0.00    +0.000 C 
ATOM     23  O   UNL     1       1.339   9.653  19.730  0.00  0.00    +0.000 OA
ENDBRANCH   1  23
BRANCH   6  24
ATOM     24  O   UNL     1       1.150   8.793  22.253  0.00  0.00    +0.000 OA
ATOM     25  H   UNL     1       1.605   8.430  21.476  0.00  0.00    +0.000 HD
ENDBRANCH   6  24
BRANCH  12  26
ATOM     26  O   UNL     1      -3.335  18.437  22.811  0.00  0.00    +0.000 OA
ATOM     27  C   UNL     1      -3.374  18.566  24.223  0.00  0.00    +0.000 C 
ENDBRANCH  12  26
BRANCH  13  28
ATOM     28  O   UNL     1      -1.022  18.272  21.354  0.00  0.00    +0.000 OA
ATOM     29  C   UNL     1       0.120  18.215  22.216  0.00  0.00    +0.000 C 
ENDBRANCH  13  28
BRANCH  14  30
ATOM     30  O   UNL     1      -0.577  15.825  19.810  0.00  0.00    +0.000 OA
ATOM     31  C   UNL     1      -0.597  16.553  18.590  0.00  0.00    +0.000 C 
ENDBRANCH  14  30
TORSDOF 5
ENDMDL
MODEL 3
REMARK VINA RESULT:      -5.4      9.554     12.777
REMARK  Name = 
REMARK  10 active torsions:
REMARK  status: ('A' for Active; 'I' for Inactive)
REMARK    1  A    between atoms: C_1  and  O_2
REMARK    2  A    between atoms: O_2  and  C_3
REMARK    3  A    between atoms: C_8  and  O_9
REMARK    4  A    between atoms: C_15  and  O_16
REMARK    5  A    between atoms: O_16  and  C_17
REMARK    6  A    between atoms: C_18  and  O_19
REMARK    7  A    between atoms: O_19  and  C_20
REMARK    8  A    between atoms: C_21  and  O_22
REMARK    9  A    between atoms: O_22  and  C_23
REMARK   10  A    between atoms: C_28  and  C_29
REMARK                            x       y       z     vdW  Elec       q    Type
REMARK                         _______ _______ _______ _____ _____    ______ ____
ROOT
ATOM      1  C   UNL     1       7.473  13.166  25.090  0.00  0.00    +0.000 A 
ATOM      2  C   UNL     1       8.585  13.752  24.497  0.00  0.00    +0.000 A 
ATOM      3  C   UNL     1       8.908  13.444  23.154  0.00  0.00    +0.000 A 
ATOM      4  C   UNL     1       8.261  12.392  22.457  0.00  0.00    +0.000 A 
ATOM      5  C   UNL     1       7.162  11.781  23.069  0.00  0.00    +0.000 A 
ATOM      6  C   UNL     1       6.751  12.213  24.351  0.00  0.00    +0.000 A 
ATOM      7  C   UNL     1       8.544  12.310  20.945  0.00  0.00    +0.000 C 
ATOM      8  C   UNL     1       9.947  11.691  20.688  0.00  0.00    +0.000 C 
ATOM      9  C   UNL     1      11.234  12.543  20.620  0.00  0.00    +0.000 C 
ATOM     10  C   UNL     1      11.173  14.025  20.314  0.00  0.00    +0.000 A 
ATOM     11  C   UNL     1      11.668  14.517  19.089  0.00  0.00    +0.000 A 
ATOM     12  C   UNL     1      11.395  15.834  18.678  0.00  0.00    +0.000 A 
ATOM     13  C   UNL     1      10.818  16.755  19.582  0.00  0.00    +0.000 A 
ATOM     14  C   UNL     1      10.585  16.357  20.899  0.00  0.00    +0.000 A 
ATOM     15  C   UNL     1      10.588  14.960  21.195  0.00  0.00    +0.000 A 
ATOM     16  C   UNL     1       9.597  14.607  22.370  0.00  0.00    +0.000 C 
ATOM     17  C   UNL     1       8.316  14.719  21.403  0.00  0.00    +0.000 C 
ATOM     18  N   UNL     1       8.304  13.648  20.380  0.00  0.00    +0.000 N 
ATOM     19  C   UNL     1       8.187  14.050  19.058  0.00  0.00    +0.000 C 
ATOM     20  C   UNL     1       8.771  13.204  17.955  0.00  0.00    +0.000 C 
ATOM     21  O   UNL     1       7.712  15.150  18.755  0.00  0.00    +0.000 OA
ENDROOT
BRANCH   1  23
ATOM     22  C   UNL     1       7.757  14.317  27.167  0.00  0.00    +0.000 C 
ATOM     23  O   UNL     1       6.938  13.551  26.291  0.00  0.00    +0.000 OA
ENDBRANCH   1  23
BRANCH   6  24
ATOM     24  O   UNL     1       5.567  11.750  24.871  0.00  0.00    +0.000 OA
ATOM     25  H   UNL     1       5.194  11.088  24.267  0.00  0.00    +0.000 HD
ENDBRANCH   6  24
BRANCH  12  26
ATOM     26  O   UNL     1      11.655  16.338  17.432  0.00  0.00    +0.000 OA
ATOM     27  C   UNL     1      10.833  16.006  16.324  0.00  0.00    +0.000 C 
ENDBRANCH  12  26
BRANCH  13  28
ATOM     28  O   UNL     1      10.466  18.034  19.223  0.00  0.00    +0.000 OA
ATOM     29  C   UNL     1       9.097  18.209  18.843  0.00  0.00    +0.000 C 
ENDBRANCH  13  28
BRANCH  14  30
ATOM     30  O   UNL     1      10.198  17.100  21.985  0.00  0.00    +0.000 OA
ATOM     31  C   UNL     1      11.156  17.901  22.662  0.00  0.00    +0.000 C 
ENDBRANCH  14  30
TORSDOF 5
ENDMDL
MODEL 4
REMARK VINA RESULT:      -5.4      2.975      4.221
REMARK  Name = 
REMARK  10 active torsions:
REMARK  status: ('A' for Active; 'I' for Inactive)
REMARK    1  A    between atoms: C_1  and  O_2
REMARK    2  A    between atoms: O_2  and  C_3
REMARK    3  A    between atoms: C_8  and  O_9
REMARK    4  A    between atoms: C_15  and  O_16
REMARK    5  A    between atoms: O_16  and  C_17
REMARK    6  A    between atoms: C_18  and  O_19
REMARK    7  A    between atoms: O_19  and  C_20
REMARK    8  A    between atoms: C_21  and  O_22
REMARK    9  A    between atoms: O_22  and  C_23
REMARK   10  A    between atoms: C_28  and  C_29
REMARK                            x       y       z     vdW  Elec       q    Type
REMARK                         _______ _______ _______ _____ _____    ______ ____
ROOT
ATOM      1  C   UNL     1      -1.897  11.209  18.055  0.00  0.00    +0.000 A 
ATOM      2  C   UNL     1      -2.946  11.699  18.825  0.00  0.00    +0.000 A 
ATOM      3  C   UNL     1      -2.697  12.158  20.139  0.00  0.00    +0.000 A 
ATOM      4  C   UNL     1      -1.452  11.936  20.780  0.00  0.00    +0.000 A 
ATOM      5  C   UNL     1      -0.405  11.413  20.014  0.00  0.00    +0.000 A 
ATOM      6  C   UNL     1      -0.628  11.109  18.651  0.00  0.00    +0.000 A 
ATOM      7  C   UNL     1      -1.238  12.678  22.114  0.00  0.00    +0.000 C 
ATOM      8  C   UNL     1      -2.015  11.971  23.259  0.00  0.00    +0.000 C 
ATOM      9  C   UNL     1      -3.482  12.310  23.604  0.00  0.00    +0.000 C 
ATOM     10  C   UNL     1      -4.090  13.639  23.206  0.00  0.00    +0.000 A 
ATOM     11  C   UNL     1      -4.413  14.594  24.191  0.00  0.00    +0.000 A 
ATOM     12  C   UNL     1      -4.736  15.916  23.835  0.00  0.00    +0.000 A 
ATOM     13  C   UNL     1      -4.964  16.251  22.481  0.00  0.00    +0.000 A 
ATOM     14  C   UNL     1      -4.927  15.242  21.517  0.00  0.00    +0.000 A 
ATOM     15  C   UNL     1      -4.312  14.000  21.860  0.00  0.00    +0.000 A 
ATOM     16  C   UNL     1      -3.635  13.317  20.610  0.00  0.00    +0.000 C 
ATOM     17  C   UNL     1      -2.376  14.316  20.670  0.00  0.00    +0.000 C 
ATOM     18  N   UNL     1      -1.556  14.097  21.884  0.00  0.00    +0.000 N 
ATOM     19  C   UNL     1      -1.305  15.207  22.675  0.00  0.00    +0.000 C 
ATOM     20  C   UNL     1      -1.067  15.043  24.155  0.00  0.00    +0.000 C 
ATOM     21  O   UNL     1      -1.382  16.355  22.224  0.00  0.00    +0.000 OA
ENDROOT
BRANCH   1  23
ATOM     22  C   UNL     1      -2.934   9.998  16.273  0.00  0.00    +0.000 C 
ATOM     23  O   UNL     1      -1.971  10.950  16.712  0.00  0.00    +0.000 OA
ENDBRANCH   1  23
BRANCH   6  24
ATOM     24  O   UNL     1       0.439  10.775  17.853  0.00  0.00    +0.000 OA
ATOM     25  H   UNL     1       0.128  10.664  16.940  0.00  0.00    +0.000 HD
ENDBRANCH   6  24
BRANCH  12  26
ATOM     26  O   UNL     1      -4.867  16.957  24.714  0.00  0.00    +0.000 OA
ATOM     27  C   UNL     1      -3.727  17.585  25.277  0.00  0.00    +0.000 C 
ENDBRANCH  12  26
BRANCH  13  28
ATOM     28  O   UNL     1      -5.216  17.535  22.061  0.00  0.00    +0.000 OA
ATOM     29  C   UNL     1      -4.090  18.235  21.521  0.00  0.00    +0.000 C 
ENDBRANCH  13  28
BRANCH  14  30
ATOM     30  O   UNL     1      -5.271  15.284  20.190  0.00  0.00    +0.000 OA
ATOM     31  C   UNL     1      -6.644  15.267  19.823  0.00  0.00    +0.000 C 
ENDBRANCH  14  30
TORSDOF 5
ENDMDL
MODEL 5
REMARK VINA RESULT:      -5.3      4.511      6.930
REMARK  Name = 
REMARK  10 active torsions:
REMARK  status: ('A' for Active; 'I' for Inactive)
REMARK    1  A    between atoms: C_1  and  O_2
REMARK    2  A    between atoms: O_2  and  C_3
REMARK    3  A    between atoms: C_8  and  O_9
REMARK    4  A    between atoms: C_15  and  O_16
REMARK    5  A    between atoms: O_16  and  C_17
REMARK    6  A    between atoms: C_18  and  O_19
REMARK    7  A    between atoms: O_19  and  C_20
REMARK    8  A    between atoms: C_21  and  O_22
REMARK    9  A    between atoms: O_22  and  C_23
REMARK   10  A    between atoms: C_28  and  C_29
REMARK                            x       y       z     vdW  Elec       q    Type
REMARK                         _______ _______ _______ _____ _____    ______ ____
ROOT
ATOM      1  C   UNL     1       2.274   6.606  19.874  0.00  0.00    +0.000 A 
ATOM      2  C   UNL     1       1.984   7.676  20.713  0.00  0.00    +0.000 A 
ATOM      3  C   UNL     1       1.608   8.921  20.157  0.00  0.00    +0.000 A 
ATOM      4  C   UNL     1       1.723   9.180  18.768  0.00  0.00    +0.000 A 
ATOM      5  C   UNL     1       2.046   8.109  17.927  0.00  0.00    +0.000 A 
ATOM      6  C   UNL     1       2.263   6.829  18.486  0.00  0.00    +0.000 A 
ATOM      7  C   UNL     1       1.073  10.484  18.267  0.00  0.00    +0.000 C 
ATOM      8  C   UNL     1       1.963  11.706  18.625  0.00  0.00    +0.000 C 
ATOM      9  C   UNL     1       1.840  12.464  19.965  0.00  0.00    +0.000 C 
ATOM     10  C   UNL     1       0.570  12.394  20.787  0.00  0.00    +0.000 A 
ATOM     11  C   UNL     1      -0.253  13.531  20.918  0.00  0.00    +0.000 A 
ATOM     12  C   UNL     1      -1.549  13.424  21.455  0.00  0.00    +0.000 A 
ATOM     13  C   UNL     1      -1.963  12.226  22.079  0.00  0.00    +0.000 A 
ATOM     14  C   UNL     1      -1.050  11.179  22.211  0.00  0.00    +0.000 A 
ATOM     15  C   UNL     1       0.130  11.204  21.407  0.00  0.00    +0.000 A 
ATOM     16  C   UNL     1       0.618   9.751  21.037  0.00  0.00    +0.000 C 
ATOM     17  C   UNL     1      -0.523   9.588  19.915  0.00  0.00    +0.000 C 
ATOM     18  N   UNL     1      -0.309  10.508  18.774  0.00  0.00    +0.000 N 
ATOM     19  C   UNL     1      -1.373  11.325  18.425  0.00  0.00    +0.000 C 
ATOM     20  C   UNL     1      -1.119  12.661  17.773  0.00  0.00    +0.000 C 
ATOM     21  O   UNL     1      -2.535  11.044  18.736  0.00  0.00    +0.000 OA
ENDROOT
BRANCH   1  23
ATOM     22  C   UNL     1       1.255   4.566  20.594  0.00  0.00    +0.000 C 
ATOM     23  O   UNL     1       2.430   5.310  20.290  0.00  0.00    +0.000 OA
ENDBRANCH   1  23
BRANCH   6  24
ATOM     24  O   UNL     1       2.394   5.744  17.654  0.00  0.00    +0.000 OA
ATOM     25  H   UNL     1       1.968   4.976  18.066  0.00  0.00    +0.000 HD
ENDBRANCH   6  24
BRANCH  12  26
ATOM     26  O   UNL     1      -2.490  14.419  21.439  0.00  0.00    +0.000 OA
ATOM     27  C   UNL     1      -2.277  15.637  22.134  0.00  0.00    +0.000 C 
ENDBRANCH  12  26
BRANCH  13  28
ATOM     28  O   UNL     1      -3.235  12.036  22.563  0.00  0.00    +0.000 OA
ATOM     29  C   UNL     1      -3.424  12.375  23.941  0.00  0.00    +0.000 C 
ENDBRANCH  13  28
BRANCH  14  30
ATOM     30  O   UNL     1      -1.156  10.005  22.911  0.00  0.00    +0.000 OA
ATOM     31  C   UNL     1      -0.073   9.572  23.722  0.00  0.00    +0.000 C 
ENDBRANCH  14  30
TORSDOF 5
ENDMDL
MODEL 6
REMARK VINA RESULT:      -5.3      2.582      5.148
REMARK  Name = 
REMARK  10 active torsions:
REMARK  status: ('A' for Active; 'I' for Inactive)
REMARK    1  A    between atoms: C_1  and  O_2
REMARK    2  A    between atoms: O_2  and  C_3
REMARK    3  A    between atoms: C_8  and  O_9
REMARK    4  A    between atoms: C_15  and  O_16
REMARK    5  A    between atoms: O_16  and  C_17
REMARK    6  A    between atoms: C_18  and  O_19
REMARK    7  A    between atoms: O_19  and  C_20
REMARK    8  A    between atoms: C_21  and  O_22
REMARK    9  A    between atoms: O_22  and  C_23
REMARK   10  A    between atoms: C_28  and  C_29
REMARK                            x       y       z     vdW  Elec       q    Type
REMARK                         _______ _______ _______ _____ _____    ______ ____
ROOT
ATOM      1  C   UNL     1       0.633   9.725  20.229  0.00  0.00    +0.000 A 
ATOM      2  C   UNL     1      -0.169  10.784  19.817  0.00  0.00    +0.000 A 
ATOM      3  C   UNL     1      -0.860  11.556  20.780  0.00  0.00    +0.000 A 
ATOM      4  C   UNL     1      -0.936  11.155  22.138  0.00  0.00    +0.000 A 
ATOM      5  C   UNL     1      -0.153  10.070  22.545  0.00  0.00    +0.000 A 
ATOM      6  C   UNL     1       0.660   9.406  21.597  0.00  0.00    +0.000 A 
ATOM      7  C   UNL     1      -1.521  12.192  23.117  0.00  0.00    +0.000 C 
ATOM      8  C   UNL     1      -3.069  12.245  22.990  0.00  0.00    +0.000 C 
ATOM      9  C   UNL     1      -3.791  13.169  21.984  0.00  0.00    +0.000 C 
ATOM     10  C   UNL     1      -3.106  14.398  21.422  0.00  0.00    +0.000 A 
ATOM     11  C   UNL     1      -3.548  15.685  21.790  0.00  0.00    +0.000 A 
ATOM     12  C   UNL     1      -2.778  16.824  21.489  0.00  0.00    +0.000 A 
ATOM     13  C   UNL     1      -1.670  16.722  20.618  0.00  0.00    +0.000 A 
ATOM     14  C   UNL     1      -1.392  15.494  20.015  0.00  0.00    +0.000 A 
ATOM     15  C   UNL     1      -1.989  14.319  20.563  0.00  0.00    +0.000 A 
ATOM     16  C   UNL     1      -1.066  13.054  20.384  0.00  0.00    +0.000 C 
ATOM     17  C   UNL     1      -0.105  13.509  21.591  0.00  0.00    +0.000 C 
ATOM     18  N   UNL     1      -0.801  13.458  22.898  0.00  0.00    +0.000 N 
ATOM     19  C   UNL     1      -0.777  14.613  23.662  0.00  0.00    +0.000 C 
ATOM     20  C   UNL     1      -1.896  14.905  24.630  0.00  0.00    +0.000 C 
ATOM     21  O   UNL     1       0.086  15.482  23.497  0.00  0.00    +0.000 OA
ENDROOT
BRANCH   1  23
ATOM     22  C   UNL     1       1.507   9.366  18.032  0.00  0.00    +0.000 C 
ATOM     23  O   UNL     1       1.514   9.056  19.421  0.00  0.00    +0.000 OA
ENDBRANCH   1  23
BRANCH   6  24
ATOM     24  O   UNL     1       1.566   8.467  22.027  0.00  0.00    +0.000 OA
ATOM     25  H   UNL     1       1.201   7.582  21.873  0.00  0.00    +0.000 HD
ENDBRANCH   6  24
BRANCH  12  26
ATOM     26  O   UNL     1      -3.016  18.082  21.972  0.00  0.00    +0.000 OA
ATOM     27  C   UNL     1      -2.704  18.420  23.314  0.00  0.00    +0.000 C 
ENDBRANCH  12  26
BRANCH  13  28
ATOM     28  O   UNL     1      -0.840  17.781  20.337  0.00  0.00    +0.000 OA
ATOM     29  C   UNL     1      -1.265  18.622  19.260  0.00  0.00    +0.000 C 
ENDBRANCH  13  28
BRANCH  14  30
ATOM     30  O   UNL     1      -0.493  15.187  19.025  0.00  0.00    +0.000 OA
ATOM     31  C   UNL     1       0.830  15.700  19.097  0.00  0.00    +0.000 C 
ENDBRANCH  14  30
TORSDOF 5
ENDMDL
MODEL 7
REMARK VINA RESULT:      -5.2      2.200      7.006
REMARK  Name = 
REMARK  10 active torsions:
REMARK  status: ('A' for Active; 'I' for Inactive)
REMARK    1  A    between atoms: C_1  and  O_2
REMARK    2  A    between atoms: O_2  and  C_3
REMARK    3  A    between atoms: C_8  and  O_9
REMARK    4  A    between atoms: C_15  and  O_16
REMARK    5  A    between atoms: O_16  and  C_17
REMARK    6  A    between atoms: C_18  and  O_19
REMARK    7  A    between atoms: O_19  and  C_20
REMARK    8  A    between atoms: C_21  and  O_22
REMARK    9  A    between atoms: O_22  and  C_23
REMARK   10  A    between atoms: C_28  and  C_29
REMARK                            x       y       z     vdW  Elec       q    Type
REMARK                         _______ _______ _______ _____ _____    ______ ____
ROOT
ATOM      1  C   UNL     1      -6.652  12.485  22.328  0.00  0.00    +0.000 A 
ATOM      2  C   UNL     1      -5.741  12.675  21.295  0.00  0.00    +0.000 A 
ATOM      3  C   UNL     1      -4.626  13.523  21.491  0.00  0.00    +0.000 A 
ATOM      4  C   UNL     1      -4.519  14.358  22.632  0.00  0.00    +0.000 A 
ATOM      5  C   UNL     1      -5.455  14.189  23.657  0.00  0.00    +0.000 A 
ATOM      6  C   UNL     1      -6.474  13.219  23.513  0.00  0.00    +0.000 A 
ATOM      7  C   UNL     1      -3.160  15.057  22.832  0.00  0.00    +0.000 C 
ATOM      8  C   UNL     1      -3.025  16.267  21.867  0.00  0.00    +0.000 C 
ATOM      9  C   UNL     1      -2.453  16.133  20.438  0.00  0.00    +0.000 C 
ATOM     10  C   UNL     1      -1.560  14.969  20.061  0.00  0.00    +0.000 A 
ATOM     11  C   UNL     1      -0.193  15.183  19.791  0.00  0.00    +0.000 A 
ATOM     12  C   UNL     1       0.700  14.100  19.690  0.00  0.00    +0.000 A 
ATOM     13  C   UNL     1       0.207  12.777  19.631  0.00  0.00    +0.000 A 
ATOM     14  C   UNL     1      -1.173  12.567  19.608  0.00  0.00    +0.000 A 
ATOM     15  C   UNL     1      -2.027  13.638  20.010  0.00  0.00    +0.000 A 
ATOM     16  C   UNL     1      -3.349  13.111  20.689  0.00  0.00    +0.000 C 
ATOM     17  C   UNL     1      -2.583  12.788  22.067  0.00  0.00    +0.000 C 
ATOM     18  N   UNL     1      -2.116  14.023  22.739  0.00  0.00    +0.000 N 
ATOM     19  C   UNL     1      -0.772  14.080  23.074  0.00  0.00    +0.000 C 
ATOM     20  C   UNL     1      -0.068  15.410  23.158  0.00  0.00    +0.000 C 
ATOM     21  O   UNL     1      -0.092  13.056  23.200  0.00  0.00    +0.000 OA
ENDROOT
BRANCH   1  23
ATOM     22  C   UNL     1      -7.917  10.861  21.110  0.00  0.00    +0.000 C 
ATOM     23  O   UNL     1      -7.633  11.529  22.334  0.00  0.00    +0.000 OA
ENDBRANCH   1  23
BRANCH   6  24
ATOM     24  O   UNL     1      -7.276  12.920  24.588  0.00  0.00    +0.000 OA
ATOM     25  H   UNL     1      -7.121  12.000  24.852  0.00  0.00    +0.000 HD
ENDBRANCH   6  24
BRANCH  12  26
ATOM     26  O   UNL     1       2.063  14.210  19.632  0.00  0.00    +0.000 OA
ATOM     27  C   UNL     1       2.856  14.087  20.801  0.00  0.00    +0.000 C 
ENDBRANCH  12  26
BRANCH  13  28
ATOM     28  O   UNL     1       1.027  11.675  19.599  0.00  0.00    +0.000 OA
ATOM     29  C   UNL     1       0.948  10.820  20.745  0.00  0.00    +0.000 C 
ENDBRANCH  13  28
BRANCH  14  30
ATOM     30  O   UNL     1      -1.881  11.414  19.390  0.00  0.00    +0.000 OA
ATOM     31  C   UNL     1      -2.044  10.933  18.062  0.00  0.00    +0.000 C 
ENDBRANCH  14  30
TORSDOF 5
ENDMDL
MODEL 8
REMARK VINA RESULT:      -5.2      2.640      4.588
REMARK  Name = 
REMARK  10 active torsions:
REMARK  status: ('A' for Active; 'I' for Inactive)
REMARK    1  A    between atoms: C_1  and  O_2
REMARK    2  A    between atoms: O_2  and  C_3
REMARK    3  A    between atoms: C_8  and  O_9
REMARK    4  A    between atoms: C_15  and  O_16
REMARK    5  A    between atoms: O_16  and  C_17
REMARK    6  A    between atoms: C_18  and  O_19
REMARK    7  A    between atoms: O_19  and  C_20
REMARK    8  A    between atoms: C_21  and  O_22
REMARK    9  A    between atoms: O_22  and  C_23
REMARK   10  A    between atoms: C_28  and  C_29
REMARK                            x       y       z     vdW  Elec       q    Type
REMARK                         _______ _______ _______ _____ _____    ______ ____
ROOT
ATOM      1  C   UNL     1      -3.872  11.579  17.824  0.00  0.00    +0.000 A 
ATOM      2  C   UNL     1      -4.135  11.856  19.161  0.00  0.00    +0.000 A 
ATOM      3  C   UNL     1      -3.080  12.256  20.014  0.00  0.00    +0.000 A 
ATOM      4  C   UNL     1      -1.724  12.176  19.607  0.00  0.00    +0.000 A 
ATOM      5  C   UNL     1      -1.460  11.865  18.270  0.00  0.00    +0.000 A 
ATOM      6  C   UNL     1      -2.537  11.625  17.387  0.00  0.00    +0.000 A 
ATOM      7  C   UNL     1      -0.698  12.849  20.540  0.00  0.00    +0.000 C 
ATOM      8  C   UNL     1      -0.434  11.959  21.787  0.00  0.00    +0.000 C 
ATOM      9  C   UNL     1      -1.281  12.056  23.075  0.00  0.00    +0.000 C 
ATOM     10  C   UNL     1      -2.075  13.305  23.394  0.00  0.00    +0.000 A 
ATOM     11  C   UNL     1      -1.691  14.133  24.469  0.00  0.00    +0.000 A 
ATOM     12  C   UNL     1      -2.250  15.415  24.626  0.00  0.00    +0.000 A 
ATOM     13  C   UNL     1      -3.364  15.805  23.848  0.00  0.00    +0.000 A 
ATOM     14  C   UNL     1      -3.937  14.880  22.974  0.00  0.00    +0.000 A 
ATOM     15  C   UNL     1      -3.182  13.721  22.623  0.00  0.00    +0.000 A 
ATOM     16  C   UNL     1      -3.507  13.231  21.159  0.00  0.00    +0.000 C 
ATOM     17  C   UNL     1      -2.613  14.397  20.505  0.00  0.00    +0.000 C 
ATOM     18  N   UNL     1      -1.173  14.218  20.800  0.00  0.00    +0.000 N 
ATOM     19  C   UNL     1      -0.515  15.296  21.371  0.00  0.00    +0.000 C 
ATOM     20  C   UNL     1       0.683  15.069  22.258  0.00  0.00    +0.000 C 
ATOM     21  O   UNL     1      -0.949  16.449  21.268  0.00  0.00    +0.000 OA
ENDROOT
BRANCH   1  23
ATOM     22  C   UNL     1      -6.103  12.009  17.075  0.00  0.00    +0.000 C 
ATOM     23  O   UNL     1      -4.832  11.403  16.862  0.00  0.00    +0.000 OA
ENDBRANCH   1  23
BRANCH   6  24
ATOM     24  O   UNL     1      -2.292  11.506  16.040  0.00  0.00    +0.000 OA
ATOM     25  H   UNL     1      -3.058  11.842  15.548  0.00  0.00    +0.000 HD
ENDBRANCH   6  24
BRANCH  12  26
ATOM     26  O   UNL     1      -1.803  16.363  25.506  0.00  0.00    +0.000 OA
ATOM     27  C   UNL     1      -0.462  16.820  25.470  0.00  0.00    +0.000 C 
ENDBRANCH  12  26
BRANCH  13  28
ATOM     28  O   UNL     1      -3.912  17.063  23.906  0.00  0.00    +0.000 OA
ATOM     29  C   UNL     1      -4.899  17.255  24.926  0.00  0.00    +0.000 C 
ENDBRANCH  13  28
BRANCH  14  30
ATOM     30  O   UNL     1      -5.100  14.961  22.251  0.00  0.00    +0.000 OA
ATOM     31  C   UNL     1      -6.331  14.601  22.863  0.00  0.00    +0.000 C 
ENDBRANCH  14  30
TORSDOF 5
ENDMDL
MODEL 9
REMARK VINA RESULT:      -5.1      3.402      6.862
REMARK  Name = 
REMARK  10 active torsions:
REMARK  status: ('A' for Active; 'I' for Inactive)
REMARK    1  A    between atoms: C_1  and  O_2
REMARK    2  A    between atoms: O_2  and  C_3
REMARK    3  A    between atoms: C_8  and  O_9
REMARK    4  A    between atoms: C_15  and  O_16
REMARK    5  A    between atoms: O_16  and  C_17
REMARK    6  A    between atoms: C_18  and  O_19
REMARK    7  A    between atoms: O_19  and  C_20
REMARK    8  A    between atoms: C_21  and  O_22
REMARK    9  A    between atoms: O_22  and  C_23
REMARK   10  A    between atoms: C_28  and  C_29
REMARK                            x       y       z     vdW  Elec       q    Type
REMARK                         _______ _______ _______ _____ _____    ______ ____
ROOT
ATOM      1  C   UNL     1       2.005   8.347  19.367  0.00  0.00    +0.000 A 
ATOM      2  C   UNL     1       1.929   9.549  18.672  0.00  0.00    +0.000 A 
ATOM      3  C   UNL     1       1.073  10.575  19.138  0.00  0.00    +0.000 A 
ATOM      4  C   UNL     1       0.127  10.343  20.168  0.00  0.00    +0.000 A 
ATOM      5  C   UNL     1       0.184   9.121  20.845  0.00  0.00    +0.000 A 
ATOM      6  C   UNL     1       1.155   8.164  20.471  0.00  0.00    +0.000 A 
ATOM      7  C   UNL     1      -0.579  11.592  20.730  0.00  0.00    +0.000 C 
ATOM      8  C   UNL     1      -1.683  12.079  19.751  0.00  0.00    +0.000 C 
ATOM      9  C   UNL     1      -1.400  13.074  18.604  0.00  0.00    +0.000 C 
ATOM     10  C   UNL     1      -0.197  13.993  18.647  0.00  0.00    +0.000 A 
ATOM     11  C   UNL     1      -0.372  15.382  18.816  0.00  0.00    +0.000 A 
ATOM     12  C   UNL     1       0.722  16.215  19.112  0.00  0.00    +0.000 A 
ATOM     13  C   UNL     1       2.041  15.715  19.021  0.00  0.00    +0.000 A 
ATOM     14  C   UNL     1       2.242  14.409  18.573  0.00  0.00    +0.000 A 
ATOM     15  C   UNL     1       1.129  13.514  18.573  0.00  0.00    +0.000 A 
ATOM     16  C   UNL     1       1.575  12.024  18.835  0.00  0.00    +0.000 C 
ATOM     17  C   UNL     1       1.761  12.293  20.410  0.00  0.00    +0.000 C 
ATOM     18  N   UNL     1       0.467  12.568  21.078  0.00  0.00    +0.000 N 
ATOM     19  C   UNL     1       0.386  13.734  21.823  0.00  0.00    +0.000 C 
ATOM     20  C   UNL     1      -0.941  14.427  22.004  0.00  0.00    +0.000 C 
ATOM     21  O   UNL     1       1.397  14.297  22.258  0.00  0.00    +0.000 OA
ENDROOT
BRANCH   1  23
ATOM     22  C   UNL     1       2.652   6.371  18.186  0.00  0.00    +0.000 C 
ATOM     23  O   UNL     1       2.949   7.379  19.146  0.00  0.00    +0.000 OA
ENDBRANCH   1  23
BRANCH   6  24
ATOM     24  O   UNL     1       1.337   7.048  21.251  0.00  0.00    +0.000 OA
ATOM     25  H   UNL     1       0.671   6.384  21.012  0.00  0.00    +0.000 HD
ENDBRANCH   6  24
BRANCH  12  26
ATOM     26  O   UNL     1       0.629  17.528  19.488  0.00  0.00    +0.000 OA
ATOM     27  C   UNL     1       0.122  17.889  20.762  0.00  0.00    +0.000 C 
ENDBRANCH  12  26
BRANCH  13  28
ATOM     28  O   UNL     1       3.146  16.457  19.361  0.00  0.00    +0.000 OA
ATOM     29  C   UNL     1       3.570  16.336  20.723  0.00  0.00    +0.000 C 
ENDBRANCH  13  28
BRANCH  14  30
ATOM     30  O   UNL     1       3.407  13.763  18.247  0.00  0.00    +0.000 OA
ATOM     31  C   UNL     1       4.516  14.515  17.776  0.00  0.00    +0.000 C 
ENDBRANCH  14  30
TORSDOF 5
ENDMDL
