MODEL 1
REMARK VINA RESULT:      -9.5      0.000      0.000
REMARK  Name = 
REMARK  4 active torsions:
REMARK  status: ('A' for Active; 'I' for Inactive)
REMARK    1  A    between atoms: C_1  and  O_2
REMARK    2  A    between atoms: O_2  and  C_3
REMARK    3  A    between atoms: C_8  and  N_9
REMARK    4  A    between atoms: N_12  and  C_13
REMARK                            x       y       z     vdW  Elec       q    Type
REMARK                         _______ _______ _______ _____ _____    ______ ____
ROOT
ATOM      1  C   UNL     1       6.201   5.665  16.425  0.00  0.00    +0.000 A 
ATOM      2  C   UNL     1       5.319   4.569  16.562  0.00  0.00    +0.000 A 
ATOM      3  C   UNL     1       4.243   4.661  17.460  0.00  0.00    +0.000 A 
ATOM      4  C   UNL     1       4.057   5.850  18.142  0.00  0.00    +0.000 A 
ATOM      5  C   UNL     1       4.852   6.978  17.973  0.00  0.00    +0.000 A 
ATOM      6  C   UNL     1       5.956   6.881  17.108  0.00  0.00    +0.000 A 
ATOM      7  O   UNL     1       2.997   5.759  18.990  0.00  0.00    +0.000 OA
ATOM      8  C   UNL     1       2.492   4.504  18.856  0.00  0.00    +0.000 A 
ATOM      9  C   UNL     1       1.412   3.993  19.570  0.00  0.00    +0.000 A 
ATOM     10  C   UNL     1       1.029   2.682  19.267  0.00  0.00    +0.000 A 
ATOM     11  C   UNL     1       1.705   1.939  18.294  0.00  0.00    +0.000 A 
ATOM     12  C   UNL     1       2.799   2.477  17.603  0.00  0.00    +0.000 A 
ATOM     13  C   UNL     1       3.204   3.791  17.899  0.00  0.00    +0.000 A 
ENDROOT
BRANCH   6  14
ATOM     14  N   UNL     1       6.814   8.004  16.894  0.00  0.00    +0.000 N 
ATOM     15  C   UNL     1       7.837   8.381  17.757  0.00  0.00    +0.000 C 
ATOM     16  O   UNL     1       8.251   7.662  18.659  0.00  0.00    +0.000 OA
ATOM     17  N   UNL     1       8.319   9.658  17.507  0.00  0.00    +0.000 N 
ATOM     18  H   UNL     1       6.799   8.385  15.957  0.00  0.00    +0.000 HD
ATOM     19  H   UNL     1       7.901  10.161  16.739  0.00  0.00    +0.000 HD
BRANCH  17  20
ATOM     20  C   UNL     1       9.282  10.357  18.288  0.00  0.00    +0.000 A 
ATOM     21  C   UNL     1       9.243  10.437  19.688  0.00  0.00    +0.000 A 
ATOM     22  C   UNL     1      10.203  11.161  20.404  0.00  0.00    +0.000 A 
ATOM     23  C   UNL     1      11.220  11.808  19.726  0.00  0.00    +0.000 A 
ATOM     24  F   UNL     1      12.138  12.508  20.400  0.00  0.00    +0.000 F 
ATOM     25  C   UNL     1      11.287  11.744  18.336  0.00  0.00    +0.000 A 
ATOM     26  C   UNL     1      10.321  11.022  17.618  0.00  0.00    +0.000 A 
ENDBRANCH  17  20
ENDBRANCH   6  14
BRANCH   1  28
ATOM     27  C   UNL     1       7.144   4.895  14.398  0.00  0.00    +0.000 C 
ATOM     28  O   UNL     1       7.331   5.594  15.635  0.00  0.00    +0.000 OA
ENDBRANCH   1  28
TORSDOF 3
ENDMDL
MODEL 2
REMARK VINA RESULT:      -7.9      5.343      7.395
REMARK  Name = 
REMARK  4 active torsions:
REMARK  status: ('A' for Active; 'I' for Inactive)
REMARK    1  A    between atoms: C_1  and  O_2
REMARK    2  A    between atoms: O_2  and  C_3
REMARK    3  A    between atoms: C_8  and  N_9
REMARK    4  A    between atoms: N_12  and  C_13
REMARK                            x       y       z     vdW  Elec       q    Type
REMARK                         _______ _______ _______ _____ _____    ______ ____
ROOT
ATOM      1  C   UNL     1       2.650   5.208  20.065  0.00  0.00    +0.000 A 
ATOM      2  C   UNL     1       1.814   6.046  20.836  0.00  0.00    +0.000 A 
ATOM      3  C   UNL     1       1.561   7.356  20.399  0.00  0.00    +0.000 A 
ATOM      4  C   UNL     1       2.102   7.762  19.192  0.00  0.00    +0.000 A 
ATOM      5  C   UNL     1       2.860   6.941  18.364  0.00  0.00    +0.000 A 
ATOM      6  C   UNL     1       3.153   5.643  18.815  0.00  0.00    +0.000 A 
ATOM      7  O   UNL     1       1.789   9.060  18.935  0.00  0.00    +0.000 OA
ATOM      8  C   UNL     1       1.039   9.499  19.980  0.00  0.00    +0.000 A 
ATOM      9  C   UNL     1       0.535  10.789  20.121  0.00  0.00    +0.000 A 
ATOM     10  C   UNL     1      -0.239  11.035  21.260  0.00  0.00    +0.000 A 
ATOM     11  C   UNL     1      -0.483  10.028  22.198  0.00  0.00    +0.000 A 
ATOM     12  C   UNL     1       0.053   8.742  22.036  0.00  0.00    +0.000 A 
ATOM     13  C   UNL     1       0.838   8.477  20.901  0.00  0.00    +0.000 A 
ENDROOT
BRANCH   6  14
ATOM     14  N   UNL     1       3.931   4.752  18.011  0.00  0.00    +0.000 N 
ATOM     15  C   UNL     1       4.690   5.150  16.915  0.00  0.00    +0.000 C 
ATOM     16  O   UNL     1       4.949   6.323  16.670  0.00  0.00    +0.000 OA
ATOM     17  N   UNL     1       5.098   4.088  16.120  0.00  0.00    +0.000 N 
ATOM     18  H   UNL     1       4.098   3.841  18.415  0.00  0.00    +0.000 HD
ATOM     19  H   UNL     1       4.824   3.164  16.417  0.00  0.00    +0.000 HD
BRANCH  17  20
ATOM     20  C   UNL     1       5.787   4.189  14.879  0.00  0.00    +0.000 A 
ATOM     21  C   UNL     1       6.970   4.921  14.699  0.00  0.00    +0.000 A 
ATOM     22  C   UNL     1       7.593   5.007  13.449  0.00  0.00    +0.000 A 
ATOM     23  C   UNL     1       7.040   4.353  12.363  0.00  0.00    +0.000 A 
ATOM     24  F   UNL     1       7.623   4.435  11.162  0.00  0.00    +0.000 F 
ATOM     25  C   UNL     1       5.868   3.616  12.509  0.00  0.00    +0.000 A 
ATOM     26  C   UNL     1       5.241   3.535  13.764  0.00  0.00    +0.000 A 
ENDBRANCH  17  20
ENDBRANCH   6  14
BRANCH   1  28
ATOM     27  C   UNL     1       2.145   3.389  21.488  0.00  0.00    +0.000 C 
ATOM     28  O   UNL     1       3.015   3.949  20.496  0.00  0.00    +0.000 OA
ENDBRANCH   1  28
TORSDOF 3
ENDMDL
MODEL 3
REMARK VINA RESULT:      -7.8      3.910     10.151
REMARK  Name = 
REMARK  4 active torsions:
REMARK  status: ('A' for Active; 'I' for Inactive)
REMARK    1  A    between atoms: C_1  and  O_2
REMARK    2  A    between atoms: O_2  and  C_3
REMARK    3  A    between atoms: C_8  and  N_9
REMARK    4  A    between atoms: N_12  and  C_13
REMARK                            x       y       z     vdW  Elec       q    Type
REMARK                         _______ _______ _______ _____ _____    ______ ____
ROOT
ATOM      1  C   UNL     1       9.213  11.600  20.307  0.00  0.00    +0.000 A 
ATOM      2  C   UNL     1       9.252  13.011  20.277  0.00  0.00    +0.000 A 
ATOM      3  C   UNL     1       9.756  13.661  19.139  0.00  0.00    +0.000 A 
ATOM      4  C   UNL     1      10.149  12.888  18.061  0.00  0.00    +0.000 A 
ATOM      5  C   UNL     1      10.048  11.502  18.019  0.00  0.00    +0.000 A 
ATOM      6  C   UNL     1       9.585  10.841  19.170  0.00  0.00    +0.000 A 
ATOM      7  O   UNL     1      10.641  13.668  17.061  0.00  0.00    +0.000 OA
ATOM      8  C   UNL     1      10.564  14.955  17.491  0.00  0.00    +0.000 A 
ATOM      9  C   UNL     1      10.991  16.069  16.774  0.00  0.00    +0.000 A 
ATOM     10  C   UNL     1      10.801  17.313  17.383  0.00  0.00    +0.000 A 
ATOM     11  C   UNL     1      10.211  17.416  18.646  0.00  0.00    +0.000 A 
ATOM     12  C   UNL     1       9.805  16.274  19.351  0.00  0.00    +0.000 A 
ATOM     13  C   UNL     1       9.994  15.014  18.758  0.00  0.00    +0.000 A 
ENDROOT
BRANCH   6  14
ATOM     14  N   UNL     1       9.462   9.417  19.192  0.00  0.00    +0.000 N 
ATOM     15  C   UNL     1       8.514   8.704  18.467  0.00  0.00    +0.000 C 
ATOM     16  O   UNL     1       7.843   9.201  17.570  0.00  0.00    +0.000 OA
ATOM     17  N   UNL     1       8.388   7.385  18.882  0.00  0.00    +0.000 N 
ATOM     18  H   UNL     1      10.254   8.922  19.579  0.00  0.00    +0.000 HD
ATOM     19  H   UNL     1       8.990   7.084  19.634  0.00  0.00    +0.000 HD
BRANCH  17  20
ATOM     20  C   UNL     1       7.428   6.447  18.410  0.00  0.00    +0.000 A 
ATOM     21  C   UNL     1       6.665   5.621  19.248  0.00  0.00    +0.000 A 
ATOM     22  C   UNL     1       5.752   4.697  18.726  0.00  0.00    +0.000 A 
ATOM     23  C   UNL     1       5.588   4.594  17.357  0.00  0.00    +0.000 A 
ATOM     24  F   UNL     1       4.725   3.709  16.848  0.00  0.00    +0.000 F 
ATOM     25  C   UNL     1       6.330   5.402  16.499  0.00  0.00    +0.000 A 
ATOM     26  C   UNL     1       7.248   6.326  17.023  0.00  0.00    +0.000 A 
ENDBRANCH  17  20
ENDBRANCH   6  14
BRANCH   1  28
ATOM     27  C   UNL     1       8.289  11.731  22.479  0.00  0.00    +0.000 C 
ATOM     28  O   UNL     1       8.824  10.907  21.436  0.00  0.00    +0.000 OA
ENDBRANCH   1  28
TORSDOF 3
ENDMDL
MODEL 4
REMARK VINA RESULT:      -7.7      5.489      7.819
REMARK  Name = 
REMARK  4 active torsions:
REMARK  status: ('A' for Active; 'I' for Inactive)
REMARK    1  A    between atoms: C_1  and  O_2
REMARK    2  A    between atoms: O_2  and  C_3
REMARK    3  A    between atoms: C_8  and  N_9
REMARK    4  A    between atoms: N_12  and  C_13
REMARK                            x       y       z     vdW  Elec       q    Type
REMARK                         _______ _______ _______ _____ _____    ______ ____
ROOT
ATOM      1  C   UNL     1       2.526   5.107  20.061  0.00  0.00    +0.000 A 
ATOM      2  C   UNL     1       3.336   4.416  19.132  0.00  0.00    +0.000 A 
ATOM      3  C   UNL     1       3.917   5.123  18.067  0.00  0.00    +0.000 A 
ATOM      4  C   UNL     1       3.714   6.490  17.998  0.00  0.00    +0.000 A 
ATOM      5  C   UNL     1       2.993   7.219  18.937  0.00  0.00    +0.000 A 
ATOM      6  C   UNL     1       2.373   6.513  19.982  0.00  0.00    +0.000 A 
ATOM      7  O   UNL     1       4.314   7.012  16.894  0.00  0.00    +0.000 OA
ATOM      8  C   UNL     1       4.912   5.978  16.245  0.00  0.00    +0.000 A 
ATOM      9  C   UNL     1       5.616   6.080  15.048  0.00  0.00    +0.000 A 
ATOM     10  C   UNL     1       6.180   4.899  14.554  0.00  0.00    +0.000 A 
ATOM     11  C   UNL     1       6.035   3.689  15.238  0.00  0.00    +0.000 A 
ATOM     12  C   UNL     1       5.307   3.615  16.433  0.00  0.00    +0.000 A 
ATOM     13  C   UNL     1       4.726   4.790  16.943  0.00  0.00    +0.000 A 
ENDROOT
BRANCH   6  14
ATOM     14  N   UNL     1       1.615   7.204  20.978  0.00  0.00    +0.000 N 
ATOM     15  C   UNL     1       1.019   8.445  20.783  0.00  0.00    +0.000 C 
ATOM     16  O   UNL     1       0.891   8.961  19.678  0.00  0.00    +0.000 OA
ATOM     17  N   UNL     1       0.611   9.046  21.966  0.00  0.00    +0.000 N 
ATOM     18  H   UNL     1       1.326   6.642  21.767  0.00  0.00    +0.000 HD
ATOM     19  H   UNL     1       0.770   8.531  22.818  0.00  0.00    +0.000 HD
BRANCH  17  20
ATOM     20  C   UNL     1       0.074  10.358  22.096  0.00  0.00    +0.000 A 
ATOM     21  C   UNL     1       0.563  11.475  21.402  0.00  0.00    +0.000 A 
ATOM     22  C   UNL     1       0.012  12.748  21.589  0.00  0.00    +0.000 A 
ATOM     23  C   UNL     1      -1.041  12.916  22.468  0.00  0.00    +0.000 A 
ATOM     24  F   UNL     1      -1.569  14.130  22.659  0.00  0.00    +0.000 F 
ATOM     25  C   UNL     1      -1.550  11.827  23.170  0.00  0.00    +0.000 A 
ATOM     26  C   UNL     1      -0.994  10.550  22.986  0.00  0.00    +0.000 A 
ENDBRANCH  17  20
ENDBRANCH   6  14
BRANCH   1  28
ATOM     27  C   UNL     1       1.019   3.371  20.611  0.00  0.00    +0.000 C 
ATOM     28  O   UNL     1       1.847   4.447  21.066  0.00  0.00    +0.000 OA
ENDBRANCH   1  28
TORSDOF 3
ENDMDL
MODEL 5
REMARK VINA RESULT:      -7.7      5.300      7.569
REMARK  Name = 
REMARK  4 active torsions:
REMARK  status: ('A' for Active; 'I' for Inactive)
REMARK    1  A    between atoms: C_1  and  O_2
REMARK    2  A    between atoms: O_2  and  C_3
REMARK    3  A    between atoms: C_8  and  N_9
REMARK    4  A    between atoms: N_12  and  C_13
REMARK                            x       y       z     vdW  Elec       q    Type
REMARK                         _______ _______ _______ _____ _____    ______ ____
ROOT
ATOM      1  C   UNL     1       2.618   6.210  19.771  0.00  0.00    +0.000 A 
ATOM      2  C   UNL     1       1.757   7.145  20.387  0.00  0.00    +0.000 A 
ATOM      3  C   UNL     1       1.495   8.366  19.745  0.00  0.00    +0.000 A 
ATOM      4  C   UNL     1       2.054   8.585  18.498  0.00  0.00    +0.000 A 
ATOM      5  C   UNL     1       2.837   7.657  17.822  0.00  0.00    +0.000 A 
ATOM      6  C   UNL     1       3.139   6.450  18.476  0.00  0.00    +0.000 A 
ATOM      7  O   UNL     1       1.729   9.822  18.035  0.00  0.00    +0.000 OA
ATOM      8  C   UNL     1       0.953  10.408  18.985  0.00  0.00    +0.000 A 
ATOM      9  C   UNL     1       0.429  11.695  18.913  0.00  0.00    +0.000 A 
ATOM     10  C   UNL     1      -0.368  12.105  19.986  0.00  0.00    +0.000 A 
ATOM     11  C   UNL     1      -0.617  11.254  21.067  0.00  0.00    +0.000 A 
ATOM     12  C   UNL     1      -0.061   9.968  21.119  0.00  0.00    +0.000 A 
ATOM     13  C   UNL     1       0.749   9.540  20.052  0.00  0.00    +0.000 A 
ENDROOT
BRANCH   6  14
ATOM     14  N   UNL     1       3.944   5.457  17.836  0.00  0.00    +0.000 N 
ATOM     15  C   UNL     1       4.689   5.680  16.683  0.00  0.00    +0.000 C 
ATOM     16  O   UNL     1       4.912   6.799  16.235  0.00  0.00    +0.000 OA
ATOM     17  N   UNL     1       5.129   4.508  16.083  0.00  0.00    +0.000 N 
ATOM     18  H   UNL     1       4.138   4.636  18.392  0.00  0.00    +0.000 HD
ATOM     19  H   UNL     1       4.884   3.642  16.538  0.00  0.00    +0.000 HD
BRANCH  17  20
ATOM     20  C   UNL     1       5.814   4.412  14.839  0.00  0.00    +0.000 A 
ATOM     21  C   UNL     1       7.058   5.008  14.584  0.00  0.00    +0.000 A 
ATOM     22  C   UNL     1       7.675   4.901  13.332  0.00  0.00    +0.000 A 
ATOM     23  C   UNL     1       7.055   4.189  12.322  0.00  0.00    +0.000 A 
ATOM     24  F   UNL     1       7.632   4.087  11.120  0.00  0.00    +0.000 F 
ATOM     25  C   UNL     1       5.821   3.584  12.545  0.00  0.00    +0.000 A 
ATOM     26  C   UNL     1       5.201   3.695  13.800  0.00  0.00    +0.000 A 
ENDBRANCH  17  20
ENDBRANCH   6  14
BRANCH   1  28
ATOM     27  C   UNL     1       1.900   4.282  20.935  0.00  0.00    +0.000 C 
ATOM     28  O   UNL     1       2.992   5.040  20.402  0.00  0.00    +0.000 OA
ENDBRANCH   1  28
TORSDOF 3
ENDMDL
MODEL 6
REMARK VINA RESULT:      -7.7      5.541      7.811
REMARK  Name = 
REMARK  4 active torsions:
REMARK  status: ('A' for Active; 'I' for Inactive)
REMARK    1  A    between atoms: C_1  and  O_2
REMARK    2  A    between atoms: O_2  and  C_3
REMARK    3  A    between atoms: C_8  and  N_9
REMARK    4  A    between atoms: N_12  and  C_13
REMARK                            x       y       z     vdW  Elec       q    Type
REMARK                         _______ _______ _______ _____ _____    ______ ____
ROOT
ATOM      1  C   UNL     1       2.238   5.126  20.039  0.00  0.00    +0.000 A 
ATOM      2  C   UNL     1       3.019   4.419  19.097  0.00  0.00    +0.000 A 
ATOM      3  C   UNL     1       3.715   5.133  18.108  0.00  0.00    +0.000 A 
ATOM      4  C   UNL     1       3.651   6.515  18.128  0.00  0.00    +0.000 A 
ATOM      5  C   UNL     1       2.963   7.249  19.087  0.00  0.00    +0.000 A 
ATOM      6  C   UNL     1       2.229   6.541  20.055  0.00  0.00    +0.000 A 
ATOM      7  O   UNL     1       4.350   7.045  17.088  0.00  0.00    +0.000 OA
ATOM      8  C   UNL     1       4.872   6.001  16.391  0.00  0.00    +0.000 A 
ATOM      9  C   UNL     1       5.637   6.111  15.234  0.00  0.00    +0.000 A 
ATOM     10  C   UNL     1       6.104   4.914  14.679  0.00  0.00    +0.000 A 
ATOM     11  C   UNL     1       5.809   3.682  15.269  0.00  0.00    +0.000 A 
ATOM     12  C   UNL     1       5.023   3.603  16.427  0.00  0.00    +0.000 A 
ATOM     13  C   UNL     1       4.538   4.794  16.995  0.00  0.00    +0.000 A 
ENDROOT
BRANCH   6  14
ATOM     14  N   UNL     1       1.497   7.239  21.066  0.00  0.00    +0.000 N 
ATOM     15  C   UNL     1       0.880   8.470  20.875  0.00  0.00    +0.000 C 
ATOM     16  O   UNL     1       0.707   8.968  19.768  0.00  0.00    +0.000 OA
ATOM     17  N   UNL     1       0.506   9.084  22.062  0.00  0.00    +0.000 N 
ATOM     18  H   UNL     1       1.243   6.685  21.873  0.00  0.00    +0.000 HD
ATOM     19  H   UNL     1       0.701   8.582  22.916  0.00  0.00    +0.000 HD
BRANCH  17  20
ATOM     20  C   UNL     1      -0.041  10.391  22.193  0.00  0.00    +0.000 A 
ATOM     21  C   UNL     1      -1.105  10.710  23.049  0.00  0.00    +0.000 A 
ATOM     22  C   UNL     1      -1.621  12.010  23.118  0.00  0.00    +0.000 A 
ATOM     23  C   UNL     1      -1.072  13.007  22.334  0.00  0.00    +0.000 A 
ATOM     24  F   UNL     1      -1.562  14.250  22.387  0.00  0.00    +0.000 F 
ATOM     25  C   UNL     1      -0.013  12.722  21.476  0.00  0.00    +0.000 A 
ATOM     26  C   UNL     1       0.501  11.417  21.403  0.00  0.00    +0.000 A 
ENDBRANCH  17  20
ENDBRANCH   6  14
BRANCH   1  28
ATOM     27  C   UNL     1       2.083   3.343  21.584  0.00  0.00    +0.000 C 
ATOM     28  O   UNL     1       1.453   4.473  20.968  0.00  0.00    +0.000 OA
ENDBRANCH   1  28
TORSDOF 3
ENDMDL
MODEL 7
REMARK VINA RESULT:      -7.6      4.934      7.468
REMARK  Name = 
REMARK  4 active torsions:
REMARK  status: ('A' for Active; 'I' for Inactive)
REMARK    1  A    between atoms: C_1  and  O_2
REMARK    2  A    between atoms: O_2  and  C_3
REMARK    3  A    between atoms: C_8  and  N_9
REMARK    4  A    between atoms: N_12  and  C_13
REMARK                            x       y       z     vdW  Elec       q    Type
REMARK                         _______ _______ _______ _____ _____    ______ ____
ROOT
ATOM      1  C   UNL     1       2.851   4.740  18.007  0.00  0.00    +0.000 A 
ATOM      2  C   UNL     1       3.446   4.164  16.862  0.00  0.00    +0.000 A 
ATOM      3  C   UNL     1       4.602   4.748  16.320  0.00  0.00    +0.000 A 
ATOM      4  C   UNL     1       5.149   5.843  16.966  0.00  0.00    +0.000 A 
ATOM      5  C   UNL     1       4.643   6.387  18.140  0.00  0.00    +0.000 A 
ATOM      6  C   UNL     1       3.461   5.836  18.665  0.00  0.00    +0.000 A 
ATOM      7  O   UNL     1       6.240   6.302  16.296  0.00  0.00    +0.000 OA
ATOM      8  C   UNL     1       6.403   5.500  15.210  0.00  0.00    +0.000 A 
ATOM      9  C   UNL     1       7.395   5.646  14.246  0.00  0.00    +0.000 A 
ATOM     10  C   UNL     1       7.409   4.698  13.217  0.00  0.00    +0.000 A 
ATOM     11  C   UNL     1       6.469   3.664  13.175  0.00  0.00    +0.000 A 
ATOM     12  C   UNL     1       5.472   3.553  14.154  0.00  0.00    +0.000 A 
ATOM     13  C   UNL     1       5.437   4.500  15.193  0.00  0.00    +0.000 A 
ENDROOT
BRANCH   6  14
ATOM     14  N   UNL     1       2.888   6.354  19.868  0.00  0.00    +0.000 N 
ATOM     15  C   UNL     1       1.989   7.414  19.911  0.00  0.00    +0.000 C 
ATOM     16  O   UNL     1       1.426   7.856  18.915  0.00  0.00    +0.000 OA
ATOM     17  N   UNL     1       1.817   7.932  21.187  0.00  0.00    +0.000 N 
ATOM     18  H   UNL     1       2.983   5.761  20.680  0.00  0.00    +0.000 HD
ATOM     19  H   UNL     1       2.333   7.491  21.932  0.00  0.00    +0.000 HD
BRANCH  17  20
ATOM     20  C   UNL     1       1.051   9.083  21.527  0.00  0.00    +0.000 A 
ATOM     21  C   UNL     1       1.118  10.299  20.831  0.00  0.00    +0.000 A 
ATOM     22  C   UNL     1       0.360  11.408  21.226  0.00  0.00    +0.000 A 
ATOM     23  C   UNL     1      -0.480  11.309  22.319  0.00  0.00    +0.000 A 
ATOM     24  F   UNL     1      -1.203  12.364  22.709  0.00  0.00    +0.000 F 
ATOM     25  C   UNL     1      -0.571  10.114  23.028  0.00  0.00    +0.000 A 
ATOM     26  C   UNL     1       0.193   9.003  22.635  0.00  0.00    +0.000 A 
ENDBRANCH  17  20
ENDBRANCH   6  14
BRANCH   1  28
ATOM     27  C   UNL     1       1.576   2.844  18.612  0.00  0.00    +0.000 C 
ATOM     28  O   UNL     1       1.658   4.272  18.521  0.00  0.00    +0.000 OA
ENDBRANCH   1  28
TORSDOF 3
ENDMDL
MODEL 8
REMARK VINA RESULT:      -7.5      8.440     10.854
REMARK  Name = 
REMARK  4 active torsions:
REMARK  status: ('A' for Active; 'I' for Inactive)
REMARK    1  A    between atoms: C_1  and  O_2
REMARK    2  A    between atoms: O_2  and  C_3
REMARK    3  A    between atoms: C_8  and  N_9
REMARK    4  A    between atoms: N_12  and  C_13
REMARK                            x       y       z     vdW  Elec       q    Type
REMARK                         _______ _______ _______ _____ _____    ______ ____
ROOT
ATOM      1  C   UNL     1       0.472  11.971  21.609  0.00  0.00    +0.000 A 
ATOM      2  C   UNL     1      -0.380  13.079  21.817  0.00  0.00    +0.000 A 
ATOM      3  C   UNL     1      -1.588  12.897  22.509  0.00  0.00    +0.000 A 
ATOM      4  C   UNL     1      -1.875  11.639  23.010  0.00  0.00    +0.000 A 
ATOM      5  C   UNL     1      -1.025  10.544  22.899  0.00  0.00    +0.000 A 
ATOM      6  C   UNL     1       0.166  10.708  22.171  0.00  0.00    +0.000 A 
ATOM      7  O   UNL     1      -3.091  11.628  23.620  0.00  0.00    +0.000 OA
ATOM      8  C   UNL     1      -3.595  12.886  23.516  0.00  0.00    +0.000 A 
ATOM      9  C   UNL     1      -4.838  13.295  23.991  0.00  0.00    +0.000 A 
ATOM     10  C   UNL     1      -5.162  14.643  23.808  0.00  0.00    +0.000 A 
ATOM     11  C   UNL     1      -4.274  15.521  23.180  0.00  0.00    +0.000 A 
ATOM     12  C   UNL     1      -3.035  15.075  22.698  0.00  0.00    +0.000 A 
ATOM     13  C   UNL     1      -2.694  13.722  22.866  0.00  0.00    +0.000 A 
ENDROOT
BRANCH   6  14
ATOM     14  N   UNL     1       1.080   9.619  22.017  0.00  0.00    +0.000 N 
ATOM     15  C   UNL     1       1.144   8.806  20.891  0.00  0.00    +0.000 C 
ATOM     16  O   UNL     1       0.587   9.080  19.834  0.00  0.00    +0.000 OA
ATOM     17  N   UNL     1       1.878   7.646  21.096  0.00  0.00    +0.000 N 
ATOM     18  H   UNL     1       1.850   9.607  22.673  0.00  0.00    +0.000 HD
ATOM     19  H   UNL     1       2.290   7.522  22.008  0.00  0.00    +0.000 HD
BRANCH  17  20
ATOM     20  C   UNL     1       2.026   6.575  20.171  0.00  0.00    +0.000 A 
ATOM     21  C   UNL     1       2.674   6.696  18.933  0.00  0.00    +0.000 A 
ATOM     22  C   UNL     1       2.769   5.613  18.050  0.00  0.00    +0.000 A 
ATOM     23  C   UNL     1       2.220   4.394  18.401  0.00  0.00    +0.000 A 
ATOM     24  F   UNL     1       2.298   3.356  17.562  0.00  0.00    +0.000 F 
ATOM     25  C   UNL     1       1.572   4.242  19.624  0.00  0.00    +0.000 A 
ATOM     26  C   UNL     1       1.474   5.329  20.508  0.00  0.00    +0.000 A 
ENDBRANCH  17  20
ENDBRANCH   6  14
BRANCH   1  28
ATOM     27  C   UNL     1       1.426  12.672  19.563  0.00  0.00    +0.000 C 
ATOM     28  O   UNL     1       1.620  12.070  20.849  0.00  0.00    +0.000 OA
ENDBRANCH   1  28
TORSDOF 3
ENDMDL
MODEL 9
REMARK VINA RESULT:      -7.4      6.598      8.570
REMARK  Name = 
REMARK  4 active torsions:
REMARK  status: ('A' for Active; 'I' for Inactive)
REMARK    1  A    between atoms: C_1  and  O_2
REMARK    2  A    between atoms: O_2  and  C_3
REMARK    3  A    between atoms: C_8  and  N_9
REMARK    4  A    between atoms: N_12  and  C_13
REMARK                            x       y       z     vdW  Elec       q    Type
REMARK                         _______ _______ _______ _____ _____    ______ ____
ROOT
ATOM      1  C   UNL     1       2.082   8.098  18.886  0.00  0.00    +0.000 A 
ATOM      2  C   UNL     1       2.368   6.916  18.166  0.00  0.00    +0.000 A 
ATOM      3  C   UNL     1       2.446   5.694  18.853  0.00  0.00    +0.000 A 
ATOM      4  C   UNL     1       2.187   5.687  20.212  0.00  0.00    +0.000 A 
ATOM      5  C   UNL     1       1.822   6.813  20.941  0.00  0.00    +0.000 A 
ATOM      6  C   UNL     1       1.783   8.047  20.269  0.00  0.00    +0.000 A 
ATOM      7  O   UNL     1       2.338   4.436  20.726  0.00  0.00    +0.000 OA
ATOM      8  C   UNL     1       2.695   3.627  19.693  0.00  0.00    +0.000 A 
ATOM      9  C   UNL     1       2.972   2.267  19.798  0.00  0.00    +0.000 A 
ATOM     10  C   UNL     1       3.297   1.604  18.610  0.00  0.00    +0.000 A 
ATOM     11  C   UNL     1       3.337   2.286  17.390  0.00  0.00    +0.000 A 
ATOM     12  C   UNL     1       3.068   3.660  17.320  0.00  0.00    +0.000 A 
ATOM     13  C   UNL     1       2.746   4.345  18.504  0.00  0.00    +0.000 A 
ENDROOT
BRANCH   6  14
ATOM     14  N   UNL     1       1.418   9.242  20.964  0.00  0.00    +0.000 N 
ATOM     15  C   UNL     1       0.113   9.580  21.305  0.00  0.00    +0.000 C 
ATOM     16  O   UNL     1      -0.821   8.788  21.249  0.00  0.00    +0.000 OA
ATOM     17  N   UNL     1      -0.025  10.907  21.687  0.00  0.00    +0.000 N 
ATOM     18  H   UNL     1       2.181   9.730  21.411  0.00  0.00    +0.000 HD
ATOM     19  H   UNL     1       0.812  11.470  21.694  0.00  0.00    +0.000 HD
BRANCH  17  20
ATOM     20  C   UNL     1      -1.250  11.570  21.983  0.00  0.00    +0.000 A 
ATOM     21  C   UNL     1      -1.861  11.555  23.246  0.00  0.00    +0.000 A 
ATOM     22  C   UNL     1      -3.080  12.205  23.473  0.00  0.00    +0.000 A 
ATOM     23  C   UNL     1      -3.698  12.883  22.439  0.00  0.00    +0.000 A 
ATOM     24  F   UNL     1      -4.867  13.499  22.645  0.00  0.00    +0.000 F 
ATOM     25  C   UNL     1      -3.115  12.917  21.175  0.00  0.00    +0.000 A 
ATOM     26  C   UNL     1      -1.894  12.262  20.946  0.00  0.00    +0.000 A 
ENDBRANCH  17  20
ENDBRANCH   6  14
BRANCH   1  28
ATOM     27  C   UNL     1       0.827   9.750  17.754  0.00  0.00    +0.000 C 
ATOM     28  O   UNL     1       2.094   9.339  18.281  0.00  0.00    +0.000 OA
ENDBRANCH   1  28
TORSDOF 3
ENDMDL
