MODEL 1
REMARK VINA RESULT:      -8.3      0.000      0.000
REMARK  Name = 
REMARK  8 active torsions:
REMARK  status: ('A' for Active; 'I' for Inactive)
REMARK    1  A    between atoms: C_2  and  C_3
REMARK    2  A    between atoms: C_2  and  O_13
REMARK    3  A    between atoms: C_4  and  C_5
REMARK    4  A    between atoms: C_8  and  O_9
REMARK    5  A    between atoms: C_10  and  O_11
REMARK    6  A    between atoms: O_13  and  C_14
REMARK    7  A    between atoms: C_14  and  C_15
REMARK    8  A    between atoms: N_17  and  C_18
REMARK                            x       y       z     vdW  Elec       q    Type
REMARK                         _______ _______ _______ _____ _____    ______ ____
ROOT
ATOM      1  O   UNL     1       7.900   6.586  18.923  0.00  0.00    +0.000 OA
ATOM      2  C   UNL     1       7.799   7.106  17.824  0.00  0.00    +0.000 C 
ENDROOT
BRANCH   2   3
ATOM      3  C   UNL     1       8.140   8.530  17.602  0.00  0.00    +0.000 C 
ATOM      4  C   UNL     1       8.791   9.302  18.487  0.00  0.00    +0.000 C 
BRANCH   4   5
ATOM      5  C   UNL     1       9.129  10.720  18.276  0.00  0.00    +0.000 A 
ATOM      6  C   UNL     1      10.435  11.218  18.428  0.00  0.00    +0.000 A 
ATOM      7  C   UNL     1      10.730  12.563  18.172  0.00  0.00    +0.000 A 
ATOM      8  C   UNL     1       9.715  13.411  17.751  0.00  0.00    +0.000 A 
ATOM      9  C   UNL     1       8.421  12.925  17.585  0.00  0.00    +0.000 A 
ATOM     10  C   UNL     1       8.121  11.592  17.839  0.00  0.00    +0.000 A 
BRANCH   8  11
ATOM     11  O   UNL     1       9.939  14.732  17.479  0.00  0.00    +0.000 OA
ATOM     12  H   UNL     1      10.211  14.807  16.547  0.00  0.00    +0.000 HD
ENDBRANCH   8  11
BRANCH   9  13
ATOM     13  O   UNL     1       7.429  13.762  17.162  0.00  0.00    +0.000 OA
ATOM     14  H   UNL     1       6.847  13.869  17.942  0.00  0.00    +0.000 HD
ENDBRANCH   9  13
ENDBRANCH   4   5
ENDBRANCH   2   3
BRANCH   2  15
ATOM     15  O   UNL     1       7.390   6.509  16.686  0.00  0.00    +0.000 OA
BRANCH  15  16
ATOM     16  C   UNL     1       6.014   6.709  16.314  0.00  0.00    +0.000 C 
BRANCH  16  17
ATOM     17  C   UNL     1       5.153   5.640  16.881  0.00  0.00    +0.000 A 
ATOM     18  C   UNL     1       4.365   5.665  18.010  0.00  0.00    +0.000 A 
ATOM     19  N   UNL     1       3.756   4.434  18.051  0.00  0.00    +0.000 N 
ATOM     20  N   UNL     1       4.206   3.679  17.018  0.00  0.00    +0.000 NA
ATOM     21  N   UNL     1       5.044   4.411  16.293  0.00  0.00    +0.000 NA
BRANCH  19  22
ATOM     22  C   UNL     1       2.795   3.956  18.979  0.00  0.00    +0.000 A 
ATOM     23  C   UNL     1       1.701   3.192  18.545  0.00  0.00    +0.000 A 
ATOM     24  C   UNL     1       0.772   2.710  19.468  0.00  0.00    +0.000 A 
ATOM     25  C   UNL     1       0.922   2.991  20.825  0.00  0.00    +0.000 A 
ATOM     26  C   UNL     1       2.004   3.752  21.263  0.00  0.00    +0.000 A 
ATOM     27  C   UNL     1       2.943   4.234  20.346  0.00  0.00    +0.000 A 
ENDBRANCH  19  22
ENDBRANCH  16  17
ENDBRANCH  15  16
ENDBRANCH   2  15
TORSDOF 8
ENDMDL
MODEL 2
REMARK VINA RESULT:      -8.2      1.747      2.198
REMARK  Name = 
REMARK  8 active torsions:
REMARK  status: ('A' for Active; 'I' for Inactive)
REMARK    1  A    between atoms: C_2  and  C_3
REMARK    2  A    between atoms: C_2  and  O_13
REMARK    3  A    between atoms: C_4  and  C_5
REMARK    4  A    between atoms: C_8  and  O_9
REMARK    5  A    between atoms: C_10  and  O_11
REMARK    6  A    between atoms: O_13  and  C_14
REMARK    7  A    between atoms: C_14  and  C_15
REMARK    8  A    between atoms: N_17  and  C_18
REMARK                            x       y       z     vdW  Elec       q    Type
REMARK                         _______ _______ _______ _____ _____    ______ ____
ROOT
ATOM      1  O   UNL     1       5.982   7.559  17.439  0.00  0.00    +0.000 OA
ATOM      2  C   UNL     1       7.172   7.292  17.489  0.00  0.00    +0.000 C 
ENDROOT
BRANCH   2   3
ATOM      3  C   UNL     1       8.154   8.220  18.095  0.00  0.00    +0.000 C 
ATOM      4  C   UNL     1       8.262   9.521  17.783  0.00  0.00    +0.000 C 
BRANCH   4   5
ATOM      5  C   UNL     1       9.238  10.450  18.377  0.00  0.00    +0.000 A 
ATOM      6  C   UNL     1      10.142  11.197  17.601  0.00  0.00    +0.000 A 
ATOM      7  C   UNL     1      11.025  12.107  18.197  0.00  0.00    +0.000 A 
ATOM      8  C   UNL     1      10.995  12.279  19.573  0.00  0.00    +0.000 A 
ATOM      9  C   UNL     1      10.095  11.553  20.349  0.00  0.00    +0.000 A 
ATOM     10  C   UNL     1       9.217  10.647  19.765  0.00  0.00    +0.000 A 
BRANCH   8  11
ATOM     11  O   UNL     1      11.825  13.156  20.214  0.00  0.00    +0.000 OA
ATOM     12  H   UNL     1      11.286  13.698  20.816  0.00  0.00    +0.000 HD
ENDBRANCH   8  11
BRANCH   9  13
ATOM     13  O   UNL     1      10.063  11.733  21.702  0.00  0.00    +0.000 OA
ATOM     14  H   UNL     1      10.644  11.031  22.058  0.00  0.00    +0.000 HD
ENDBRANCH   9  13
ENDBRANCH   4   5
ENDBRANCH   2   3
BRANCH   2  15
ATOM     15  O   UNL     1       7.763   6.168  17.034  0.00  0.00    +0.000 OA
BRANCH  15  16
ATOM     16  C   UNL     1       7.632   4.994  17.855  0.00  0.00    +0.000 C 
BRANCH  16  17
ATOM     17  C   UNL     1       6.241   4.475  17.816  0.00  0.00    +0.000 A 
ATOM     18  C   UNL     1       5.343   4.314  18.848  0.00  0.00    +0.000 A 
ATOM     19  N   UNL     1       4.197   3.839  18.256  0.00  0.00    +0.000 N 
ATOM     20  N   UNL     1       4.419   3.666  16.929  0.00  0.00    +0.000 NA
ATOM     21  N   UNL     1       5.654   4.067  16.651  0.00  0.00    +0.000 NA
BRANCH  19  22
ATOM     22  C   UNL     1       2.944   3.559  18.859  0.00  0.00    +0.000 A 
ATOM     23  C   UNL     1       2.575   4.183  20.060  0.00  0.00    +0.000 A 
ATOM     24  C   UNL     1       1.332   3.915  20.636  0.00  0.00    +0.000 A 
ATOM     25  C   UNL     1       0.454   3.023  20.024  0.00  0.00    +0.000 A 
ATOM     26  C   UNL     1       0.815   2.397  18.832  0.00  0.00    +0.000 A 
ATOM     27  C   UNL     1       2.056   2.663  18.245  0.00  0.00    +0.000 A 
ENDBRANCH  19  22
ENDBRANCH  16  17
ENDBRANCH  15  16
ENDBRANCH   2  15
TORSDOF 8
ENDMDL
MODEL 3
REMARK VINA RESULT:      -8.2      1.796      2.229
REMARK  Name = 
REMARK  8 active torsions:
REMARK  status: ('A' for Active; 'I' for Inactive)
REMARK    1  A    between atoms: C_2  and  C_3
REMARK    2  A    between atoms: C_2  and  O_13
REMARK    3  A    between atoms: C_4  and  C_5
REMARK    4  A    between atoms: C_8  and  O_9
REMARK    5  A    between atoms: C_10  and  O_11
REMARK    6  A    between atoms: O_13  and  C_14
REMARK    7  A    between atoms: C_14  and  C_15
REMARK    8  A    between atoms: N_17  and  C_18
REMARK                            x       y       z     vdW  Elec       q    Type
REMARK                         _______ _______ _______ _____ _____    ______ ____
ROOT
ATOM      1  O   UNL     1       6.175   7.818  16.994  0.00  0.00    +0.000 OA
ATOM      2  C   UNL     1       7.332   7.448  17.105  0.00  0.00    +0.000 C 
ENDROOT
BRANCH   2   3
ATOM      3  C   UNL     1       8.387   8.339  17.641  0.00  0.00    +0.000 C 
ATOM      4  C   UNL     1       8.171   9.585  18.093  0.00  0.00    +0.000 C 
BRANCH   4   5
ATOM      5  C   UNL     1       9.214  10.479  18.623  0.00  0.00    +0.000 A 
ATOM      6  C   UNL     1       9.303  10.816  19.985  0.00  0.00    +0.000 A 
ATOM      7  C   UNL     1      10.338  11.631  20.462  0.00  0.00    +0.000 A 
ATOM      8  C   UNL     1      11.295  12.101  19.574  0.00  0.00    +0.000 A 
ATOM      9  C   UNL     1      11.224  11.762  18.225  0.00  0.00    +0.000 A 
ATOM     10  C   UNL     1      10.198  10.956  17.745  0.00  0.00    +0.000 A 
BRANCH   8  11
ATOM     11  O   UNL     1      12.333  12.894  19.977  0.00  0.00    +0.000 OA
ATOM     12  H   UNL     1      11.964  13.733  20.303  0.00  0.00    +0.000 HD
ENDBRANCH   8  11
BRANCH   9  13
ATOM     13  O   UNL     1      12.173  12.220  17.357  0.00  0.00    +0.000 OA
ATOM     14  H   UNL     1      11.665  12.566  16.596  0.00  0.00    +0.000 HD
ENDBRANCH   9  13
ENDBRANCH   4   5
ENDBRANCH   2   3
BRANCH   2  15
ATOM     15  O   UNL     1       7.823   6.233  16.783  0.00  0.00    +0.000 OA
BRANCH  15  16
ATOM     16  C   UNL     1       6.875   5.265  16.297  0.00  0.00    +0.000 C 
BRANCH  16  17
ATOM     17  C   UNL     1       6.020   4.763  17.402  0.00  0.00    +0.000 A 
ATOM     18  C   UNL     1       4.646   4.707  17.483  0.00  0.00    +0.000 A 
ATOM     19  N   UNL     1       4.381   4.121  18.698  0.00  0.00    +0.000 N 
ATOM     20  N   UNL     1       5.551   3.889  19.345  0.00  0.00    +0.000 NA
ATOM     21  N   UNL     1       6.552   4.262  18.557  0.00  0.00    +0.000 NA
BRANCH  19  22
ATOM     22  C   UNL     1       3.123   3.773  19.253  0.00  0.00    +0.000 A 
ATOM     23  C   UNL     1       2.393   4.704  20.008  0.00  0.00    +0.000 A 
ATOM     24  C   UNL     1       1.148   4.358  20.534  0.00  0.00    +0.000 A 
ATOM     25  C   UNL     1       0.625   3.084  20.316  0.00  0.00    +0.000 A 
ATOM     26  C   UNL     1       1.346   2.153  19.571  0.00  0.00    +0.000 A 
ATOM     27  C   UNL     1       2.592   2.493  19.035  0.00  0.00    +0.000 A 
ENDBRANCH  19  22
ENDBRANCH  16  17
ENDBRANCH  15  16
ENDBRANCH   2  15
TORSDOF 8
ENDMDL
MODEL 4
REMARK VINA RESULT:      -8.1      1.516      1.935
REMARK  Name = 
REMARK  8 active torsions:
REMARK  status: ('A' for Active; 'I' for Inactive)
REMARK    1  A    between atoms: C_2  and  C_3
REMARK    2  A    between atoms: C_2  and  O_13
REMARK    3  A    between atoms: C_4  and  C_5
REMARK    4  A    between atoms: C_8  and  O_9
REMARK    5  A    between atoms: C_10  and  O_11
REMARK    6  A    between atoms: O_13  and  C_14
REMARK    7  A    between atoms: C_14  and  C_15
REMARK    8  A    between atoms: N_17  and  C_18
REMARK                            x       y       z     vdW  Elec       q    Type
REMARK                         _______ _______ _______ _____ _____    ______ ____
ROOT
ATOM      1  O   UNL     1       7.837   6.104  17.431  0.00  0.00    +0.000 OA
ATOM      2  C   UNL     1       7.288   7.179  17.258  0.00  0.00    +0.000 C 
ENDROOT
BRANCH   2   3
ATOM      3  C   UNL     1       7.995   8.461  17.488  0.00  0.00    +0.000 C 
ATOM      4  C   UNL     1       8.457   8.869  18.680  0.00  0.00    +0.000 C 
BRANCH   4   5
ATOM      5  C   UNL     1       9.156  10.143  18.918  0.00  0.00    +0.000 A 
ATOM      6  C   UNL     1       9.564  10.991  17.874  0.00  0.00    +0.000 A 
ATOM      7  C   UNL     1      10.184  12.219  18.139  0.00  0.00    +0.000 A 
ATOM      8  C   UNL     1      10.386  12.605  19.457  0.00  0.00    +0.000 A 
ATOM      9  C   UNL     1       9.974  11.779  20.499  0.00  0.00    +0.000 A 
ATOM     10  C   UNL     1       9.360  10.558  20.243  0.00  0.00    +0.000 A 
BRANCH   8  11
ATOM     11  O   UNL     1      10.978  13.794  19.782  0.00  0.00    +0.000 OA
ATOM     12  H   UNL     1      11.572  14.045  19.054  0.00  0.00    +0.000 HD
ENDBRANCH   8  11
BRANCH   9  13
ATOM     13  O   UNL     1      10.166  12.169  21.793  0.00  0.00    +0.000 OA
ATOM     14  H   UNL     1       9.605  11.564  22.319  0.00  0.00    +0.000 HD
ENDBRANCH   9  13
ENDBRANCH   4   5
ENDBRANCH   2   3
BRANCH   2  15
ATOM     15  O   UNL     1       6.018   7.378  16.847  0.00  0.00    +0.000 OA
BRANCH  15  16
ATOM     16  C   UNL     1       5.453   6.366  15.994  0.00  0.00    +0.000 C 
BRANCH  16  17
ATOM     17  C   UNL     1       4.820   5.291  16.799  0.00  0.00    +0.000 A 
ATOM     18  C   UNL     1       4.107   5.389  17.974  0.00  0.00    +0.000 A 
ATOM     19  N   UNL     1       3.717   4.103  18.266  0.00  0.00    +0.000 N 
ATOM     20  N   UNL     1       4.226   3.261  17.333  0.00  0.00    +0.000 NA
ATOM     21  N   UNL     1       4.883   3.977  16.429  0.00  0.00    +0.000 NA
BRANCH  19  22
ATOM     22  C   UNL     1       2.907   3.650  19.339  0.00  0.00    +0.000 A 
ATOM     23  C   UNL     1       3.464   2.904  20.388  0.00  0.00    +0.000 A 
ATOM     24  C   UNL     1       2.662   2.478  21.448  0.00  0.00    +0.000 A 
ATOM     25  C   UNL     1       1.304   2.788  21.467  0.00  0.00    +0.000 A 
ATOM     26  C   UNL     1       0.743   3.526  20.427  0.00  0.00    +0.000 A 
ATOM     27  C   UNL     1       1.539   3.961  19.363  0.00  0.00    +0.000 A 
ENDBRANCH  19  22
ENDBRANCH  16  17
ENDBRANCH  15  16
ENDBRANCH   2  15
TORSDOF 8
ENDMDL
MODEL 5
REMARK VINA RESULT:      -8.1      4.987      7.081
REMARK  Name = 
REMARK  8 active torsions:
REMARK  status: ('A' for Active; 'I' for Inactive)
REMARK    1  A    between atoms: C_2  and  C_3
REMARK    2  A    between atoms: C_2  and  O_13
REMARK    3  A    between atoms: C_4  and  C_5
REMARK    4  A    between atoms: C_8  and  O_9
REMARK    5  A    between atoms: C_10  and  O_11
REMARK    6  A    between atoms: O_13  and  C_14
REMARK    7  A    between atoms: C_14  and  C_15
REMARK    8  A    between atoms: N_17  and  C_18
REMARK                            x       y       z     vdW  Elec       q    Type
REMARK                         _______ _______ _______ _____ _____    ______ ____
ROOT
ATOM      1  O   UNL     1       2.249   3.427  22.229  0.00  0.00    +0.000 OA
ATOM      2  C   UNL     1       1.624   3.546  21.188  0.00  0.00    +0.000 C 
ENDROOT
BRANCH   2   3
ATOM      3  C   UNL     1       1.394   4.870  20.564  0.00  0.00    +0.000 C 
ATOM      4  C   UNL     1       2.368   5.736  20.243  0.00  0.00    +0.000 C 
BRANCH   4   5
ATOM      5  C   UNL     1       2.149   7.056  19.628  0.00  0.00    +0.000 A 
ATOM      6  C   UNL     1       2.499   7.338  18.295  0.00  0.00    +0.000 A 
ATOM      7  C   UNL     1       2.232   8.591  17.728  0.00  0.00    +0.000 A 
ATOM      8  C   UNL     1       1.601   9.561  18.493  0.00  0.00    +0.000 A 
ATOM      9  C   UNL     1       1.238   9.287  19.810  0.00  0.00    +0.000 A 
ATOM     10  C   UNL     1       1.503   8.047  20.380  0.00  0.00    +0.000 A 
BRANCH   8  11
ATOM     11  O   UNL     1       1.306  10.800  17.996  0.00  0.00    +0.000 OA
ATOM     12  H   UNL     1       0.338  10.889  17.960  0.00  0.00    +0.000 HD
ENDBRANCH   8  11
BRANCH   9  13
ATOM     13  O   UNL     1       0.609  10.243  20.555  0.00  0.00    +0.000 OA
ATOM     14  H   UNL     1       1.331  10.818  20.878  0.00  0.00    +0.000 HD
ENDBRANCH   9  13
ENDBRANCH   4   5
ENDBRANCH   2   3
BRANCH   2  15
ATOM     15  O   UNL     1       1.069   2.552  20.464  0.00  0.00    +0.000 OA
BRANCH  15  16
ATOM     16  C   UNL     1       1.973   1.730  19.702  0.00  0.00    +0.000 C 
BRANCH  16  17
ATOM     17  C   UNL     1       2.576   2.503  18.587  0.00  0.00    +0.000 A 
ATOM     18  C   UNL     1       3.887   2.880  18.399  0.00  0.00    +0.000 A 
ATOM     19  N   UNL     1       3.902   3.539  17.192  0.00  0.00    +0.000 N 
ATOM     20  N   UNL     1       2.638   3.606  16.705  0.00  0.00    +0.000 NA
ATOM     21  N   UNL     1       1.828   2.964  17.539  0.00  0.00    +0.000 NA
BRANCH  19  22
ATOM     22  C   UNL     1       5.014   4.081  16.497  0.00  0.00    +0.000 A 
ATOM     23  C   UNL     1       5.315   3.660  15.193  0.00  0.00    +0.000 A 
ATOM     24  C   UNL     1       6.400   4.213  14.511  0.00  0.00    +0.000 A 
ATOM     25  C   UNL     1       7.192   5.182  15.124  0.00  0.00    +0.000 A 
ATOM     26  C   UNL     1       6.901   5.602  16.420  0.00  0.00    +0.000 A 
ATOM     27  C   UNL     1       5.813   5.059  17.109  0.00  0.00    +0.000 A 
ENDBRANCH  19  22
ENDBRANCH  16  17
ENDBRANCH  15  16
ENDBRANCH   2  15
TORSDOF 8
ENDMDL
MODEL 6
REMARK VINA RESULT:      -8.0      3.976      7.205
REMARK  Name = 
REMARK  8 active torsions:
REMARK  status: ('A' for Active; 'I' for Inactive)
REMARK    1  A    between atoms: C_2  and  C_3
REMARK    2  A    between atoms: C_2  and  O_13
REMARK    3  A    between atoms: C_4  and  C_5
REMARK    4  A    between atoms: C_8  and  O_9
REMARK    5  A    between atoms: C_10  and  O_11
REMARK    6  A    between atoms: O_13  and  C_14
REMARK    7  A    between atoms: C_14  and  C_15
REMARK    8  A    between atoms: N_17  and  C_18
REMARK                            x       y       z     vdW  Elec       q    Type
REMARK                         _______ _______ _______ _____ _____    ______ ____
ROOT
ATOM      1  O   UNL     1       2.138   2.645  21.803  0.00  0.00    +0.000 OA
ATOM      2  C   UNL     1       1.777   2.942  20.676  0.00  0.00    +0.000 C 
ENDROOT
BRANCH   2   3
ATOM      3  C   UNL     1       1.411   4.332  20.316  0.00  0.00    +0.000 C 
ATOM      4  C   UNL     1       2.198   5.400  20.518  0.00  0.00    +0.000 C 
BRANCH   4   5
ATOM      5  C   UNL     1       1.841   6.786  20.168  0.00  0.00    +0.000 A 
ATOM      6  C   UNL     1       1.244   7.669  21.085  0.00  0.00    +0.000 A 
ATOM      7  C   UNL     1       0.962   8.995  20.731  0.00  0.00    +0.000 A 
ATOM      8  C   UNL     1       1.289   9.442  19.459  0.00  0.00    +0.000 A 
ATOM      9  C   UNL     1       1.892   8.578  18.548  0.00  0.00    +0.000 A 
ATOM     10  C   UNL     1       2.172   7.261  18.891  0.00  0.00    +0.000 A 
BRANCH   8  11
ATOM     11  O   UNL     1       1.046  10.725  19.055  0.00  0.00    +0.000 OA
ATOM     12  H   UNL     1       0.116  10.784  18.777  0.00  0.00    +0.000 HD
ENDBRANCH   8  11
BRANCH   9  13
ATOM     13  O   UNL     1       2.219   9.026  17.300  0.00  0.00    +0.000 OA
ATOM     14  H   UNL     1       2.527   8.228  16.825  0.00  0.00    +0.000 HD
ENDBRANCH   9  13
ENDBRANCH   4   5
ENDBRANCH   2   3
BRANCH   2  15
ATOM     15  O   UNL     1       1.660   2.108  19.622  0.00  0.00    +0.000 OA
BRANCH  15  16
ATOM     16  C   UNL     1       2.882   1.732  18.961  0.00  0.00    +0.000 C 
BRANCH  16  17
ATOM     17  C   UNL     1       3.591   2.928  18.443  0.00  0.00    +0.000 A 
ATOM     18  C   UNL     1       4.666   3.603  18.978  0.00  0.00    +0.000 A 
ATOM     19  N   UNL     1       4.946   4.605  18.080  0.00  0.00    +0.000 N 
ATOM     20  N   UNL     1       4.037   4.568  17.074  0.00  0.00    +0.000 NA
ATOM     21  N   UNL     1       3.220   3.541  17.279  0.00  0.00    +0.000 NA
BRANCH  19  22
ATOM     22  C   UNL     1       5.998   5.555  18.118  0.00  0.00    +0.000 A 
ATOM     23  C   UNL     1       7.048   5.421  19.039  0.00  0.00    +0.000 A 
ATOM     24  C   UNL     1       8.089   6.351  19.056  0.00  0.00    +0.000 A 
ATOM     25  C   UNL     1       8.088   7.420  18.163  0.00  0.00    +0.000 A 
ATOM     26  C   UNL     1       7.046   7.562  17.247  0.00  0.00    +0.000 A 
ATOM     27  C   UNL     1       6.003   6.632  17.219  0.00  0.00    +0.000 A 
ENDBRANCH  19  22
ENDBRANCH  16  17
ENDBRANCH  15  16
ENDBRANCH   2  15
TORSDOF 8
ENDMDL
MODEL 7
REMARK VINA RESULT:      -8.0      1.477      1.643
REMARK  Name = 
REMARK  8 active torsions:
REMARK  status: ('A' for Active; 'I' for Inactive)
REMARK    1  A    between atoms: C_2  and  C_3
REMARK    2  A    between atoms: C_2  and  O_13
REMARK    3  A    between atoms: C_4  and  C_5
REMARK    4  A    between atoms: C_8  and  O_9
REMARK    5  A    between atoms: C_10  and  O_11
REMARK    6  A    between atoms: O_13  and  C_14
REMARK    7  A    between atoms: C_14  and  C_15
REMARK    8  A    between atoms: N_17  and  C_18
REMARK                            x       y       z     vdW  Elec       q    Type
REMARK                         _______ _______ _______ _____ _____    ______ ____
ROOT
ATOM      1  O   UNL     1       8.471   7.116  18.863  0.00  0.00    +0.000 OA
ATOM      2  C   UNL     1       7.981   7.889  18.055  0.00  0.00    +0.000 C 
ENDROOT
BRANCH   2   3
ATOM      3  C   UNL     1       8.423   9.300  17.961  0.00  0.00    +0.000 C 
ATOM      4  C   UNL     1       9.131   9.938  18.907  0.00  0.00    +0.000 C 
BRANCH   4   5
ATOM      5  C   UNL     1       9.570  11.342  18.824  0.00  0.00    +0.000 A 
ATOM      6  C   UNL     1      10.188  11.876  17.680  0.00  0.00    +0.000 A 
ATOM      7  C   UNL     1      10.549  13.228  17.619  0.00  0.00    +0.000 A 
ATOM      8  C   UNL     1      10.279  14.052  18.702  0.00  0.00    +0.000 A 
ATOM      9  C   UNL     1       9.655  13.535  19.835  0.00  0.00    +0.000 A 
ATOM     10  C   UNL     1       9.296  12.194  19.904  0.00  0.00    +0.000 A 
BRANCH   8  11
ATOM     11  O   UNL     1      10.599  15.381  18.702  0.00  0.00    +0.000 OA
ATOM     12  H   UNL     1      11.568  15.459  18.666  0.00  0.00    +0.000 HD
ENDBRANCH   8  11
BRANCH   9  13
ATOM     13  O   UNL     1       9.383  14.353  20.894  0.00  0.00    +0.000 OA
ATOM     14  H   UNL     1       8.446  14.174  21.110  0.00  0.00    +0.000 HD
ENDBRANCH   9  13
ENDBRANCH   4   5
ENDBRANCH   2   3
BRANCH   2  15
ATOM     15  O   UNL     1       7.015   7.609  17.157  0.00  0.00    +0.000 OA
BRANCH  15  16
ATOM     16  C   UNL     1       6.924   6.243  16.715  0.00  0.00    +0.000 C 
BRANCH  16  17
ATOM     17  C   UNL     1       6.109   5.436  17.658  0.00  0.00    +0.000 A 
ATOM     18  C   UNL     1       4.752   5.480  17.892  0.00  0.00    +0.000 A 
ATOM     19  N   UNL     1       4.518   4.500  18.827  0.00  0.00    +0.000 N 
ATOM     20  N   UNL     1       5.697   3.932  19.183  0.00  0.00    +0.000 NA
ATOM     21  N   UNL     1       6.667   4.484  18.464  0.00  0.00    +0.000 NA
BRANCH  19  22
ATOM     22  C   UNL     1       3.277   4.083  19.375  0.00  0.00    +0.000 A 
ATOM     23  C   UNL     1       2.892   2.734  19.325  0.00  0.00    +0.000 A 
ATOM     24  C   UNL     1       1.678   2.331  19.883  0.00  0.00    +0.000 A 
ATOM     25  C   UNL     1       0.840   3.266  20.487  0.00  0.00    +0.000 A 
ATOM     26  C   UNL     1       1.214   4.607  20.538  0.00  0.00    +0.000 A 
ATOM     27  C   UNL     1       2.431   5.020  19.986  0.00  0.00    +0.000 A 
ENDBRANCH  19  22
ENDBRANCH  16  17
ENDBRANCH  15  16
ENDBRANCH   2  15
TORSDOF 8
ENDMDL
MODEL 8
REMARK VINA RESULT:      -7.9      1.743      2.275
REMARK  Name = 
REMARK  8 active torsions:
REMARK  status: ('A' for Active; 'I' for Inactive)
REMARK    1  A    between atoms: C_2  and  C_3
REMARK    2  A    between atoms: C_2  and  O_13
REMARK    3  A    between atoms: C_4  and  C_5
REMARK    4  A    between atoms: C_8  and  O_9
REMARK    5  A    between atoms: C_10  and  O_11
REMARK    6  A    between atoms: O_13  and  C_14
REMARK    7  A    between atoms: C_14  and  C_15
REMARK    8  A    between atoms: N_17  and  C_18
REMARK                            x       y       z     vdW  Elec       q    Type
REMARK                         _______ _______ _______ _____ _____    ______ ____
ROOT
ATOM      1  O   UNL     1       7.543   7.055  16.328  0.00  0.00    +0.000 OA
ATOM      2  C   UNL     1       7.699   7.403  17.487  0.00  0.00    +0.000 C 
ENDROOT
BRANCH   2   3
ATOM      3  C   UNL     1       8.045   8.799  17.841  0.00  0.00    +0.000 C 
ATOM      4  C   UNL     1       8.872   9.145  18.840  0.00  0.00    +0.000 C 
BRANCH   4   5
ATOM      5  C   UNL     1       9.219  10.530  19.203  0.00  0.00    +0.000 A 
ATOM      6  C   UNL     1       9.347  11.554  18.248  0.00  0.00    +0.000 A 
ATOM      7  C   UNL     1       9.629  12.870  18.634  0.00  0.00    +0.000 A 
ATOM      8  C   UNL     1       9.773  13.166  19.982  0.00  0.00    +0.000 A 
ATOM      9  C   UNL     1       9.635  12.161  20.937  0.00  0.00    +0.000 A 
ATOM     10  C   UNL     1       9.357  10.852  20.561  0.00  0.00    +0.000 A 
BRANCH   8  11
ATOM     11  O   UNL     1      10.042  14.431  20.424  0.00  0.00    +0.000 OA
ATOM     12  H   UNL     1      10.494  14.362  21.283  0.00  0.00    +0.000 HD
ENDBRANCH   8  11
BRANCH   9  13
ATOM     13  O   UNL     1       9.768  12.460  22.262  0.00  0.00    +0.000 OA
ATOM     14  H   UNL     1      10.734  12.512  22.408  0.00  0.00    +0.000 HD
ENDBRANCH   9  13
ENDBRANCH   4   5
ENDBRANCH   2   3
BRANCH   2  15
ATOM     15  O   UNL     1       7.584   6.625  18.583  0.00  0.00    +0.000 OA
BRANCH  15  16
ATOM     16  C   UNL     1       7.679   5.204  18.375  0.00  0.00    +0.000 C 
BRANCH  16  17
ATOM     17  C   UNL     1       6.330   4.599  18.243  0.00  0.00    +0.000 A 
ATOM     18  C   UNL     1       5.373   4.386  19.210  0.00  0.00    +0.000 A 
ATOM     19  N   UNL     1       4.304   3.836  18.543  0.00  0.00    +0.000 N 
ATOM     20  N   UNL     1       4.630   3.672  17.237  0.00  0.00    +0.000 NA
ATOM     21  N   UNL     1       5.854   4.148  17.043  0.00  0.00    +0.000 NA
BRANCH  19  22
ATOM     22  C   UNL     1       3.031   3.481  19.059  0.00  0.00    +0.000 A 
ATOM     23  C   UNL     1       2.827   3.369  20.443  0.00  0.00    +0.000 A 
ATOM     24  C   UNL     1       1.566   3.038  20.941  0.00  0.00    +0.000 A 
ATOM     25  C   UNL     1       0.505   2.811  20.067  0.00  0.00    +0.000 A 
ATOM     26  C   UNL     1       0.701   2.917  18.691  0.00  0.00    +0.000 A 
ATOM     27  C   UNL     1       1.958   3.254  18.183  0.00  0.00    +0.000 A 
ENDBRANCH  19  22
ENDBRANCH  16  17
ENDBRANCH  15  16
ENDBRANCH   2  15
TORSDOF 8
ENDMDL
MODEL 9
REMARK VINA RESULT:      -7.9      1.360      1.740
REMARK  Name = 
REMARK  8 active torsions:
REMARK  status: ('A' for Active; 'I' for Inactive)
REMARK    1  A    between atoms: C_2  and  C_3
REMARK    2  A    between atoms: C_2  and  O_13
REMARK    3  A    between atoms: C_4  and  C_5
REMARK    4  A    between atoms: C_8  and  O_9
REMARK    5  A    between atoms: C_10  and  O_11
REMARK    6  A    between atoms: O_13  and  C_14
REMARK    7  A    between atoms: C_14  and  C_15
REMARK    8  A    between atoms: N_17  and  C_18
REMARK                            x       y       z     vdW  Elec       q    Type
REMARK                         _______ _______ _______ _____ _____    ______ ____
ROOT
ATOM      1  O   UNL     1       6.267   7.652  16.890  0.00  0.00    +0.000 OA
ATOM      2  C   UNL     1       7.362   7.747  17.419  0.00  0.00    +0.000 C 
ENDROOT
BRANCH   2   3
ATOM      3  C   UNL     1       7.989   9.063  17.681  0.00  0.00    +0.000 C 
ATOM      4  C   UNL     1       8.770   9.334  18.739  0.00  0.00    +0.000 C 
BRANCH   4   5
ATOM      5  C   UNL     1       9.393  10.640  19.011  0.00  0.00    +0.000 A 
ATOM      6  C   UNL     1       9.950  10.970  20.259  0.00  0.00    +0.000 A 
ATOM      7  C   UNL     1      10.578  12.205  20.467  0.00  0.00    +0.000 A 
ATOM      8  C   UNL     1      10.660  13.109  19.417  0.00  0.00    +0.000 A 
ATOM      9  C   UNL     1      10.123  12.787  18.173  0.00  0.00    +0.000 A 
ATOM     10  C   UNL     1       9.496  11.564  17.960  0.00  0.00    +0.000 A 
BRANCH   8  11
ATOM     11  O   UNL     1      11.266  14.327  19.553  0.00  0.00    +0.000 OA
ATOM     12  H   UNL     1      10.572  15.008  19.586  0.00  0.00    +0.000 HD
ENDBRANCH   8  11
BRANCH   9  13
ATOM     13  O   UNL     1      10.215  13.677  17.141  0.00  0.00    +0.000 OA
ATOM     14  H   UNL     1      10.002  14.543  17.543  0.00  0.00    +0.000 HD
ENDBRANCH   9  13
ENDBRANCH   4   5
ENDBRANCH   2   3
BRANCH   2  15
ATOM     15  O   UNL     1       8.145   6.730  17.837  0.00  0.00    +0.000 OA
BRANCH  15  16
ATOM     16  C   UNL     1       7.730   6.051  19.036  0.00  0.00    +0.000 C 
BRANCH  16  17
ATOM     17  C   UNL     1       6.528   5.217  18.781  0.00  0.00    +0.000 A 
ATOM     18  C   UNL     1       5.373   5.106  19.523  0.00  0.00    +0.000 A 
ATOM     19  N   UNL     1       4.577   4.233  18.820  0.00  0.00    +0.000 N 
ATOM     20  N   UNL     1       5.253   3.793  17.729  0.00  0.00    +0.000 NA
ATOM     21  N   UNL     1       6.434   4.399  17.690  0.00  0.00    +0.000 NA
BRANCH  19  22
ATOM     22  C   UNL     1       3.253   3.817  19.111  0.00  0.00    +0.000 A 
ATOM     23  C   UNL     1       2.319   3.631  18.081  0.00  0.00    +0.000 A 
ATOM     24  C   UNL     1       1.024   3.204  18.377  0.00  0.00    +0.000 A 
ATOM     25  C   UNL     1       0.650   2.965  19.698  0.00  0.00    +0.000 A 
ATOM     26  C   UNL     1       1.570   3.151  20.727  0.00  0.00    +0.000 A 
ATOM     27  C   UNL     1       2.872   3.573  20.440  0.00  0.00    +0.000 A 
ENDBRANCH  19  22
ENDBRANCH  16  17
ENDBRANCH  15  16
ENDBRANCH   2  15
TORSDOF 8
ENDMDL
