MODEL 1
REMARK VINA RESULT:      -8.1      0.000      0.000
REMARK  Name = 
REMARK  9 active torsions:
REMARK  status: ('A' for Active; 'I' for Inactive)
REMARK    1  A    between atoms: C_1  and  C_2
REMARK    2  A    between atoms: C_6  and  C_7
REMARK    3  A    between atoms: C_8  and  N_9
REMARK    4  A    between atoms: C_13  and  S_14
REMARK    5  A    between atoms: S_14  and  C_15
REMARK    6  A    between atoms: C_17  and  C_18
REMARK    7  A    between atoms: C_18  and  N_19
REMARK    8  A    between atoms: C_28  and  C_29
REMARK    9  A    between atoms: C_30  and  C_31
REMARK                            x       y       z     vdW  Elec       q    Type
REMARK                         _______ _______ _______ _____ _____    ______ ____
ROOT
ATOM      1  C   UNL     1       2.505   6.797  19.110  0.00  0.00    +0.000 A 
ATOM      2  N   UNL     1       3.816   7.162  18.927  0.00  0.00    +0.000 NA
ATOM      3  C   UNL     1       4.641   6.244  18.401  0.00  0.00    +0.000 A 
ATOM      4  N   UNL     1       4.665   5.024  18.910  0.00  0.00    +0.000 NA
ATOM      5  C   UNL     1       3.401   4.553  18.852  0.00  0.00    +0.000 A 
ATOM      6  S   UNL     1       3.069   3.101  18.025  0.00  0.00    +0.000 S 
ATOM      7  C   UNL     1       1.460   3.109  18.629  0.00  0.00    +0.000 A 
ATOM      8  C   UNL     1       0.780   1.768  18.567  0.00  0.00    +0.000 C 
ATOM      9  C   UNL     1       1.378   4.223  19.492  0.00  0.00    +0.000 A 
ATOM     10  C   UNL     1       1.104   3.961  20.954  0.00  0.00    +0.000 C 
ATOM     11  C   UNL     1       2.231   5.329  18.981  0.00  0.00    +0.000 A 
ENDROOT
BRANCH   1  12
ATOM     12  S   UNL     1       1.443   7.958  18.141  0.00  0.00    +0.000 S 
BRANCH  12  17
ATOM     13  N   UNL     1       1.234  10.658  19.270  0.00  0.00    +0.000 N 
ATOM     14  N   UNL     1       1.754  11.874  18.978  0.00  0.00    +0.000 NA
ATOM     15  N   UNL     1       2.565  11.705  17.945  0.00  0.00    +0.000 NA
ATOM     16  N   UNL     1       2.575  10.411  17.491  0.00  0.00    +0.000 NA
ATOM     17  C   UNL     1       1.748   9.725  18.255  0.00  0.00    +0.000 A 
BRANCH  13  25
ATOM     18  C   UNL     1      -1.733  11.301  19.003  0.00  0.00    +0.000 C 
ATOM     19  C   UNL     1      -0.919  11.254  20.288  0.00  0.00    +0.000 A 
ATOM     20  C   UNL     1      -1.594  11.652  21.428  0.00  0.00    +0.000 A 
ATOM     21  C   UNL     1      -1.216  11.154  22.677  0.00  0.00    +0.000 A 
ATOM     22  C   UNL     1      -0.231  10.146  22.722  0.00  0.00    +0.000 A 
ATOM     23  C   UNL     1       0.505   9.800  21.580  0.00  0.00    +0.000 A 
ATOM     24  C   UNL     1       1.331   8.533  21.783  0.00  0.00    +0.000 C 
ATOM     25  C   UNL     1       0.282  10.522  20.369  0.00  0.00    +0.000 A 
ENDBRANCH  13  25
ENDBRANCH  12  17
ENDBRANCH   1  12
BRANCH   3  26
ATOM     26  C   UNL     1       4.538   6.105  16.856  0.00  0.00    +0.000 C 
BRANCH  26  27
ATOM     27  N   UNL     1       5.657   6.471  16.004  0.00  0.00    +0.000 NA
ATOM     28  C   UNL     1       5.825   5.364  15.025  0.00  0.00    +0.000 C 
ATOM     29  C   UNL     1       6.438   4.069  15.585  0.00  0.00    +0.000 C 
ATOM     30  O   UNL     1       7.685   4.339  16.230  0.00  0.00    +0.000 OA
ATOM     31  C   UNL     1       7.509   5.276  17.298  0.00  0.00    +0.000 C 
ATOM     32  C   UNL     1       6.899   6.598  16.798  0.00  0.00    +0.000 C 
ENDBRANCH  26  27
ENDBRANCH   3  26
TORSDOF 5
ENDMDL
MODEL 2
REMARK VINA RESULT:      -7.4      5.847      9.477
REMARK  Name = 
REMARK  9 active torsions:
REMARK  status: ('A' for Active; 'I' for Inactive)
REMARK    1  A    between atoms: C_1  and  C_2
REMARK    2  A    between atoms: C_6  and  C_7
REMARK    3  A    between atoms: C_8  and  N_9
REMARK    4  A    between atoms: C_13  and  S_14
REMARK    5  A    between atoms: S_14  and  C_15
REMARK    6  A    between atoms: C_17  and  C_18
REMARK    7  A    between atoms: C_18  and  N_19
REMARK    8  A    between atoms: C_28  and  C_29
REMARK    9  A    between atoms: C_30  and  C_31
REMARK                            x       y       z     vdW  Elec       q    Type
REMARK                         _______ _______ _______ _____ _____    ______ ____
ROOT
ATOM      1  C   UNL     1      -1.444  12.546  21.475  0.00  0.00    +0.000 A 
ATOM      2  N   UNL     1      -0.881  13.692  21.982  0.00  0.00    +0.000 NA
ATOM      3  C   UNL     1       0.265  14.110  21.426  0.00  0.00    +0.000 A 
ATOM      4  N   UNL     1       1.259  13.252  21.262  0.00  0.00    +0.000 NA
ATOM      5  C   UNL     1       0.771  12.229  20.529  0.00  0.00    +0.000 A 
ATOM      6  S   UNL     1       1.515  11.806  19.055  0.00  0.00    +0.000 S 
ATOM      7  C   UNL     1       0.540  10.394  18.954  0.00  0.00    +0.000 A 
ATOM      8  C   UNL     1       1.080   9.347  18.017  0.00  0.00    +0.000 C 
ATOM      9  C   UNL     1      -0.218  10.363  20.144  0.00  0.00    +0.000 A 
ATOM     10  C   UNL     1       0.003   9.206  21.089  0.00  0.00    +0.000 C 
ATOM     11  C   UNL     1      -0.552  11.747  20.574  0.00  0.00    +0.000 A 
ENDROOT
BRANCH   1  12
ATOM     12  S   UNL     1      -3.139  12.958  20.864  0.00  0.00    +0.000 S 
BRANCH  12  17
ATOM     13  N   UNL     1      -5.956  12.513  21.551  0.00  0.00    +0.000 N 
ATOM     14  N   UNL     1      -6.653  12.299  22.692  0.00  0.00    +0.000 NA
ATOM     15  N   UNL     1      -5.770  12.262  23.679  0.00  0.00    +0.000 NA
ATOM     16  N   UNL     1      -4.490  12.495  23.247  0.00  0.00    +0.000 NA
ATOM     17  C   UNL     1      -4.548  12.686  21.944  0.00  0.00    +0.000 A 
BRANCH  13  25
ATOM     18  C   UNL     1      -7.159  10.116  20.103  0.00  0.00    +0.000 C 
ATOM     19  C   UNL     1      -6.770  11.453  19.491  0.00  0.00    +0.000 A 
ATOM     20  C   UNL     1      -6.885  11.528  18.115  0.00  0.00    +0.000 A 
ATOM     21  C   UNL     1      -7.115  12.759  17.495  0.00  0.00    +0.000 A 
ATOM     22  C   UNL     1      -7.357  13.882  18.313  0.00  0.00    +0.000 A 
ATOM     23  C   UNL     1      -7.164  13.823  19.701  0.00  0.00    +0.000 A 
ATOM     24  C   UNL     1      -7.715  15.053  20.415  0.00  0.00    +0.000 C 
ATOM     25  C   UNL     1      -6.664  12.617  20.278  0.00  0.00    +0.000 A 
ENDBRANCH  13  25
ENDBRANCH  12  17
ENDBRANCH   1  12
BRANCH   3  26
ATOM     26  C   UNL     1       0.083  14.877  20.086  0.00  0.00    +0.000 C 
BRANCH  26  27
ATOM     27  N   UNL     1      -0.395  16.250  20.080  0.00  0.00    +0.000 NA
ATOM     28  C   UNL     1      -0.213  16.756  18.694  0.00  0.00    +0.000 C 
ATOM     29  C   UNL     1       1.238  17.067  18.286  0.00  0.00    +0.000 C 
ATOM     30  O   UNL     1       1.840  17.971  19.216  0.00  0.00    +0.000 OA
ATOM     31  C   UNL     1       1.831  17.417  20.536  0.00  0.00    +0.000 C 
ATOM     32  C   UNL     1       0.401  17.086  21.003  0.00  0.00    +0.000 C 
ENDBRANCH  26  27
ENDBRANCH   3  26
TORSDOF 5
ENDMDL
MODEL 3
REMARK VINA RESULT:      -7.4      6.057      9.758
REMARK  Name = 
REMARK  9 active torsions:
REMARK  status: ('A' for Active; 'I' for Inactive)
REMARK    1  A    between atoms: C_1  and  C_2
REMARK    2  A    between atoms: C_6  and  C_7
REMARK    3  A    between atoms: C_8  and  N_9
REMARK    4  A    between atoms: C_13  and  S_14
REMARK    5  A    between atoms: S_14  and  C_15
REMARK    6  A    between atoms: C_17  and  C_18
REMARK    7  A    between atoms: C_18  and  N_19
REMARK    8  A    between atoms: C_28  and  C_29
REMARK    9  A    between atoms: C_30  and  C_31
REMARK                            x       y       z     vdW  Elec       q    Type
REMARK                         _______ _______ _______ _____ _____    ______ ____
ROOT
ATOM      1  C   UNL     1      -1.582  12.487  21.651  0.00  0.00    +0.000 A 
ATOM      2  N   UNL     1      -1.040  13.619  22.208  0.00  0.00    +0.000 NA
ATOM      3  C   UNL     1       0.118  14.062  21.696  0.00  0.00    +0.000 A 
ATOM      4  N   UNL     1       1.121  13.215  21.531  0.00  0.00    +0.000 NA
ATOM      5  C   UNL     1       0.659  12.212  20.755  0.00  0.00    +0.000 A 
ATOM      6  S   UNL     1       1.445  11.840  19.289  0.00  0.00    +0.000 S 
ATOM      7  C   UNL     1       0.482  10.426  19.117  0.00  0.00    +0.000 A 
ATOM      8  C   UNL     1       1.053   9.413  18.162  0.00  0.00    +0.000 C 
ATOM      9  C   UNL     1      -0.308  10.354  20.285  0.00  0.00    +0.000 A 
ATOM     10  C   UNL     1      -0.104   9.168  21.199  0.00  0.00    +0.000 C 
ATOM     11  C   UNL     1      -0.662  11.722  20.749  0.00  0.00    +0.000 A 
ENDROOT
BRANCH   1  12
ATOM     12  S   UNL     1      -3.263  12.909  21.008  0.00  0.00    +0.000 S 
BRANCH  12  17
ATOM     13  N   UNL     1      -6.090  12.449  21.642  0.00  0.00    +0.000 N 
ATOM     14  N   UNL     1      -6.810  12.258  22.773  0.00  0.00    +0.000 NA
ATOM     15  N   UNL     1      -5.950  12.256  23.780  0.00  0.00    +0.000 NA
ATOM     16  N   UNL     1      -4.663  12.492  23.371  0.00  0.00    +0.000 NA
ATOM     17  C   UNL     1      -4.694  12.649  22.062  0.00  0.00    +0.000 A 
BRANCH  13  25
ATOM     18  C   UNL     1      -7.165   9.992  20.194  0.00  0.00    +0.000 C 
ATOM     19  C   UNL     1      -6.812  11.337  19.576  0.00  0.00    +0.000 A 
ATOM     20  C   UNL     1      -6.896  11.392  18.197  0.00  0.00    +0.000 A 
ATOM     21  C   UNL     1      -7.157  12.606  17.557  0.00  0.00    +0.000 A 
ATOM     22  C   UNL     1      -7.462  13.728  18.355  0.00  0.00    +0.000 A 
ATOM     23  C   UNL     1      -7.301  13.691  19.748  0.00  0.00    +0.000 A 
ATOM     24  C   UNL     1      -7.916  14.908  20.434  0.00  0.00    +0.000 C 
ATOM     25  C   UNL     1      -6.770  12.512  20.351  0.00  0.00    +0.000 A 
ENDBRANCH  13  25
ENDBRANCH  12  17
ENDBRANCH   1  12
BRANCH   3  26
ATOM     26  C   UNL     1      -0.034  14.869  20.377  0.00  0.00    +0.000 C 
BRANCH  26  27
ATOM     27  N   UNL     1       0.728  16.088  20.164  0.00  0.00    +0.000 NA
ATOM     28  C   UNL     1       0.250  17.069  21.174  0.00  0.00    +0.000 C 
ATOM     29  C   UNL     1      -1.139  17.675  20.906  0.00  0.00    +0.000 C 
ATOM     30  O   UNL     1      -1.192  18.256  19.602  0.00  0.00    +0.000 OA
ATOM     31  C   UNL     1      -0.905  17.276  18.599  0.00  0.00    +0.000 C 
ATOM     32  C   UNL     1       0.478  16.633  18.812  0.00  0.00    +0.000 C 
ENDBRANCH  26  27
ENDBRANCH   3  26
TORSDOF 5
ENDMDL
MODEL 4
REMARK VINA RESULT:      -7.2      2.040      4.132
REMARK  Name = 
REMARK  9 active torsions:
REMARK  status: ('A' for Active; 'I' for Inactive)
REMARK    1  A    between atoms: C_1  and  C_2
REMARK    2  A    between atoms: C_6  and  C_7
REMARK    3  A    between atoms: C_8  and  N_9
REMARK    4  A    between atoms: C_13  and  S_14
REMARK    5  A    between atoms: S_14  and  C_15
REMARK    6  A    between atoms: C_17  and  C_18
REMARK    7  A    between atoms: C_18  and  N_19
REMARK    8  A    between atoms: C_28  and  C_29
REMARK    9  A    between atoms: C_30  and  C_31
REMARK                            x       y       z     vdW  Elec       q    Type
REMARK                         _______ _______ _______ _____ _____    ______ ____
ROOT
ATOM      1  C   UNL     1       2.603   6.847  17.741  0.00  0.00    +0.000 A 
ATOM      2  N   UNL     1       1.658   5.881  17.492  0.00  0.00    +0.000 NA
ATOM      3  C   UNL     1       2.005   4.607  17.727  0.00  0.00    +0.000 A 
ATOM      4  N   UNL     1       3.143   4.144  17.238  0.00  0.00    +0.000 NA
ATOM      5  C   UNL     1       4.122   4.951  17.699  0.00  0.00    +0.000 A 
ATOM      6  S   UNL     1       5.418   4.295  18.590  0.00  0.00    +0.000 S 
ATOM      7  C   UNL     1       6.237   5.805  18.535  0.00  0.00    +0.000 A 
ATOM      8  C   UNL     1       7.713   5.708  18.814  0.00  0.00    +0.000 C 
ATOM      9  C   UNL     1       5.431   6.652  17.743  0.00  0.00    +0.000 A 
ATOM     10  C   UNL     1       6.012   7.165  16.447  0.00  0.00    +0.000 C 
ATOM     11  C   UNL     1       3.994   6.332  17.952  0.00  0.00    +0.000 A 
ENDROOT
BRANCH   1  12
ATOM     12  S   UNL     1       1.917   8.014  18.999  0.00  0.00    +0.000 S 
BRANCH  12  17
ATOM     13  N   UNL     1       1.130  10.819  19.338  0.00  0.00    +0.000 N 
ATOM     14  N   UNL     1       1.449  11.994  18.745  0.00  0.00    +0.000 NA
ATOM     15  N   UNL     1       2.367  11.724  17.830  0.00  0.00    +0.000 NA
ATOM     16  N   UNL     1       2.649  10.385  17.748  0.00  0.00    +0.000 NA
ATOM     17  C   UNL     1       1.891   9.773  18.638  0.00  0.00    +0.000 A 
BRANCH  13  25
ATOM     18  C   UNL     1      -1.853  11.162  18.814  0.00  0.00    +0.000 C 
ATOM     19  C   UNL     1      -1.123  11.398  20.127  0.00  0.00    +0.000 A 
ATOM     20  C   UNL     1      -1.896  11.924  21.146  0.00  0.00    +0.000 A 
ATOM     21  C   UNL     1      -1.564  11.674  22.479  0.00  0.00    +0.000 A 
ATOM     22  C   UNL     1      -0.513  10.773  22.747  0.00  0.00    +0.000 A 
ATOM     23  C   UNL     1       0.318  10.303  21.720  0.00  0.00    +0.000 A 
ATOM     24  C   UNL     1       1.219   9.160  22.181  0.00  0.00    +0.000 C 
ATOM     25  C   UNL     1       0.121  10.792  20.394  0.00  0.00    +0.000 A 
ENDBRANCH  13  25
ENDBRANCH  12  17
ENDBRANCH   1  12
BRANCH   3  26
ATOM     26  C   UNL     1       1.934   4.191  19.223  0.00  0.00    +0.000 C 
BRANCH  26  27
ATOM     27  N   UNL     1       1.550   2.840  19.597  0.00  0.00    +0.000 NA
ATOM     28  C   UNL     1       1.020   2.919  20.984  0.00  0.00    +0.000 C 
ATOM     29  C   UNL     1       2.073   3.120  22.087  0.00  0.00    +0.000 C 
ATOM     30  O   UNL     1       3.082   2.111  22.010  0.00  0.00    +0.000 OA
ATOM     31  C   UNL     1       3.729   2.139  20.733  0.00  0.00    +0.000 C 
ATOM     32  C   UNL     1       2.723   1.940  19.584  0.00  0.00    +0.000 C 
ENDBRANCH  26  27
ENDBRANCH   3  26
TORSDOF 5
ENDMDL
MODEL 5
REMARK VINA RESULT:      -7.2      5.769      9.308
REMARK  Name = 
REMARK  9 active torsions:
REMARK  status: ('A' for Active; 'I' for Inactive)
REMARK    1  A    between atoms: C_1  and  C_2
REMARK    2  A    between atoms: C_6  and  C_7
REMARK    3  A    between atoms: C_8  and  N_9
REMARK    4  A    between atoms: C_13  and  S_14
REMARK    5  A    between atoms: S_14  and  C_15
REMARK    6  A    between atoms: C_17  and  C_18
REMARK    7  A    between atoms: C_18  and  N_19
REMARK    8  A    between atoms: C_28  and  C_29
REMARK    9  A    between atoms: C_30  and  C_31
REMARK                            x       y       z     vdW  Elec       q    Type
REMARK                         _______ _______ _______ _____ _____    ______ ____
ROOT
ATOM      1  C   UNL     1      -0.971  12.418  21.776  0.00  0.00    +0.000 A 
ATOM      2  N   UNL     1      -0.360  13.555  22.248  0.00  0.00    +0.000 NA
ATOM      3  C   UNL     1       0.693  14.016  21.558  0.00  0.00    +0.000 A 
ATOM      4  N   UNL     1       1.667  13.184  21.226  0.00  0.00    +0.000 NA
ATOM      5  C   UNL     1       1.098  12.180  20.526  0.00  0.00    +0.000 A 
ATOM      6  S   UNL     1       1.640  11.827  18.949  0.00  0.00    +0.000 S 
ATOM      7  C   UNL     1       0.680  10.401  18.924  0.00  0.00    +0.000 A 
ATOM      8  C   UNL     1       1.101   9.402  17.882  0.00  0.00    +0.000 C 
ATOM      9  C   UNL     1       0.091  10.311  20.205  0.00  0.00    +0.000 A 
ATOM     10  C   UNL     1       0.456   9.123  21.063  0.00  0.00    +0.000 C 
ATOM     11  C   UNL     1      -0.200  11.671  20.731  0.00  0.00    +0.000 A 
ENDROOT
BRANCH   1  12
ATOM     12  S   UNL     1      -2.739  12.821  21.418  0.00  0.00    +0.000 S 
BRANCH  12  17
ATOM     13  N   UNL     1      -5.404  12.907  22.641  0.00  0.00    +0.000 N 
ATOM     14  N   UNL     1      -5.929  12.574  23.845  0.00  0.00    +0.000 NA
ATOM     15  N   UNL     1      -4.943  12.063  24.565  0.00  0.00    +0.000 NA
ATOM     16  N   UNL     1      -3.743  12.084  23.902  0.00  0.00    +0.000 NA
ATOM     17  C   UNL     1      -3.963  12.622  22.718  0.00  0.00    +0.000 A 
BRANCH  13  25
ATOM     18  C   UNL     1      -7.216  11.295  20.795  0.00  0.00    +0.000 C 
ATOM     19  C   UNL     1      -6.682  12.699  20.555  0.00  0.00    +0.000 A 
ATOM     20  C   UNL     1      -6.976  13.239  19.316  0.00  0.00    +0.000 A 
ATOM     21  C   UNL     1      -7.065  14.623  19.156  0.00  0.00    +0.000 A 
ATOM     22  C   UNL     1      -6.981  15.434  20.307  0.00  0.00    +0.000 A 
ATOM     23  C   UNL     1      -6.606  14.896  21.546  0.00  0.00    +0.000 A 
ATOM     24  C   UNL     1      -6.817  15.880  22.693  0.00  0.00    +0.000 C 
ATOM     25  C   UNL     1      -6.256  13.514  21.622  0.00  0.00    +0.000 A 
ENDBRANCH  13  25
ENDBRANCH  12  17
ENDBRANCH   1  12
BRANCH   3  26
ATOM     26  C   UNL     1       0.319  14.829  20.287  0.00  0.00    +0.000 C 
BRANCH  26  27
ATOM     27  N   UNL     1       0.045  16.254  20.376  0.00  0.00    +0.000 NA
ATOM     28  C   UNL     1       0.051  16.774  18.983  0.00  0.00    +0.000 C 
ATOM     29  C   UNL     1       1.436  16.896  18.325  0.00  0.00    +0.000 C 
ATOM     30  O   UNL     1       2.313  17.678  19.138  0.00  0.00    +0.000 OA
ATOM     31  C   UNL     1       2.460  17.089  20.435  0.00  0.00    +0.000 C 
ATOM     32  C   UNL     1       1.102  16.943  21.147  0.00  0.00    +0.000 C 
ENDBRANCH  26  27
ENDBRANCH   3  26
TORSDOF 5
ENDMDL
MODEL 6
REMARK VINA RESULT:      -7.2      1.665      2.630
REMARK  Name = 
REMARK  9 active torsions:
REMARK  status: ('A' for Active; 'I' for Inactive)
REMARK    1  A    between atoms: C_1  and  C_2
REMARK    2  A    between atoms: C_6  and  C_7
REMARK    3  A    between atoms: C_8  and  N_9
REMARK    4  A    between atoms: C_13  and  S_14
REMARK    5  A    between atoms: S_14  and  C_15
REMARK    6  A    between atoms: C_17  and  C_18
REMARK    7  A    between atoms: C_18  and  N_19
REMARK    8  A    between atoms: C_28  and  C_29
REMARK    9  A    between atoms: C_30  and  C_31
REMARK                            x       y       z     vdW  Elec       q    Type
REMARK                         _______ _______ _______ _____ _____    ______ ____
ROOT
ATOM      1  C   UNL     1       2.862   6.416  19.876  0.00  0.00    +0.000 A 
ATOM      2  N   UNL     1       4.160   6.675  19.507  0.00  0.00    +0.000 NA
ATOM      3  C   UNL     1       4.726   5.839  18.624  0.00  0.00    +0.000 A 
ATOM      4  N   UNL     1       4.654   4.533  18.828  0.00  0.00    +0.000 NA
ATOM      5  C   UNL     1       3.343   4.228  18.934  0.00  0.00    +0.000 A 
ATOM      6  S   UNL     1       2.650   3.073  17.890  0.00  0.00    +0.000 S 
ATOM      7  C   UNL     1       1.196   3.098  18.806  0.00  0.00    +0.000 A 
ATOM      8  C   UNL     1       0.319   1.895  18.588  0.00  0.00    +0.000 C 
ATOM      9  C   UNL     1       1.442   3.962  19.896  0.00  0.00    +0.000 A 
ATOM     10  C   UNL     1       1.399   3.370  21.285  0.00  0.00    +0.000 C 
ATOM     11  C   UNL     1       2.349   5.065  19.480  0.00  0.00    +0.000 A 
ENDROOT
BRANCH   1  12
ATOM     12  S   UNL     1       1.834   7.889  19.441  0.00  0.00    +0.000 S 
BRANCH  12  17
ATOM     13  N   UNL     1       0.193  10.007  20.635  0.00  0.00    +0.000 N 
ATOM     14  N   UNL     1      -0.365  10.234  21.848  0.00  0.00    +0.000 NA
ATOM     15  N   UNL     1      -0.083   9.182  22.601  0.00  0.00    +0.000 NA
ATOM     16  N   UNL     1       0.697   8.262  21.948  0.00  0.00    +0.000 NA
ATOM     17  C   UNL     1       0.924   8.734  20.738  0.00  0.00    +0.000 A 
BRANCH  13  25
ATOM     18  C   UNL     1       2.136  12.329  20.281  0.00  0.00    +0.000 C 
ATOM     19  C   UNL     1       0.705  12.248  19.771  0.00  0.00    +0.000 A 
ATOM     20  C   UNL     1       0.224  13.402  19.180  0.00  0.00    +0.000 A 
ATOM     21  C   UNL     1      -0.779  13.329  18.212  0.00  0.00    +0.000 A 
ATOM     22  C   UNL     1      -1.182  12.054  17.764  0.00  0.00    +0.000 A 
ATOM     23  C   UNL     1      -0.752  10.889  18.415  0.00  0.00    +0.000 A 
ATOM     24  C   UNL     1      -1.096   9.626  17.629  0.00  0.00    +0.000 C 
ATOM     25  C   UNL     1       0.064  11.009  19.579  0.00  0.00    +0.000 A 
ENDBRANCH  13  25
ENDBRANCH  12  17
ENDBRANCH   1  12
BRANCH   3  26
ATOM     26  C   UNL     1       4.326   6.104  17.146  0.00  0.00    +0.000 C 
BRANCH  26  27
ATOM     27  N   UNL     1       5.300   6.621  16.199  0.00  0.00    +0.000 NA
ATOM     28  C   UNL     1       5.481   5.572  15.161  0.00  0.00    +0.000 C 
ATOM     29  C   UNL     1       6.289   4.338  15.597  0.00  0.00    +0.000 C 
ATOM     30  O   UNL     1       7.561   4.728  16.119  0.00  0.00    +0.000 OA
ATOM     31  C   UNL     1       7.401   5.605  17.239  0.00  0.00    +0.000 C 
ATOM     32  C   UNL     1       6.599   6.865  16.863  0.00  0.00    +0.000 C 
ENDBRANCH  26  27
ENDBRANCH   3  26
TORSDOF 5
ENDMDL
MODEL 7
REMARK VINA RESULT:      -7.1      5.703      8.747
REMARK  Name = 
REMARK  9 active torsions:
REMARK  status: ('A' for Active; 'I' for Inactive)
REMARK    1  A    between atoms: C_1  and  C_2
REMARK    2  A    between atoms: C_6  and  C_7
REMARK    3  A    between atoms: C_8  and  N_9
REMARK    4  A    between atoms: C_13  and  S_14
REMARK    5  A    between atoms: S_14  and  C_15
REMARK    6  A    between atoms: C_17  and  C_18
REMARK    7  A    between atoms: C_18  and  N_19
REMARK    8  A    between atoms: C_28  and  C_29
REMARK    9  A    between atoms: C_30  and  C_31
REMARK                            x       y       z     vdW  Elec       q    Type
REMARK                         _______ _______ _______ _____ _____    ______ ____
ROOT
ATOM      1  C   UNL     1      -0.996  12.383  21.565  0.00  0.00    +0.000 A 
ATOM      2  N   UNL     1      -0.458  13.548  22.055  0.00  0.00    +0.000 NA
ATOM      3  C   UNL     1       0.626  14.034  21.432  0.00  0.00    +0.000 A 
ATOM      4  N   UNL     1       1.648  13.230  21.187  0.00  0.00    +0.000 NA
ATOM      5  C   UNL     1       1.165  12.194  20.470  0.00  0.00    +0.000 A 
ATOM      6  S   UNL     1       1.829  11.831  18.943  0.00  0.00    +0.000 S 
ATOM      7  C   UNL     1       0.921  10.373  18.880  0.00  0.00    +0.000 A 
ATOM      8  C   UNL     1       1.449   9.369  17.891  0.00  0.00    +0.000 C 
ATOM      9  C   UNL     1       0.246  10.286  20.117  0.00  0.00    +0.000 A 
ATOM     10  C   UNL     1       0.588   9.127  21.024  0.00  0.00    +0.000 C 
ATOM     11  C   UNL     1      -0.127  11.644  20.593  0.00  0.00    +0.000 A 
ENDROOT
BRANCH   1  12
ATOM     12  S   UNL     1      -2.746  12.717  21.074  0.00  0.00    +0.000 S 
BRANCH  12  17
ATOM     13  N   UNL     1      -4.725  11.980  19.038  0.00  0.00    +0.000 N 
ATOM     14  N   UNL     1      -4.681  11.567  17.749  0.00  0.00    +0.000 NA
ATOM     15  N   UNL     1      -3.406  11.556  17.393  0.00  0.00    +0.000 NA
ATOM     16  N   UNL     1      -2.571  11.904  18.423  0.00  0.00    +0.000 NA
ATOM     17  C   UNL     1      -3.330  12.148  19.474  0.00  0.00    +0.000 A 
BRANCH  13  25
ATOM     18  C   UNL     1      -6.335  14.563  19.203  0.00  0.00    +0.000 C 
ATOM     19  C   UNL     1      -6.435  13.362  20.131  0.00  0.00    +0.000 A 
ATOM     20  C   UNL     1      -7.276  13.524  21.217  0.00  0.00    +0.000 A 
ATOM     21  C   UNL     1      -7.892  12.415  21.800  0.00  0.00    +0.000 A 
ATOM     22  C   UNL     1      -7.742  11.162  21.172  0.00  0.00    +0.000 A 
ATOM     23  C   UNL     1      -6.831  10.983  20.121  0.00  0.00    +0.000 A 
ATOM     24  C   UNL     1      -7.002   9.635  19.428  0.00  0.00    +0.000 C 
ATOM     25  C   UNL     1      -6.011  12.082  19.723  0.00  0.00    +0.000 A 
ENDBRANCH  13  25
ENDBRANCH  12  17
ENDBRANCH   1  12
BRANCH   3  26
ATOM     26  C   UNL     1       0.316  14.810  20.121  0.00  0.00    +0.000 C 
BRANCH  26  27
ATOM     27  N   UNL     1      -0.036  16.219  20.163  0.00  0.00    +0.000 NA
ATOM     28  C   UNL     1       0.096  16.731  18.773  0.00  0.00    +0.000 C 
ATOM     29  C   UNL     1       1.537  16.918  18.268  0.00  0.00    +0.000 C 
ATOM     30  O   UNL     1       2.281  17.748  19.163  0.00  0.00    +0.000 OA
ATOM     31  C   UNL     1       2.313  17.176  20.475  0.00  0.00    +0.000 C 
ATOM     32  C   UNL     1       0.895  16.965  21.037  0.00  0.00    +0.000 C 
ENDBRANCH  26  27
ENDBRANCH   3  26
TORSDOF 5
ENDMDL
MODEL 8
REMARK VINA RESULT:      -7.1      5.960      9.016
REMARK  Name = 
REMARK  9 active torsions:
REMARK  status: ('A' for Active; 'I' for Inactive)
REMARK    1  A    between atoms: C_1  and  C_2
REMARK    2  A    between atoms: C_6  and  C_7
REMARK    3  A    between atoms: C_8  and  N_9
REMARK    4  A    between atoms: C_13  and  S_14
REMARK    5  A    between atoms: S_14  and  C_15
REMARK    6  A    between atoms: C_17  and  C_18
REMARK    7  A    between atoms: C_18  and  N_19
REMARK    8  A    between atoms: C_28  and  C_29
REMARK    9  A    between atoms: C_30  and  C_31
REMARK                            x       y       z     vdW  Elec       q    Type
REMARK                         _______ _______ _______ _____ _____    ______ ____
ROOT
ATOM      1  C   UNL     1      -0.474  13.165  22.013  0.00  0.00    +0.000 A 
ATOM      2  N   UNL     1       0.398  14.167  22.364  0.00  0.00    +0.000 NA
ATOM      3  C   UNL     1       1.430  14.399  21.540  0.00  0.00    +0.000 A 
ATOM      4  N   UNL     1       2.177  13.386  21.134  0.00  0.00    +0.000 NA
ATOM      5  C   UNL     1       1.346  12.500  20.546  0.00  0.00    +0.000 A 
ATOM      6  S   UNL     1       1.615  12.019  18.933  0.00  0.00    +0.000 S 
ATOM      7  C   UNL     1       0.402  10.810  19.077  0.00  0.00    +0.000 A 
ATOM      8  C   UNL     1       0.494   9.728  18.036  0.00  0.00    +0.000 C 
ATOM      9  C   UNL     1      -0.035  10.861  20.419  0.00  0.00    +0.000 A 
ATOM     10  C   UNL     1       0.194   9.641  21.279  0.00  0.00    +0.000 C 
ATOM     11  C   UNL     1       0.008  12.261  20.918  0.00  0.00    +0.000 A 
ENDROOT
BRANCH   1  12
ATOM     12  S   UNL     1      -2.160  13.901  21.842  0.00  0.00    +0.000 S 
BRANCH  12  17
ATOM     13  N   UNL     1      -4.878  12.877  22.259  0.00  0.00    +0.000 N 
ATOM     14  N   UNL     1      -5.553  12.311  23.287  0.00  0.00    +0.000 NA
ATOM     15  N   UNL     1      -4.696  12.196  24.290  0.00  0.00    +0.000 NA
ATOM     16  N   UNL     1      -3.464  12.717  23.991  0.00  0.00    +0.000 NA
ATOM     17  C   UNL     1      -3.527  13.179  22.758  0.00  0.00    +0.000 A 
BRANCH  13  25
ATOM     18  C   UNL     1      -6.590  15.354  21.785  0.00  0.00    +0.000 C 
ATOM     19  C   UNL     1      -6.661  14.035  21.031  0.00  0.00    +0.000 A 
ATOM     20  C   UNL     1      -7.689  13.937  20.110  0.00  0.00    +0.000 A 
ATOM     21  C   UNL     1      -7.561  13.096  19.002  0.00  0.00    +0.000 A 
ATOM     22  C   UNL     1      -6.318  12.466  18.783  0.00  0.00    +0.000 A 
ATOM     23  C   UNL     1      -5.307  12.503  19.754  0.00  0.00    +0.000 A 
ATOM     24  C   UNL     1      -3.975  11.981  19.223  0.00  0.00    +0.000 C 
ATOM     25  C   UNL     1      -5.568  13.147  21.000  0.00  0.00    +0.000 A 
ENDBRANCH  13  25
ENDBRANCH  12  17
ENDBRANCH   1  12
BRANCH   3  26
ATOM     26  C   UNL     1       1.070  15.247  20.288  0.00  0.00    +0.000 C 
BRANCH  26  27
ATOM     27  N   UNL     1       1.292  16.683  20.279  0.00  0.00    +0.000 NA
ATOM     28  C   UNL     1       1.229  17.113  18.857  0.00  0.00    +0.000 C 
ATOM     29  C   UNL     1       2.446  16.736  17.995  0.00  0.00    +0.000 C 
ATOM     30  O   UNL     1       3.654  17.212  18.593  0.00  0.00    +0.000 OA
ATOM     31  C   UNL     1       3.819  16.663  19.905  0.00  0.00    +0.000 C 
ATOM     32  C   UNL     1       2.629  17.010  20.818  0.00  0.00    +0.000 C 
ENDBRANCH  26  27
ENDBRANCH   3  26
TORSDOF 5
ENDMDL
MODEL 9
REMARK VINA RESULT:      -7.1      6.605      9.163
REMARK  Name = 
REMARK  9 active torsions:
REMARK  status: ('A' for Active; 'I' for Inactive)
REMARK    1  A    between atoms: C_1  and  C_2
REMARK    2  A    between atoms: C_6  and  C_7
REMARK    3  A    between atoms: C_8  and  N_9
REMARK    4  A    between atoms: C_13  and  S_14
REMARK    5  A    between atoms: S_14  and  C_15
REMARK    6  A    between atoms: C_17  and  C_18
REMARK    7  A    between atoms: C_18  and  N_19
REMARK    8  A    between atoms: C_28  and  C_29
REMARK    9  A    between atoms: C_30  and  C_31
REMARK                            x       y       z     vdW  Elec       q    Type
REMARK                         _______ _______ _______ _____ _____    ______ ____
ROOT
ATOM      1  C   UNL     1       0.672  12.896  19.733  0.00  0.00    +0.000 A 
ATOM      2  N   UNL     1       0.666  11.555  19.437  0.00  0.00    +0.000 NA
ATOM      3  C   UNL     1      -0.502  10.907  19.551  0.00  0.00    +0.000 A 
ATOM      4  N   UNL     1      -1.216  11.044  20.656  0.00  0.00    +0.000 NA
ATOM      5  C   UNL     1      -1.438  12.366  20.814  0.00  0.00    +0.000 A 
ATOM      6  S   UNL     1      -3.033  12.955  20.927  0.00  0.00    +0.000 S 
ATOM      7  C   UNL     1      -2.442  14.512  21.350  0.00  0.00    +0.000 A 
ATOM      8  C   UNL     1      -3.465  15.391  22.017  0.00  0.00    +0.000 C 
ATOM      9  C   UNL     1      -1.039  14.381  21.437  0.00  0.00    +0.000 A 
ATOM     10  C   UNL     1      -0.393  14.620  22.781  0.00  0.00    +0.000 C 
ATOM     11  C   UNL     1      -0.554  13.396  20.434  0.00  0.00    +0.000 A 
ENDROOT
BRANCH   1  12
ATOM     12  S   UNL     1       1.240  13.815  18.232  0.00  0.00    +0.000 S 
BRANCH  12  17
ATOM     13  N   UNL     1       2.150  16.571  18.655  0.00  0.00    +0.000 N 
ATOM     14  N   UNL     1       3.350  17.190  18.766  0.00  0.00    +0.000 NA
ATOM     15  N   UNL     1       4.275  16.245  18.691  0.00  0.00    +0.000 NA
ATOM     16  N   UNL     1       3.740  15.001  18.481  0.00  0.00    +0.000 NA
ATOM     17  C   UNL     1       2.431  15.146  18.421  0.00  0.00    +0.000 A 
BRANCH  13  25
ATOM     18  C   UNL     1       0.994  17.762  21.211  0.00  0.00    +0.000 C 
ATOM     19  C   UNL     1       0.246  17.468  19.920  0.00  0.00    +0.000 A 
ATOM     20  C   UNL     1      -1.121  17.672  19.970  0.00  0.00    +0.000 A 
ATOM     21  C   UNL     1      -1.826  17.990  18.808  0.00  0.00    +0.000 A 
ATOM     22  C   UNL     1      -1.094  18.228  17.627  0.00  0.00    +0.000 A 
ATOM     23  C   UNL     1       0.278  17.946  17.557  0.00  0.00    +0.000 A 
ATOM     24  C   UNL     1       0.920  18.503  16.289  0.00  0.00    +0.000 C 
ATOM     25  C   UNL     1       0.922  17.361  18.689  0.00  0.00    +0.000 A 
ENDBRANCH  13  25
ENDBRANCH  12  17
ENDBRANCH   1  12
BRANCH   3  26
ATOM     26  C   UNL     1      -1.463  11.105  18.345  0.00  0.00    +0.000 C 
BRANCH  26  27
ATOM     27  N   UNL     1      -2.437  10.083  18.000  0.00  0.00    +0.000 NA
ATOM     28  C   UNL     1      -2.224   9.761  16.565  0.00  0.00    +0.000 C 
ATOM     29  C   UNL     1      -2.714  10.823  15.565  0.00  0.00    +0.000 C 
ATOM     30  O   UNL     1      -4.091  11.132  15.794  0.00  0.00    +0.000 OA
ATOM     31  C   UNL     1      -4.286  11.616  17.127  0.00  0.00    +0.000 C 
ATOM     32  C   UNL     1      -3.815  10.591  18.177  0.00  0.00    +0.000 C 
ENDBRANCH  26  27
ENDBRANCH   3  26
TORSDOF 5
ENDMDL
