MODEL 1
REMARK VINA RESULT:      -7.8      0.000      0.000
REMARK  Name = 
REMARK  9 active torsions:
REMARK  status: ('A' for Active; 'I' for Inactive)
REMARK    1  A    between atoms: N_1  and  C_2
REMARK    2  A    between atoms: C_2  and  C_3
REMARK    3  A    between atoms: C_2  and  C_28
REMARK    4  A    between atoms: C_3  and  N_4
REMARK    5  A    between atoms: N_4  and  C_5
REMARK    6  A    between atoms: C_7  and  C_8
REMARK    7  A    between atoms: C_16  and  C_17
REMARK    8  A    between atoms: C_18  and  C_19
REMARK    9  A    between atoms: C_28  and  C_29
REMARK                            x       y       z     vdW  Elec       q    Type
REMARK                         _______ _______ _______ _____ _____    ______ ____
ROOT
ATOM      1  C   UNL     1       0.390   9.690  19.474  0.00  0.00    +0.000 A 
ATOM      2  N   UNL     1      -0.445   9.843  18.430  0.00  0.00    +0.000 NA
ATOM      3  C   UNL     1      -1.600  10.516  18.588  0.00  0.00    +0.000 A 
ATOM      4  N   UNL     1      -2.035  11.077  19.724  0.00  0.00    +0.000 NA
ATOM      5  C   UNL     1      -1.225  10.918  20.795  0.00  0.00    +0.000 A 
ATOM      6  C   UNL     1      -1.484  11.396  22.125  0.00  0.00    +0.000 A 
ATOM      7  C   UNL     1      -0.466  11.060  22.992  0.00  0.00    +0.000 A 
ATOM      8  S   UNL     1       0.786  10.185  22.226  0.00  0.00    +0.000 S 
ATOM      9  C   UNL     1      -0.011  10.238  20.701  0.00  0.00    +0.000 A 
ENDROOT
BRANCH   3  10
ATOM     10  C   UNL     1      -2.463  10.639  17.405  0.00  0.00    +0.000 A 
ATOM     11  C   UNL     1      -2.162   9.980  16.203  0.00  0.00    +0.000 A 
ATOM     12  C   UNL     1      -2.994  10.156  15.110  0.00  0.00    +0.000 A 
ATOM     13  N   UNL     1      -4.104  10.921  15.130  0.00  0.00    +0.000 NA
ATOM     14  C   UNL     1      -4.397  11.533  16.295  0.00  0.00    +0.000 A 
ATOM     15  C   UNL     1      -3.622  11.425  17.435  0.00  0.00    +0.000 A 
ENDBRANCH   3  10
BRANCH   1  16
ATOM     16  N   UNL     1       1.588   8.988  19.325  0.00  0.00    +0.000 N 
ATOM     17  H   UNL     1       2.311   9.409  19.898  0.00  0.00    +0.000 HD
BRANCH  16  18
ATOM     18  C   UNL     1       2.012   8.719  17.947  0.00  0.00    +0.000 C 
BRANCH  18  19
ATOM     19  C   UNL     1       2.749   7.355  17.838  0.00  0.00    +0.000 C 
BRANCH  19  20
ATOM     20  N   UNL     1       4.081   7.532  17.205  0.00  0.00    +0.000 NA
ATOM     21  H   UNL     1       4.006   8.211  16.448  0.00  0.00    +0.000 HD
ATOM     22  H   UNL     1       4.372   6.662  16.764  0.00  0.00    +0.000 HD
ENDBRANCH  19  20
BRANCH  19  23
ATOM     23  C   UNL     1       2.893   6.630  19.199  0.00  0.00    +0.000 C 
BRANCH  23  24
ATOM     24  C   UNL     1       2.200   5.286  19.298  0.00  0.00    +0.000 A 
ATOM     25  C   UNL     1       2.027   4.463  18.178  0.00  0.00    +0.000 A 
ATOM     26  C   UNL     1       1.357   3.241  18.294  0.00  0.00    +0.000 A 
ATOM     27  C   UNL     1       0.860   2.827  19.529  0.00  0.00    +0.000 A 
ATOM     28  C   UNL     1       1.044   3.627  20.652  0.00  0.00    +0.000 A 
ATOM     29  C   UNL     1       1.712   4.847  20.537  0.00  0.00    +0.000 A 
ENDBRANCH  23  24
ENDBRANCH  19  23
ENDBRANCH  18  19
ENDBRANCH  16  18
ENDBRANCH   1  16
BRANCH   6  30
ATOM     30  C   UNL     1      -2.639  12.131  22.573  0.00  0.00    +0.000 C 
ATOM     31  C   UNL     1      -3.657  12.702  22.892  0.00  0.00    +0.000 C 
BRANCH  31  32
ATOM     32  C   UNL     1      -4.903  13.331  23.221  0.00  0.00    +0.000 A 
ATOM     33  C   UNL     1      -5.031  14.715  23.242  0.00  0.00    +0.000 A 
ATOM     34  C   UNL     1      -6.248  15.267  23.639  0.00  0.00    +0.000 A 
ATOM     35  C   UNL     1      -7.296  14.425  23.998  0.00  0.00    +0.000 A 
ATOM     36  C   UNL     1      -7.079  13.056  23.932  0.00  0.00    +0.000 A 
ATOM     37  N   UNL     1      -5.907  12.489  23.557  0.00  0.00    +0.000 NA
ENDBRANCH  31  32
ENDBRANCH   6  30
TORSDOF 9
ENDMDL
MODEL 2
REMARK VINA RESULT:      -7.7      0.184      1.168
REMARK  Name = 
REMARK  9 active torsions:
REMARK  status: ('A' for Active; 'I' for Inactive)
REMARK    1  A    between atoms: N_1  and  C_2
REMARK    2  A    between atoms: C_2  and  C_3
REMARK    3  A    between atoms: C_2  and  C_28
REMARK    4  A    between atoms: C_3  and  N_4
REMARK    5  A    between atoms: N_4  and  C_5
REMARK    6  A    between atoms: C_7  and  C_8
REMARK    7  A    between atoms: C_16  and  C_17
REMARK    8  A    between atoms: C_18  and  C_19
REMARK    9  A    between atoms: C_28  and  C_29
REMARK                            x       y       z     vdW  Elec       q    Type
REMARK                         _______ _______ _______ _____ _____    ______ ____
ROOT
ATOM      1  C   UNL     1       0.467   9.595  19.590  0.00  0.00    +0.000 A 
ATOM      2  N   UNL     1      -0.354   9.780  18.542  0.00  0.00    +0.000 NA
ATOM      3  C   UNL     1      -1.506  10.457  18.705  0.00  0.00    +0.000 A 
ATOM      4  N   UNL     1      -1.950  10.994  19.849  0.00  0.00    +0.000 NA
ATOM      5  C   UNL     1      -1.153  10.802  20.924  0.00  0.00    +0.000 A 
ATOM      6  C   UNL     1      -1.424  11.248  22.263  0.00  0.00    +0.000 A 
ATOM      7  C   UNL     1      -0.417  10.883  23.132  0.00  0.00    +0.000 A 
ATOM      8  S   UNL     1       0.837  10.019  22.358  0.00  0.00    +0.000 S 
ATOM      9  C   UNL     1       0.057  10.115  20.826  0.00  0.00    +0.000 A 
ENDROOT
BRANCH   3  10
ATOM     10  C   UNL     1      -2.355  10.616  17.515  0.00  0.00    +0.000 A 
ATOM     11  C   UNL     1      -3.505  11.420  17.533  0.00  0.00    +0.000 A 
ATOM     12  C   UNL     1      -4.285  11.510  16.392  0.00  0.00    +0.000 A 
ATOM     13  N   UNL     1      -3.999  10.874  15.239  0.00  0.00    +0.000 NA
ATOM     14  C   UNL     1      -2.881  10.119  15.224  0.00  0.00    +0.000 A 
ATOM     15  C   UNL     1      -2.047   9.962  16.315  0.00  0.00    +0.000 A 
ENDBRANCH   3  10
BRANCH   1  16
ATOM     16  N   UNL     1       1.662   8.888  19.438  0.00  0.00    +0.000 N 
ATOM     17  H   UNL     1       2.394   9.317  19.994  0.00  0.00    +0.000 HD
BRANCH  16  18
ATOM     18  C   UNL     1       2.068   8.597  18.058  0.00  0.00    +0.000 C 
BRANCH  18  19
ATOM     19  C   UNL     1       2.786   7.222  17.958  0.00  0.00    +0.000 C 
BRANCH  19  20
ATOM     20  N   UNL     1       4.140   7.384  17.368  0.00  0.00    +0.000 NA
ATOM     21  H   UNL     1       4.660   6.514  17.478  0.00  0.00    +0.000 HD
ATOM     22  H   UNL     1       4.663   8.083  17.892  0.00  0.00    +0.000 HD
ENDBRANCH  19  20
BRANCH  19  23
ATOM     23  C   UNL     1       2.876   6.482  19.316  0.00  0.00    +0.000 C 
BRANCH  23  24
ATOM     24  C   UNL     1       2.146   5.157  19.384  0.00  0.00    +0.000 A 
ATOM     25  C   UNL     1       1.643   4.654  20.591  0.00  0.00    +0.000 A 
ATOM     26  C   UNL     1       0.999   3.413  20.627  0.00  0.00    +0.000 A 
ATOM     27  C   UNL     1       0.847   2.666  19.459  0.00  0.00    +0.000 A 
ATOM     28  C   UNL     1       1.325   3.164  18.252  0.00  0.00    +0.000 A 
ATOM     29  C   UNL     1       1.968   4.402  18.215  0.00  0.00    +0.000 A 
ENDBRANCH  23  24
ENDBRANCH  19  23
ENDBRANCH  18  19
ENDBRANCH  16  18
ENDBRANCH   1  16
BRANCH   6  30
ATOM     30  C   UNL     1      -2.578  11.981  22.716  0.00  0.00    +0.000 C 
ATOM     31  C   UNL     1      -3.576  12.596  23.014  0.00  0.00    +0.000 C 
BRANCH  31  32
ATOM     32  C   UNL     1      -4.785  13.316  23.292  0.00  0.00    +0.000 A 
ATOM     33  C   UNL     1      -4.831  14.703  23.223  0.00  0.00    +0.000 A 
ATOM     34  C   UNL     1      -6.016  15.350  23.574  0.00  0.00    +0.000 A 
ATOM     35  C   UNL     1      -7.113  14.596  23.977  0.00  0.00    +0.000 A 
ATOM     36  C   UNL     1      -6.976  13.216  24.001  0.00  0.00    +0.000 A 
ATOM     37  N   UNL     1      -5.839  12.558  23.673  0.00  0.00    +0.000 NA
ENDBRANCH  31  32
ENDBRANCH   6  30
TORSDOF 9
ENDMDL
MODEL 3
REMARK VINA RESULT:      -7.7      5.195      9.512
REMARK  Name = 
REMARK  9 active torsions:
REMARK  status: ('A' for Active; 'I' for Inactive)
REMARK    1  A    between atoms: N_1  and  C_2
REMARK    2  A    between atoms: C_2  and  C_3
REMARK    3  A    between atoms: C_2  and  C_28
REMARK    4  A    between atoms: C_3  and  N_4
REMARK    5  A    between atoms: N_4  and  C_5
REMARK    6  A    between atoms: C_7  and  C_8
REMARK    7  A    between atoms: C_16  and  C_17
REMARK    8  A    between atoms: C_18  and  C_19
REMARK    9  A    between atoms: C_28  and  C_29
REMARK                            x       y       z     vdW  Elec       q    Type
REMARK                         _______ _______ _______ _____ _____    ______ ____
ROOT
ATOM      1  C   UNL     1       4.035   5.138  17.124  0.00  0.00    +0.000 A 
ATOM      2  N   UNL     1       3.117   5.991  17.612  0.00  0.00    +0.000 NA
ATOM      3  C   UNL     1       3.488   7.227  17.996  0.00  0.00    +0.000 A 
ATOM      4  N   UNL     1       4.729   7.728  17.945  0.00  0.00    +0.000 NA
ATOM      5  C   UNL     1       5.675   6.882  17.480  0.00  0.00    +0.000 A 
ATOM      6  C   UNL     1       7.079   7.170  17.362  0.00  0.00    +0.000 A 
ATOM      7  C   UNL     1       7.778   6.092  16.862  0.00  0.00    +0.000 A 
ATOM      8  S   UNL     1       6.770   4.751  16.537  0.00  0.00    +0.000 S 
ATOM      9  C   UNL     1       5.361   5.590  17.059  0.00  0.00    +0.000 A 
ENDROOT
BRANCH   3  10
ATOM     10  C   UNL     1       2.432   8.102  18.523  0.00  0.00    +0.000 A 
ATOM     11  C   UNL     1       1.822   9.084  17.727  0.00  0.00    +0.000 A 
ATOM     12  C   UNL     1       0.853   9.900  18.285  0.00  0.00    +0.000 A 
ATOM     13  N   UNL     1       0.438   9.804  19.563  0.00  0.00    +0.000 NA
ATOM     14  C   UNL     1       1.014   8.844  20.316  0.00  0.00    +0.000 A 
ATOM     15  C   UNL     1       1.995   7.989  19.850  0.00  0.00    +0.000 A 
ENDBRANCH   3  10
BRANCH   1  16
ATOM     16  N   UNL     1       3.665   3.850  16.729  0.00  0.00    +0.000 N 
ATOM     17  H   UNL     1       2.655   3.763  16.728  0.00  0.00    +0.000 HD
BRANCH  16  18
ATOM     18  C   UNL     1       4.349   2.745  17.410  0.00  0.00    +0.000 C 
BRANCH  18  19
ATOM     19  C   UNL     1       3.407   1.522  17.589  0.00  0.00    +0.000 C 
BRANCH  19  20
ATOM     20  N   UNL     1       4.025   0.517  18.491  0.00  0.00    +0.000 NA
ATOM     21  H   UNL     1       4.070  -0.383  18.012  0.00  0.00    +0.000 HD
ATOM     22  H   UNL     1       3.427   0.365  19.300  0.00  0.00    +0.000 HD
ENDBRANCH  19  20
BRANCH  19  23
ATOM     23  C   UNL     1       1.997   1.909  18.101  0.00  0.00    +0.000 C 
BRANCH  23  24
ATOM     24  C   UNL     1       1.970   2.740  19.367  0.00  0.00    +0.000 A 
ATOM     25  C   UNL     1       2.621   2.324  20.536  0.00  0.00    +0.000 A 
ATOM     26  C   UNL     1       2.553   3.099  21.698  0.00  0.00    +0.000 A 
ATOM     27  C   UNL     1       1.842   4.298  21.702  0.00  0.00    +0.000 A 
ATOM     28  C   UNL     1       1.209   4.732  20.542  0.00  0.00    +0.000 A 
ATOM     29  C   UNL     1       1.275   3.959  19.382  0.00  0.00    +0.000 A 
ENDBRANCH  23  24
ENDBRANCH  19  23
ENDBRANCH  18  19
ENDBRANCH  16  18
ENDBRANCH   1  16
BRANCH   6  30
ATOM     30  C   UNL     1       7.743   8.401  17.707  0.00  0.00    +0.000 C 
ATOM     31  C   UNL     1       8.307   9.405  18.079  0.00  0.00    +0.000 C 
BRANCH  31  32
ATOM     32  C   UNL     1       8.984  10.560  18.590  0.00  0.00    +0.000 A 
ATOM     33  C   UNL     1       9.258  11.656  17.779  0.00  0.00    +0.000 A 
ATOM     34  C   UNL     1       9.983  12.719  18.316  0.00  0.00    +0.000 A 
ATOM     35  C   UNL     1      10.405  12.659  19.640  0.00  0.00    +0.000 A 
ATOM     36  C   UNL     1      10.071  11.532  20.376  0.00  0.00    +0.000 A 
ATOM     37  N   UNL     1       9.376  10.480  19.883  0.00  0.00    +0.000 NA
ENDBRANCH  31  32
ENDBRANCH   6  30
TORSDOF 9
ENDMDL
MODEL 4
REMARK VINA RESULT:      -7.6      5.039      9.460
REMARK  Name = 
REMARK  9 active torsions:
REMARK  status: ('A' for Active; 'I' for Inactive)
REMARK    1  A    between atoms: N_1  and  C_2
REMARK    2  A    between atoms: C_2  and  C_3
REMARK    3  A    between atoms: C_2  and  C_28
REMARK    4  A    between atoms: C_3  and  N_4
REMARK    5  A    between atoms: N_4  and  C_5
REMARK    6  A    between atoms: C_7  and  C_8
REMARK    7  A    between atoms: C_16  and  C_17
REMARK    8  A    between atoms: C_18  and  C_19
REMARK    9  A    between atoms: C_28  and  C_29
REMARK                            x       y       z     vdW  Elec       q    Type
REMARK                         _______ _______ _______ _____ _____    ______ ____
ROOT
ATOM      1  C   UNL     1       3.992   5.210  17.319  0.00  0.00    +0.000 A 
ATOM      2  N   UNL     1       3.050   6.070  17.745  0.00  0.00    +0.000 NA
ATOM      3  C   UNL     1       3.386   7.340  18.040  0.00  0.00    +0.000 A 
ATOM      4  N   UNL     1       4.613   7.870  17.954  0.00  0.00    +0.000 NA
ATOM      5  C   UNL     1       5.584   7.019  17.550  0.00  0.00    +0.000 A 
ATOM      6  C   UNL     1       6.979   7.337  17.413  0.00  0.00    +0.000 A 
ATOM      7  C   UNL     1       7.708   6.245  16.991  0.00  0.00    +0.000 A 
ATOM      8  S   UNL     1       6.738   4.858  16.762  0.00  0.00    +0.000 S 
ATOM      9  C   UNL     1       5.305   5.693  17.222  0.00  0.00    +0.000 A 
ENDROOT
BRANCH   3  10
ATOM     10  C   UNL     1       2.305   8.221  18.504  0.00  0.00    +0.000 A 
ATOM     11  C   UNL     1       1.919   8.267  19.852  0.00  0.00    +0.000 A 
ATOM     12  C   UNL     1       0.874   9.093  20.228  0.00  0.00    +0.000 A 
ATOM     13  N   UNL     1       0.199   9.884  19.370  0.00  0.00    +0.000 NA
ATOM     14  C   UNL     1       0.590   9.850  18.080  0.00  0.00    +0.000 A 
ATOM     15  C   UNL     1       1.615   9.050  17.609  0.00  0.00    +0.000 A 
ENDBRANCH   3  10
BRANCH   1  16
ATOM     16  N   UNL     1       3.658   3.888  17.016  0.00  0.00    +0.000 N 
ATOM     17  H   UNL     1       2.672   3.821  16.789  0.00  0.00    +0.000 HD
BRANCH  16  18
ATOM     18  C   UNL     1       4.110   2.873  17.974  0.00  0.00    +0.000 C 
BRANCH  18  19
ATOM     19  C   UNL     1       3.289   1.560  17.837  0.00  0.00    +0.000 C 
BRANCH  19  20
ATOM     20  N   UNL     1       4.145   0.380  18.121  0.00  0.00    +0.000 NA
ATOM     21  H   UNL     1       3.557  -0.396  18.425  0.00  0.00    +0.000 HD
ATOM     22  H   UNL     1       4.759   0.580  18.908  0.00  0.00    +0.000 HD
ENDBRANCH  19  20
BRANCH  19  23
ATOM     23  C   UNL     1       2.026   1.536  18.733  0.00  0.00    +0.000 C 
BRANCH  23  24
ATOM     24  C   UNL     1       1.877   2.708  19.681  0.00  0.00    +0.000 A 
ATOM     25  C   UNL     1       1.033   3.788  19.391  0.00  0.00    +0.000 A 
ATOM     26  C   UNL     1       0.940   4.870  20.272  0.00  0.00    +0.000 A 
ATOM     27  C   UNL     1       1.683   4.881  21.452  0.00  0.00    +0.000 A 
ATOM     28  C   UNL     1       2.509   3.805  21.761  0.00  0.00    +0.000 A 
ATOM     29  C   UNL     1       2.603   2.725  20.882  0.00  0.00    +0.000 A 
ENDBRANCH  23  24
ENDBRANCH  19  23
ENDBRANCH  18  19
ENDBRANCH  16  18
ENDBRANCH   1  16
BRANCH   6  30
ATOM     30  C   UNL     1       7.608   8.607  17.669  0.00  0.00    +0.000 C 
ATOM     31  C   UNL     1       8.202   9.630  17.923  0.00  0.00    +0.000 C 
BRANCH  31  32
ATOM     32  C   UNL     1       8.966  10.798  18.252  0.00  0.00    +0.000 A 
ATOM     33  C   UNL     1       9.993  10.750  19.188  0.00  0.00    +0.000 A 
ATOM     34  C   UNL     1      10.652  11.934  19.518  0.00  0.00    +0.000 A 
ATOM     35  C   UNL     1      10.270  13.122  18.903  0.00  0.00    +0.000 A 
ATOM     36  C   UNL     1       9.244  13.069  17.971  0.00  0.00    +0.000 A 
ATOM     37  N   UNL     1       8.580  11.938  17.634  0.00  0.00    +0.000 NA
ENDBRANCH  31  32
ENDBRANCH   6  30
TORSDOF 9
ENDMDL
MODEL 5
REMARK VINA RESULT:      -7.5      5.217      9.521
REMARK  Name = 
REMARK  9 active torsions:
REMARK  status: ('A' for Active; 'I' for Inactive)
REMARK    1  A    between atoms: N_1  and  C_2
REMARK    2  A    between atoms: C_2  and  C_3
REMARK    3  A    between atoms: C_2  and  C_28
REMARK    4  A    between atoms: C_3  and  N_4
REMARK    5  A    between atoms: N_4  and  C_5
REMARK    6  A    between atoms: C_7  and  C_8
REMARK    7  A    between atoms: C_16  and  C_17
REMARK    8  A    between atoms: C_18  and  C_19
REMARK    9  A    between atoms: C_28  and  C_29
REMARK                            x       y       z     vdW  Elec       q    Type
REMARK                         _______ _______ _______ _____ _____    ______ ____
ROOT
ATOM      1  C   UNL     1       4.122   5.017  17.143  0.00  0.00    +0.000 A 
ATOM      2  N   UNL     1       3.180   5.867  17.590  0.00  0.00    +0.000 NA
ATOM      3  C   UNL     1       3.524   7.118  17.951  0.00  0.00    +0.000 A 
ATOM      4  N   UNL     1       4.757   7.637  17.915  0.00  0.00    +0.000 NA
ATOM      5  C   UNL     1       5.727   6.795  17.491  0.00  0.00    +0.000 A 
ATOM      6  C   UNL     1       7.128   7.103  17.396  0.00  0.00    +0.000 A 
ATOM      7  C   UNL     1       7.854   6.024  16.938  0.00  0.00    +0.000 A 
ATOM      8  S   UNL     1       6.875   4.660  16.624  0.00  0.00    +0.000 S 
ATOM      9  C   UNL     1       5.442   5.489  17.095  0.00  0.00    +0.000 A 
ENDROOT
BRANCH   3  10
ATOM     10  C   UNL     1       2.443   7.988  18.435  0.00  0.00    +0.000 A 
ATOM     11  C   UNL     1       1.774   8.876  17.578  0.00  0.00    +0.000 A 
ATOM     12  C   UNL     1       0.783   9.695  18.094  0.00  0.00    +0.000 A 
ATOM     13  N   UNL     1       0.401   9.685  19.387  0.00  0.00    +0.000 NA
ATOM     14  C   UNL     1       1.035   8.814  20.198  0.00  0.00    +0.000 A 
ATOM     15  C   UNL     1       2.042   7.965  19.777  0.00  0.00    +0.000 A 
ENDBRANCH   3  10
BRANCH   1  16
ATOM     16  N   UNL     1       3.781   3.714  16.771  0.00  0.00    +0.000 N 
ATOM     17  H   UNL     1       4.239   3.470  15.901  0.00  0.00    +0.000 HD
BRANCH  16  18
ATOM     18  C   UNL     1       2.350   3.391  16.793  0.00  0.00    +0.000 C 
BRANCH  18  19
ATOM     19  C   UNL     1       2.093   2.005  17.447  0.00  0.00    +0.000 C 
BRANCH  19  20
ATOM     20  N   UNL     1       3.365   1.421  17.945  0.00  0.00    +0.000 NA
ATOM     21  H   UNL     1       4.150   1.895  17.499  0.00  0.00    +0.000 HD
ATOM     22  H   UNL     1       3.434   0.447  17.657  0.00  0.00    +0.000 HD
ENDBRANCH  19  20
BRANCH  19  23
ATOM     23  C   UNL     1       1.042   2.055  18.585  0.00  0.00    +0.000 C 
BRANCH  23  24
ATOM     24  C   UNL     1       1.447   2.848  19.810  0.00  0.00    +0.000 A 
ATOM     25  C   UNL     1       1.918   2.222  20.971  0.00  0.00    +0.000 A 
ATOM     26  C   UNL     1       2.255   2.979  22.097  0.00  0.00    +0.000 A 
ATOM     27  C   UNL     1       2.132   4.368  22.072  0.00  0.00    +0.000 A 
ATOM     28  C   UNL     1       1.684   5.003  20.918  0.00  0.00    +0.000 A 
ATOM     29  C   UNL     1       1.347   4.247  19.794  0.00  0.00    +0.000 A 
ENDBRANCH  23  24
ENDBRANCH  19  23
ENDBRANCH  18  19
ENDBRANCH  16  18
ENDBRANCH   1  16
BRANCH   6  30
ATOM     30  C   UNL     1       7.765   8.352  17.725  0.00  0.00    +0.000 C 
ATOM     31  C   UNL     1       8.340   9.361  18.068  0.00  0.00    +0.000 C 
BRANCH  31  32
ATOM     32  C   UNL     1       9.059  10.512  18.529  0.00  0.00    +0.000 A 
ATOM     33  C   UNL     1       9.744  10.500  19.738  0.00  0.00    +0.000 A 
ATOM     34  C   UNL     1      10.365  11.673  20.166  0.00  0.00    +0.000 A 
ATOM     35  C   UNL     1      10.287  12.815  19.375  0.00  0.00    +0.000 A 
ATOM     36  C   UNL     1       9.594  12.727  18.177  0.00  0.00    +0.000 A 
ATOM     37  N   UNL     1       8.974  11.606  17.737  0.00  0.00    +0.000 NA
ENDBRANCH  31  32
ENDBRANCH   6  30
TORSDOF 9
ENDMDL
MODEL 6
REMARK VINA RESULT:      -7.2      2.921      8.706
REMARK  Name = 
REMARK  9 active torsions:
REMARK  status: ('A' for Active; 'I' for Inactive)
REMARK    1  A    between atoms: N_1  and  C_2
REMARK    2  A    between atoms: C_2  and  C_3
REMARK    3  A    between atoms: C_2  and  C_28
REMARK    4  A    between atoms: C_3  and  N_4
REMARK    5  A    between atoms: N_4  and  C_5
REMARK    6  A    between atoms: C_7  and  C_8
REMARK    7  A    between atoms: C_16  and  C_17
REMARK    8  A    between atoms: C_18  and  C_19
REMARK    9  A    between atoms: C_28  and  C_29
REMARK                            x       y       z     vdW  Elec       q    Type
REMARK                         _______ _______ _______ _____ _____    ______ ____
ROOT
ATOM      1  C   UNL     1      -0.370  12.446  22.308  0.00  0.00    +0.000 A 
ATOM      2  N   UNL     1       0.466  13.179  21.552  0.00  0.00    +0.000 NA
ATOM      3  C   UNL     1       1.338  12.565  20.731  0.00  0.00    +0.000 A 
ATOM      4  N   UNL     1       1.475  11.242  20.574  0.00  0.00    +0.000 NA
ATOM      5  C   UNL     1       0.661  10.481  21.340  0.00  0.00    +0.000 A 
ATOM      6  C   UNL     1       0.640   9.045  21.379  0.00  0.00    +0.000 A 
ATOM      7  C   UNL     1      -0.299   8.575  22.273  0.00  0.00    +0.000 A 
ATOM      8  S   UNL     1      -1.145   9.835  23.057  0.00  0.00    +0.000 S 
ATOM      9  C   UNL     1      -0.270  11.051  22.208  0.00  0.00    +0.000 A 
ENDROOT
BRANCH   3  10
ATOM     10  C   UNL     1       2.224  13.430  19.938  0.00  0.00    +0.000 A 
ATOM     11  C   UNL     1       3.220  14.214  20.541  0.00  0.00    +0.000 A 
ATOM     12  C   UNL     1       4.006  15.033  19.748  0.00  0.00    +0.000 A 
ATOM     13  N   UNL     1       3.885  15.119  18.409  0.00  0.00    +0.000 NA
ATOM     14  C   UNL     1       2.940  14.347  17.835  0.00  0.00    +0.000 A 
ATOM     15  C   UNL     1       2.102  13.505  18.544  0.00  0.00    +0.000 A 
ENDBRANCH   3  10
BRANCH   1  16
ATOM     16  N   UNL     1      -1.276  13.070  23.171  0.00  0.00    +0.000 N 
ATOM     17  H   UNL     1      -1.525  12.441  23.926  0.00  0.00    +0.000 HD
BRANCH  16  18
ATOM     18  C   UNL     1      -2.431  13.714  22.537  0.00  0.00    +0.000 C 
BRANCH  18  19
ATOM     19  C   UNL     1      -3.245  12.702  21.683  0.00  0.00    +0.000 C 
BRANCH  19  20
ATOM     20  N   UNL     1      -4.596  12.497  22.266  0.00  0.00    +0.000 NA
ATOM     21  H   UNL     1      -5.071  13.397  22.336  0.00  0.00    +0.000 HD
ATOM     22  H   UNL     1      -4.512  12.158  23.222  0.00  0.00    +0.000 HD
ENDBRANCH  19  20
BRANCH  19  23
ATOM     23  C   UNL     1      -3.359  13.114  20.194  0.00  0.00    +0.000 C 
BRANCH  23  24
ATOM     24  C   UNL     1      -3.088  12.012  19.191  0.00  0.00    +0.000 A 
ATOM     25  C   UNL     1      -1.800  11.501  18.987  0.00  0.00    +0.000 A 
ATOM     26  C   UNL     1      -1.577  10.504  18.033  0.00  0.00    +0.000 A 
ATOM     27  C   UNL     1      -2.638  10.004  17.278  0.00  0.00    +0.000 A 
ATOM     28  C   UNL     1      -3.924  10.490  17.485  0.00  0.00    +0.000 A 
ATOM     29  C   UNL     1      -4.148  11.485  18.437  0.00  0.00    +0.000 A 
ENDBRANCH  23  24
ENDBRANCH  19  23
ENDBRANCH  18  19
ENDBRANCH  16  18
ENDBRANCH   1  16
BRANCH   6  30
ATOM     30  C   UNL     1       1.467   8.145  20.616  0.00  0.00    +0.000 C 
ATOM     31  C   UNL     1       2.167   7.451  19.915  0.00  0.00    +0.000 C 
BRANCH  31  32
ATOM     32  C   UNL     1       3.004   6.691  19.034  0.00  0.00    +0.000 A 
ATOM     33  C   UNL     1       3.480   7.230  17.844  0.00  0.00    +0.000 A 
ATOM     34  C   UNL     1       4.230   6.418  16.995  0.00  0.00    +0.000 A 
ATOM     35  C   UNL     1       4.486   5.100  17.360  0.00  0.00    +0.000 A 
ATOM     36  C   UNL     1       3.984   4.655  18.574  0.00  0.00    +0.000 A 
ATOM     37  N   UNL     1       3.245   5.416  19.417  0.00  0.00    +0.000 NA
ENDBRANCH  31  32
ENDBRANCH   6  30
TORSDOF 9
ENDMDL
MODEL 7
REMARK VINA RESULT:      -7.1      0.903      1.376
REMARK  Name = 
REMARK  9 active torsions:
REMARK  status: ('A' for Active; 'I' for Inactive)
REMARK    1  A    between atoms: N_1  and  C_2
REMARK    2  A    between atoms: C_2  and  C_3
REMARK    3  A    between atoms: C_2  and  C_28
REMARK    4  A    between atoms: C_3  and  N_4
REMARK    5  A    between atoms: N_4  and  C_5
REMARK    6  A    between atoms: C_7  and  C_8
REMARK    7  A    between atoms: C_16  and  C_17
REMARK    8  A    between atoms: C_18  and  C_19
REMARK    9  A    between atoms: C_28  and  C_29
REMARK                            x       y       z     vdW  Elec       q    Type
REMARK                         _______ _______ _______ _____ _____    ______ ____
ROOT
ATOM      1  C   UNL     1       0.580   9.957  18.999  0.00  0.00    +0.000 A 
ATOM      2  N   UNL     1      -0.289  10.006  17.975  0.00  0.00    +0.000 NA
ATOM      3  C   UNL     1      -1.510  10.544  18.157  0.00  0.00    +0.000 A 
ATOM      4  N   UNL     1      -1.980  11.061  19.299  0.00  0.00    +0.000 NA
ATOM      5  C   UNL     1      -1.133  11.003  20.352  0.00  0.00    +0.000 A 
ATOM      6  C   UNL     1      -1.416  11.458  21.686  0.00  0.00    +0.000 A 
ATOM      7  C   UNL     1      -0.346  11.247  22.530  0.00  0.00    +0.000 A 
ATOM      8  S   UNL     1       0.980  10.515  21.739  0.00  0.00    +0.000 S 
ATOM      9  C   UNL     1       0.148  10.465  20.233  0.00  0.00    +0.000 A 
ENDROOT
BRANCH   3  10
ATOM     10  C   UNL     1      -2.408  10.559  16.994  0.00  0.00    +0.000 A 
ATOM     11  C   UNL     1      -3.569  11.347  16.969  0.00  0.00    +0.000 A 
ATOM     12  C   UNL     1      -4.394  11.299  15.858  0.00  0.00    +0.000 A 
ATOM     13  N   UNL     1      -4.145  10.541  14.772  0.00  0.00    +0.000 NA
ATOM     14  C   UNL     1      -3.016   9.803  14.795  0.00  0.00    +0.000 A 
ATOM     15  C   UNL     1      -2.137   9.778  15.862  0.00  0.00    +0.000 A 
ENDBRANCH   3  10
BRANCH   1  16
ATOM     16  N   UNL     1       1.848   9.395  18.826  0.00  0.00    +0.000 N 
ATOM     17  H   UNL     1       2.507  10.108  18.533  0.00  0.00    +0.000 HD
BRANCH  16  18
ATOM     18  C   UNL     1       1.906   8.173  18.018  0.00  0.00    +0.000 C 
BRANCH  18  19
ATOM     19  C   UNL     1       2.607   7.019  18.788  0.00  0.00    +0.000 C 
BRANCH  19  20
ATOM     20  N   UNL     1       2.369   7.147  20.248  0.00  0.00    +0.000 NA
ATOM     21  H   UNL     1       1.364   7.136  20.427  0.00  0.00    +0.000 HD
ATOM     22  H   UNL     1       2.693   8.056  20.573  0.00  0.00    +0.000 HD
ENDBRANCH  19  20
BRANCH  19  23
ATOM     23  C   UNL     1       2.183   5.612  18.296  0.00  0.00    +0.000 C 
BRANCH  23  24
ATOM     24  C   UNL     1       2.267   4.508  19.329  0.00  0.00    +0.000 A 
ATOM     25  C   UNL     1       3.445   3.777  19.532  0.00  0.00    +0.000 A 
ATOM     26  C   UNL     1       3.483   2.743  20.473  0.00  0.00    +0.000 A 
ATOM     27  C   UNL     1       2.350   2.435  21.224  0.00  0.00    +0.000 A 
ATOM     28  C   UNL     1       1.181   3.168  21.046  0.00  0.00    +0.000 A 
ATOM     29  C   UNL     1       1.141   4.198  20.107  0.00  0.00    +0.000 A 
ENDBRANCH  23  24
ENDBRANCH  19  23
ENDBRANCH  18  19
ENDBRANCH  16  18
ENDBRANCH   1  16
BRANCH   6  30
ATOM     30  C   UNL     1      -2.636  12.060  22.157  0.00  0.00    +0.000 C 
ATOM     31  C   UNL     1      -3.621  12.643  22.550  0.00  0.00    +0.000 C 
BRANCH  31  32
ATOM     32  C   UNL     1      -4.748  13.402  23.007  0.00  0.00    +0.000 A 
ATOM     33  C   UNL     1      -4.680  14.784  23.146  0.00  0.00    +0.000 A 
ATOM     34  C   UNL     1      -5.786  15.458  23.663  0.00  0.00    +0.000 A 
ATOM     35  C   UNL     1      -6.921  14.737  24.019  0.00  0.00    +0.000 A 
ATOM     36  C   UNL     1      -6.901  13.363  23.830  0.00  0.00    +0.000 A 
ATOM     37  N   UNL     1      -5.841  12.678  23.338  0.00  0.00    +0.000 NA
ENDBRANCH  31  32
ENDBRANCH   6  30
TORSDOF 9
ENDMDL
MODEL 8
REMARK VINA RESULT:      -7.1      1.855      2.517
REMARK  Name = 
REMARK  9 active torsions:
REMARK  status: ('A' for Active; 'I' for Inactive)
REMARK    1  A    between atoms: N_1  and  C_2
REMARK    2  A    between atoms: C_2  and  C_3
REMARK    3  A    between atoms: C_2  and  C_28
REMARK    4  A    between atoms: C_3  and  N_4
REMARK    5  A    between atoms: N_4  and  C_5
REMARK    6  A    between atoms: C_7  and  C_8
REMARK    7  A    between atoms: C_16  and  C_17
REMARK    8  A    between atoms: C_18  and  C_19
REMARK    9  A    between atoms: C_28  and  C_29
REMARK                            x       y       z     vdW  Elec       q    Type
REMARK                         _______ _______ _______ _____ _____    ______ ____
ROOT
ATOM      1  C   UNL     1       0.847   9.457  18.794  0.00  0.00    +0.000 A 
ATOM      2  N   UNL     1      -0.083   9.626  17.838  0.00  0.00    +0.000 NA
ATOM      3  C   UNL     1      -1.234  10.262  18.129  0.00  0.00    +0.000 A 
ATOM      4  N   UNL     1      -1.574  10.770  19.320  0.00  0.00    +0.000 NA
ATOM      5  C   UNL     1      -0.665  10.592  20.305  0.00  0.00    +0.000 A 
ATOM      6  C   UNL     1      -0.810  11.013  21.672  0.00  0.00    +0.000 A 
ATOM      7  C   UNL     1       0.292  10.672  22.427  0.00  0.00    +0.000 A 
ATOM      8  S   UNL     1       1.486   9.859  21.515  0.00  0.00    +0.000 S 
ATOM      9  C   UNL     1       0.550   9.948  20.073  0.00  0.00    +0.000 A 
ENDROOT
BRANCH   3  10
ATOM     10  C   UNL     1      -2.205  10.407  17.035  0.00  0.00    +0.000 A 
ATOM     11  C   UNL     1      -2.094   9.666  15.848  0.00  0.00    +0.000 A 
ATOM     12  C   UNL     1      -3.021   9.865  14.839  0.00  0.00    +0.000 A 
ATOM     13  N   UNL     1      -4.052  10.729  14.928  0.00  0.00    +0.000 NA
ATOM     14  C   UNL     1      -4.164  11.421  16.080  0.00  0.00    +0.000 A 
ATOM     15  C   UNL     1      -3.282  11.297  17.139  0.00  0.00    +0.000 A 
ENDBRANCH   3  10
BRANCH   1  16
ATOM     16  N   UNL     1       2.043   8.792  18.509  0.00  0.00    +0.000 N 
ATOM     17  H   UNL     1       2.568   9.305  17.810  0.00  0.00    +0.000 HD
BRANCH  16  18
ATOM     18  C   UNL     1       1.930   7.357  18.222  0.00  0.00    +0.000 C 
BRANCH  18  19
ATOM     19  C   UNL     1       2.832   6.519  19.170  0.00  0.00    +0.000 C 
BRANCH  19  20
ATOM     20  N   UNL     1       2.200   6.388  20.508  0.00  0.00    +0.000 NA
ATOM     21  H   UNL     1       2.271   5.420  20.820  0.00  0.00    +0.000 HD
ATOM     22  H   UNL     1       1.203   6.580  20.439  0.00  0.00    +0.000 HD
ENDBRANCH  19  20
BRANCH  19  23
ATOM     23  C   UNL     1       3.180   5.120  18.601  0.00  0.00    +0.000 C 
BRANCH  23  24
ATOM     24  C   UNL     1       4.594   4.962  18.084  0.00  0.00    +0.000 A 
ATOM     25  C   UNL     1       5.708   5.258  18.881  0.00  0.00    +0.000 A 
ATOM     26  C   UNL     1       7.001   5.130  18.366  0.00  0.00    +0.000 A 
ATOM     27  C   UNL     1       7.196   4.699  17.054  0.00  0.00    +0.000 A 
ATOM     28  C   UNL     1       6.099   4.382  16.260  0.00  0.00    +0.000 A 
ATOM     29  C   UNL     1       4.807   4.510  16.773  0.00  0.00    +0.000 A 
ENDBRANCH  23  24
ENDBRANCH  19  23
ENDBRANCH  18  19
ENDBRANCH  16  18
ENDBRANCH   1  16
BRANCH   6  30
ATOM     30  C   UNL     1      -1.935  11.701  22.252  0.00  0.00    +0.000 C 
ATOM     31  C   UNL     1      -2.891  12.319  22.662  0.00  0.00    +0.000 C 
BRANCH  31  32
ATOM     32  C   UNL     1      -4.034  13.080  23.075  0.00  0.00    +0.000 A 
ATOM     33  C   UNL     1      -3.960  14.457  23.252  0.00  0.00    +0.000 A 
ATOM     34  C   UNL     1      -5.085  15.131  23.724  0.00  0.00    +0.000 A 
ATOM     35  C   UNL     1      -6.246  14.414  23.998  0.00  0.00    +0.000 A 
ATOM     36  C   UNL     1      -6.230  13.046  23.776  0.00  0.00    +0.000 A 
ATOM     37  N   UNL     1      -5.151  12.360  23.327  0.00  0.00    +0.000 NA
ENDBRANCH  31  32
ENDBRANCH   6  30
TORSDOF 9
ENDMDL
MODEL 9
REMARK VINA RESULT:      -7.0      1.868      2.714
REMARK  Name = 
REMARK  9 active torsions:
REMARK  status: ('A' for Active; 'I' for Inactive)
REMARK    1  A    between atoms: N_1  and  C_2
REMARK    2  A    between atoms: C_2  and  C_3
REMARK    3  A    between atoms: C_2  and  C_28
REMARK    4  A    between atoms: C_3  and  N_4
REMARK    5  A    between atoms: N_4  and  C_5
REMARK    6  A    between atoms: C_7  and  C_8
REMARK    7  A    between atoms: C_16  and  C_17
REMARK    8  A    between atoms: C_18  and  C_19
REMARK    9  A    between atoms: C_28  and  C_29
REMARK                            x       y       z     vdW  Elec       q    Type
REMARK                         _______ _______ _______ _____ _____    ______ ____
ROOT
ATOM      1  C   UNL     1       0.432   9.656  19.377  0.00  0.00    +0.000 A 
ATOM      2  N   UNL     1      -0.372   9.771  18.305  0.00  0.00    +0.000 NA
ATOM      3  C   UNL     1      -1.532  10.446  18.408  0.00  0.00    +0.000 A 
ATOM      4  N   UNL     1      -2.001  11.046  19.510  0.00  0.00    +0.000 NA
ATOM      5  C   UNL     1      -1.221  10.925  20.609  0.00  0.00    +0.000 A 
ATOM      6  C   UNL     1      -1.520  11.447  21.914  0.00  0.00    +0.000 A 
ATOM      7  C   UNL     1      -0.526  11.144  22.821  0.00  0.00    +0.000 A 
ATOM      8  S   UNL     1       0.748  10.246  22.121  0.00  0.00    +0.000 S 
ATOM      9  C   UNL     1      -0.004  10.245  20.573  0.00  0.00    +0.000 A 
ENDROOT
BRANCH   3  10
ATOM     10  C   UNL     1      -2.361  10.527  17.197  0.00  0.00    +0.000 A 
ATOM     11  C   UNL     1      -3.488  11.361  17.129  0.00  0.00    +0.000 A 
ATOM     12  C   UNL     1      -4.250  11.374  15.973  0.00  0.00    +0.000 A 
ATOM     13  N   UNL     1      -3.968  10.635  14.882  0.00  0.00    +0.000 NA
ATOM     14  C   UNL     1      -2.872   9.852  14.947  0.00  0.00    +0.000 A 
ATOM     15  C   UNL     1      -2.056   9.765  16.061  0.00  0.00    +0.000 A 
ENDBRANCH   3  10
BRANCH   1  16
ATOM     16  N   UNL     1       1.635   8.952  19.287  0.00  0.00    +0.000 N 
ATOM     17  H   UNL     1       2.364   9.444  19.791  0.00  0.00    +0.000 HD
BRANCH  16  18
ATOM     18  C   UNL     1       2.035   8.527  17.941  0.00  0.00    +0.000 C 
BRANCH  18  19
ATOM     19  C   UNL     1       3.080   7.378  17.998  0.00  0.00    +0.000 C 
BRANCH  19  20
ATOM     20  N   UNL     1       2.407   6.072  18.219  0.00  0.00    +0.000 NA
ATOM     21  H   UNL     1       2.187   5.651  17.317  0.00  0.00    +0.000 HD
ATOM     22  H   UNL     1       1.510   6.220  18.677  0.00  0.00    +0.000 HD
ENDBRANCH  19  20
BRANCH  19  23
ATOM     23  C   UNL     1       3.982   7.312  16.740  0.00  0.00    +0.000 C 
BRANCH  23  24
ATOM     24  C   UNL     1       5.142   6.342  16.821  0.00  0.00    +0.000 A 
ATOM     25  C   UNL     1       6.114   6.439  17.825  0.00  0.00    +0.000 A 
ATOM     26  C   UNL     1       7.190   5.547  17.857  0.00  0.00    +0.000 A 
ATOM     27  C   UNL     1       7.303   4.548  16.891  0.00  0.00    +0.000 A 
ATOM     28  C   UNL     1       6.334   4.430  15.900  0.00  0.00    +0.000 A 
ATOM     29  C   UNL     1       5.260   5.319  15.868  0.00  0.00    +0.000 A 
ENDBRANCH  23  24
ENDBRANCH  19  23
ENDBRANCH  18  19
ENDBRANCH  16  18
ENDBRANCH   1  16
BRANCH   6  30
ATOM     30  C   UNL     1      -2.688  12.195  22.303  0.00  0.00    +0.000 C 
ATOM     31  C   UNL     1      -3.705  12.748  22.655  0.00  0.00    +0.000 C 
BRANCH  31  32
ATOM     32  C   UNL     1      -4.935  13.333  23.101  0.00  0.00    +0.000 A 
ATOM     33  C   UNL     1      -5.057  14.705  23.287  0.00  0.00    +0.000 A 
ATOM     34  C   UNL     1      -6.257  15.207  23.791  0.00  0.00    +0.000 A 
ATOM     35  C   UNL     1      -7.294  14.328  24.087  0.00  0.00    +0.000 A 
ATOM     36  C   UNL     1      -7.085  12.977  23.854  0.00  0.00    +0.000 A 
ATOM     37  N   UNL     1      -5.930  12.458  23.374  0.00  0.00    +0.000 NA
ENDBRANCH  31  32
ENDBRANCH   6  30
TORSDOF 9
ENDMDL
