MODEL 1
REMARK VINA RESULT:      -8.3      0.000      0.000
REMARK  Name = 
REMARK  5 active torsions:
REMARK  status: ('A' for Active; 'I' for Inactive)
REMARK    1  A    between atoms: C_2  and  C_4
REMARK    2  A    between atoms: C_4  and  C_5
REMARK    3  A    between atoms: C_12  and  O_13
REMARK    4  A    between atoms: O_13  and  C_14
REMARK    5  A    between atoms: C_14  and  C_15
REMARK                            x       y       z     vdW  Elec       q    Type
REMARK                         _______ _______ _______ _____ _____    ______ ____
ROOT
ATOM      1  C   UNL     1       1.710   4.540  19.893  0.00  0.00    +0.000 A 
ATOM      2  C   UNL     1       1.358   5.662  20.542  0.00  0.00    +0.000 A 
ATOM      3  C   UNL     1       1.882   6.998  20.210  0.00  0.00    +0.000 A 
ATOM      4  O   UNL     1       1.543   7.978  20.864  0.00  0.00    +0.000 OA
ATOM      5  O   UNL     1       2.739   7.082  19.128  0.00  0.00    +0.000 OA
ATOM      6  C   UNL     1       3.125   5.929  18.418  0.00  0.00    +0.000 A 
ATOM      7  C   UNL     1       3.985   6.128  17.335  0.00  0.00    +0.000 A 
ATOM      8  C   UNL     1       4.395   5.033  16.580  0.00  0.00    +0.000 A 
ATOM      9  C   UNL     1       4.000   3.751  16.965  0.00  0.00    +0.000 A 
ATOM     10  C   UNL     1       3.133   3.570  18.047  0.00  0.00    +0.000 A 
ATOM     11  C   UNL     1       2.661   4.662  18.780  0.00  0.00    +0.000 A 
ENDROOT
BRANCH   1  12
ATOM     12  C   UNL     1       1.102   3.212  20.264  0.00  0.00    +0.000 C 
BRANCH  12  14
ATOM     13  N   UNL     1       3.081   2.408  21.443  0.00  0.00    +0.000 N 
ATOM     14  C   UNL     1       1.742   2.656  21.527  0.00  0.00    +0.000 C 
ATOM     15  O   UNL     1       1.129   2.434  22.566  0.00  0.00    +0.000 OA
ATOM     16  H   UNL     1       3.538   2.028  22.261  0.00  0.00    +0.000 HD
ATOM     17  H   UNL     1       3.637   2.587  20.618  0.00  0.00    +0.000 HD
ENDBRANCH  12  14
ENDBRANCH   1  12
BRANCH   8  18
ATOM     18  O   UNL     1       5.176   5.313  15.490  0.00  0.00    +0.000 OA
BRANCH  18  19
ATOM     19  C   UNL     1       6.560   4.981  15.646  0.00  0.00    +0.000 C 
BRANCH  19  20
ATOM     20  C   UNL     1       7.149   5.656  16.859  0.00  0.00    +0.000 A 
ATOM     21  C   UNL     1       7.536   4.929  17.995  0.00  0.00    +0.000 A 
ATOM     22  C   UNL     1       8.096   5.581  19.098  0.00  0.00    +0.000 A 
ATOM     23  C   UNL     1       8.287   6.962  19.070  0.00  0.00    +0.000 A 
ATOM     24  C   UNL     1       7.925   7.679  17.937  0.00  0.00    +0.000 A 
ATOM     25  F   UNL     1       8.115   9.004  17.902  0.00  0.00    +0.000 F 
ATOM     26  C   UNL     1       7.367   7.042  16.836  0.00  0.00    +0.000 A 
ENDBRANCH  19  20
ENDBRANCH  18  19
ENDBRANCH   8  18
TORSDOF 5
ENDMDL
MODEL 2
REMARK VINA RESULT:      -8.2      4.329      7.396
REMARK  Name = 
REMARK  5 active torsions:
REMARK  status: ('A' for Active; 'I' for Inactive)
REMARK    1  A    between atoms: C_2  and  C_4
REMARK    2  A    between atoms: C_4  and  C_5
REMARK    3  A    between atoms: C_12  and  O_13
REMARK    4  A    between atoms: O_13  and  C_14
REMARK    5  A    between atoms: C_14  and  C_15
REMARK                            x       y       z     vdW  Elec       q    Type
REMARK                         _______ _______ _______ _____ _____    ______ ____
ROOT
ATOM      1  C   UNL     1       4.805   4.713  17.576  0.00  0.00    +0.000 A 
ATOM      2  C   UNL     1       4.819   3.606  18.337  0.00  0.00    +0.000 A 
ATOM      3  C   UNL     1       4.063   3.467  19.592  0.00  0.00    +0.000 A 
ATOM      4  O   UNL     1       4.146   2.439  20.257  0.00  0.00    +0.000 OA
ATOM      5  O   UNL     1       3.253   4.527  19.956  0.00  0.00    +0.000 OA
ATOM      6  C   UNL     1       3.205   5.702  19.180  0.00  0.00    +0.000 A 
ATOM      7  C   UNL     1       2.347   6.707  19.631  0.00  0.00    +0.000 A 
ATOM      8  C   UNL     1       2.239   7.889  18.905  0.00  0.00    +0.000 A 
ATOM      9  C   UNL     1       3.046   8.076  17.781  0.00  0.00    +0.000 A 
ATOM     10  C   UNL     1       3.895   7.056  17.338  0.00  0.00    +0.000 A 
ATOM     11  C   UNL     1       3.972   5.839  18.020  0.00  0.00    +0.000 A 
ENDROOT
BRANCH   1  12
ATOM     12  C   UNL     1       5.574   4.769  16.281  0.00  0.00    +0.000 C 
BRANCH  12  14
ATOM     13  N   UNL     1       7.359   6.432  16.320  0.00  0.00    +0.000 N 
ATOM     14  C   UNL     1       7.032   5.124  16.532  0.00  0.00    +0.000 C 
ATOM     15  O   UNL     1       7.881   4.320  16.901  0.00  0.00    +0.000 OA
ATOM     16  H   UNL     1       8.323   6.702  16.468  0.00  0.00    +0.000 HD
ATOM     17  H   UNL     1       6.698   7.140  16.032  0.00  0.00    +0.000 HD
ENDBRANCH  12  14
ENDBRANCH   1  12
BRANCH   8  18
ATOM     18  O   UNL     1       1.324   8.797  19.365  0.00  0.00    +0.000 OA
BRANCH  18  19
ATOM     19  C   UNL     1       1.163   9.956  18.540  0.00  0.00    +0.000 C 
BRANCH  19  20
ATOM     20  C   UNL     1      -0.285  10.365  18.452  0.00  0.00    +0.000 A 
ATOM     21  C   UNL     1      -0.817  11.383  19.259  0.00  0.00    +0.000 A 
ATOM     22  C   UNL     1      -2.160  11.753  19.141  0.00  0.00    +0.000 A 
ATOM     23  C   UNL     1      -2.980  11.119  18.208  0.00  0.00    +0.000 A 
ATOM     24  C   UNL     1      -2.449  10.128  17.393  0.00  0.00    +0.000 A 
ATOM     25  F   UNL     1      -3.230   9.524  16.489  0.00  0.00    +0.000 F 
ATOM     26  C   UNL     1      -1.116   9.752  17.502  0.00  0.00    +0.000 A 
ENDBRANCH  19  20
ENDBRANCH  18  19
ENDBRANCH   8  18
TORSDOF 5
ENDMDL
MODEL 3
REMARK VINA RESULT:      -8.1      4.582      7.048
REMARK  Name = 
REMARK  5 active torsions:
REMARK  status: ('A' for Active; 'I' for Inactive)
REMARK    1  A    between atoms: C_2  and  C_4
REMARK    2  A    between atoms: C_4  and  C_5
REMARK    3  A    between atoms: C_12  and  O_13
REMARK    4  A    between atoms: O_13  and  C_14
REMARK    5  A    between atoms: C_14  and  C_15
REMARK                            x       y       z     vdW  Elec       q    Type
REMARK                         _______ _______ _______ _____ _____    ______ ____
ROOT
ATOM      1  C   UNL     1      -0.153  11.042  20.281  0.00  0.00    +0.000 A 
ATOM      2  C   UNL     1      -0.360  11.024  21.608  0.00  0.00    +0.000 A 
ATOM      3  C   UNL     1       0.134   9.962  22.499  0.00  0.00    +0.000 A 
ATOM      4  O   UNL     1      -0.119   9.990  23.699  0.00  0.00    +0.000 OA
ATOM      5  O   UNL     1       0.902   8.968  21.922  0.00  0.00    +0.000 OA
ATOM      6  C   UNL     1       1.149   8.956  20.535  0.00  0.00    +0.000 A 
ATOM      7  C   UNL     1       1.946   7.914  20.057  0.00  0.00    +0.000 A 
ATOM      8  C   UNL     1       2.241   7.848  18.698  0.00  0.00    +0.000 A 
ATOM      9  C   UNL     1       1.675   8.784  17.831  0.00  0.00    +0.000 A 
ATOM     10  C   UNL     1       0.884   9.826  18.327  0.00  0.00    +0.000 A 
ATOM     11  C   UNL     1       0.626   9.942  19.694  0.00  0.00    +0.000 A 
ENDROOT
BRANCH   1  12
ATOM     12  C   UNL     1      -0.656  12.184  19.436  0.00  0.00    +0.000 C 
BRANCH  12  14
ATOM     13  N   UNL     1      -2.972  12.919  19.661  0.00  0.00    +0.000 N 
ATOM     14  C   UNL     1      -2.129  12.003  19.101  0.00  0.00    +0.000 C 
ATOM     15  O   UNL     1      -2.565  11.110  18.382  0.00  0.00    +0.000 OA
ATOM     16  H   UNL     1      -3.960  12.822  19.467  0.00  0.00    +0.000 HD
ATOM     17  H   UNL     1      -2.666  13.683  20.247  0.00  0.00    +0.000 HD
ENDBRANCH  12  14
ENDBRANCH   1  12
BRANCH   8  18
ATOM     18  O   UNL     1       3.089   6.844  18.315  0.00  0.00    +0.000 OA
BRANCH  18  19
ATOM     19  C   UNL     1       3.450   5.934  19.360  0.00  0.00    +0.000 C 
BRANCH  19  20
ATOM     20  C   UNL     1       2.515   4.751  19.399  0.00  0.00    +0.000 A 
ATOM     21  C   UNL     1       2.036   4.147  18.226  0.00  0.00    +0.000 A 
ATOM     22  C   UNL     1       1.186   3.040  18.295  0.00  0.00    +0.000 A 
ATOM     23  C   UNL     1       0.816   2.519  19.535  0.00  0.00    +0.000 A 
ATOM     24  C   UNL     1       1.307   3.102  20.695  0.00  0.00    +0.000 A 
ATOM     25  F   UNL     1       0.963   2.599  21.887  0.00  0.00    +0.000 F 
ATOM     26  C   UNL     1       2.153   4.203  20.639  0.00  0.00    +0.000 A 
ENDBRANCH  19  20
ENDBRANCH  18  19
ENDBRANCH   8  18
TORSDOF 5
ENDMDL
MODEL 4
REMARK VINA RESULT:      -8.1      3.988      7.333
REMARK  Name = 
REMARK  5 active torsions:
REMARK  status: ('A' for Active; 'I' for Inactive)
REMARK    1  A    between atoms: C_2  and  C_4
REMARK    2  A    between atoms: C_4  and  C_5
REMARK    3  A    between atoms: C_12  and  O_13
REMARK    4  A    between atoms: O_13  and  C_14
REMARK    5  A    between atoms: C_14  and  C_15
REMARK                            x       y       z     vdW  Elec       q    Type
REMARK                         _______ _______ _______ _____ _____    ______ ____
ROOT
ATOM      1  C   UNL     1       4.831   4.876  17.474  0.00  0.00    +0.000 A 
ATOM      2  C   UNL     1       4.925   3.743  18.188  0.00  0.00    +0.000 A 
ATOM      3  C   UNL     1       4.225   3.518  19.463  0.00  0.00    +0.000 A 
ATOM      4  O   UNL     1       4.380   2.471  20.081  0.00  0.00    +0.000 OA
ATOM      5  O   UNL     1       3.381   4.524  19.898  0.00  0.00    +0.000 OA
ATOM      6  C   UNL     1       3.249   5.724  19.173  0.00  0.00    +0.000 A 
ATOM      7  C   UNL     1       2.362   6.669  19.695  0.00  0.00    +0.000 A 
ATOM      8  C   UNL     1       2.172   7.872  19.021  0.00  0.00    +0.000 A 
ATOM      9  C   UNL     1       2.926   8.140  17.878  0.00  0.00    +0.000 A 
ATOM     10  C   UNL     1       3.805   7.181  17.364  0.00  0.00    +0.000 A 
ATOM     11  C   UNL     1       3.964   5.944  17.993  0.00  0.00    +0.000 A 
ENDROOT
BRANCH   1  12
ATOM     12  C   UNL     1       5.548   5.020  16.156  0.00  0.00    +0.000 C 
BRANCH  12  14
ATOM     13  N   UNL     1       7.366   6.605  16.525  0.00  0.00    +0.000 N 
ATOM     14  C   UNL     1       7.030   5.292  16.372  0.00  0.00    +0.000 C 
ATOM     15  O   UNL     1       7.889   4.417  16.412  0.00  0.00    +0.000 OA
ATOM     16  H   UNL     1       8.345   6.823  16.660  0.00  0.00    +0.000 HD
ATOM     17  H   UNL     1       6.699   7.364  16.516  0.00  0.00    +0.000 HD
ENDBRANCH  12  14
ENDBRANCH   1  12
BRANCH   8  18
ATOM     18  O   UNL     1       1.233   8.716  19.551  0.00  0.00    +0.000 OA
BRANCH  18  19
ATOM     19  C   UNL     1       1.121   8.666  20.977  0.00  0.00    +0.000 C 
BRANCH  19  20
ATOM     20  C   UNL     1       0.177   9.726  21.487  0.00  0.00    +0.000 A 
ATOM     21  C   UNL     1      -0.316   9.709  22.800  0.00  0.00    +0.000 A 
ATOM     22  C   UNL     1      -1.175  10.716  23.249  0.00  0.00    +0.000 A 
ATOM     23  C   UNL     1      -1.538  11.757  22.394  0.00  0.00    +0.000 A 
ATOM     24  C   UNL     1      -1.032  11.787  21.101  0.00  0.00    +0.000 A 
ATOM     25  F   UNL     1      -1.370  12.789  20.280  0.00  0.00    +0.000 F 
ATOM     26  C   UNL     1      -0.178  10.791  20.644  0.00  0.00    +0.000 A 
ENDBRANCH  19  20
ENDBRANCH  18  19
ENDBRANCH   8  18
TORSDOF 5
ENDMDL
MODEL 5
REMARK VINA RESULT:      -7.9      3.886      5.630
REMARK  Name = 
REMARK  5 active torsions:
REMARK  status: ('A' for Active; 'I' for Inactive)
REMARK    1  A    between atoms: C_2  and  C_4
REMARK    2  A    between atoms: C_4  and  C_5
REMARK    3  A    between atoms: C_12  and  O_13
REMARK    4  A    between atoms: O_13  and  C_14
REMARK    5  A    between atoms: C_14  and  C_15
REMARK                            x       y       z     vdW  Elec       q    Type
REMARK                         _______ _______ _______ _____ _____    ______ ____
ROOT
ATOM      1  C   UNL     1       0.777  10.607  19.967  0.00  0.00    +0.000 A 
ATOM      2  C   UNL     1       0.426  10.806  21.248  0.00  0.00    +0.000 A 
ATOM      3  C   UNL     1       0.509   9.768  22.289  0.00  0.00    +0.000 A 
ATOM      4  O   UNL     1       0.141  10.006  23.435  0.00  0.00    +0.000 OA
ATOM      5  O   UNL     1       1.036   8.546  21.914  0.00  0.00    +0.000 OA
ATOM      6  C   UNL     1       1.423   8.302  20.582  0.00  0.00    +0.000 A 
ATOM      7  C   UNL     1       1.954   7.039  20.313  0.00  0.00    +0.000 A 
ATOM      8  C   UNL     1       2.370   6.734  19.020  0.00  0.00    +0.000 A 
ATOM      9  C   UNL     1       2.180   7.672  18.003  0.00  0.00    +0.000 A 
ATOM     10  C   UNL     1       1.654   8.935  18.291  0.00  0.00    +0.000 A 
ATOM     11  C   UNL     1       1.286   9.280  19.594  0.00  0.00    +0.000 A 
ENDROOT
BRANCH   1  12
ATOM     12  C   UNL     1       0.702  11.729  18.964  0.00  0.00    +0.000 C 
BRANCH  12  14
ATOM     13  N   UNL     1      -0.985  13.029  17.772  0.00  0.00    +0.000 N 
ATOM     14  C   UNL     1      -0.699  11.841  18.378  0.00  0.00    +0.000 C 
ATOM     15  O   UNL     1      -1.536  10.946  18.428  0.00  0.00    +0.000 OA
ATOM     16  H   UNL     1      -1.911  13.142  17.380  0.00  0.00    +0.000 HD
ATOM     17  H   UNL     1      -0.328  13.793  17.688  0.00  0.00    +0.000 HD
ENDBRANCH  12  14
ENDBRANCH   1  12
BRANCH   8  18
ATOM     18  O   UNL     1       2.949   5.506  18.848  0.00  0.00    +0.000 OA
BRANCH  18  19
ATOM     19  C   UNL     1       4.175   5.317  19.562  0.00  0.00    +0.000 C 
BRANCH  19  20
ATOM     20  C   UNL     1       5.325   5.079  18.615  0.00  0.00    +0.000 A 
ATOM     21  C   UNL     1       6.654   5.333  18.987  0.00  0.00    +0.000 A 
ATOM     22  C   UNL     1       7.700   5.086  18.093  0.00  0.00    +0.000 A 
ATOM     23  C   UNL     1       7.429   4.570  16.826  0.00  0.00    +0.000 A 
ATOM     24  C   UNL     1       6.116   4.297  16.466  0.00  0.00    +0.000 A 
ATOM     25  F   UNL     1       5.852   3.793  15.254  0.00  0.00    +0.000 F 
ATOM     26  C   UNL     1       5.069   4.540  17.345  0.00  0.00    +0.000 A 
ENDBRANCH  19  20
ENDBRANCH  18  19
ENDBRANCH   8  18
TORSDOF 5
ENDMDL
MODEL 6
REMARK VINA RESULT:      -7.9      3.308      4.606
REMARK  Name = 
REMARK  5 active torsions:
REMARK  status: ('A' for Active; 'I' for Inactive)
REMARK    1  A    between atoms: C_2  and  C_4
REMARK    2  A    between atoms: C_4  and  C_5
REMARK    3  A    between atoms: C_12  and  O_13
REMARK    4  A    between atoms: O_13  and  C_14
REMARK    5  A    between atoms: C_14  and  C_15
REMARK                            x       y       z     vdW  Elec       q    Type
REMARK                         _______ _______ _______ _____ _____    ______ ____
ROOT
ATOM      1  C   UNL     1       2.460   4.920  17.980  0.00  0.00    +0.000 A 
ATOM      2  C   UNL     1       2.050   6.159  18.298  0.00  0.00    +0.000 A 
ATOM      3  C   UNL     1       2.839   7.374  18.036  0.00  0.00    +0.000 A 
ATOM      4  O   UNL     1       2.419   8.473  18.381  0.00  0.00    +0.000 OA
ATOM      5  O   UNL     1       4.040   7.209  17.370  0.00  0.00    +0.000 OA
ATOM      6  C   UNL     1       4.500   5.927  17.013  0.00  0.00    +0.000 A 
ATOM      7  C   UNL     1       5.719   5.873  16.334  0.00  0.00    +0.000 A 
ATOM      8  C   UNL     1       6.227   4.639  15.939  0.00  0.00    +0.000 A 
ATOM      9  C   UNL     1       5.543   3.474  16.293  0.00  0.00    +0.000 A 
ATOM     10  C   UNL     1       4.319   3.546  16.966  0.00  0.00    +0.000 A 
ATOM     11  C   UNL     1       3.765   4.778  17.319  0.00  0.00    +0.000 A 
ENDROOT
BRANCH   1  12
ATOM     12  C   UNL     1       1.580   3.725  18.244  0.00  0.00    +0.000 C 
BRANCH  12  14
ATOM     13  N   UNL     1       0.705   3.529  20.513  0.00  0.00    +0.000 N 
ATOM     14  C   UNL     1       1.743   3.238  19.676  0.00  0.00    +0.000 C 
ATOM     15  O   UNL     1       2.722   2.623  20.085  0.00  0.00    +0.000 OA
ATOM     16  H   UNL     1       0.784   3.228  21.476  0.00  0.00    +0.000 HD
ATOM     17  H   UNL     1      -0.132   4.017  20.226  0.00  0.00    +0.000 HD
ENDBRANCH  12  14
ENDBRANCH   1  12
BRANCH   8  18
ATOM     18  O   UNL     1       7.387   4.670  15.213  0.00  0.00    +0.000 OA
BRANCH  18  19
ATOM     19  C   UNL     1       7.245   5.167  13.878  0.00  0.00    +0.000 C 
BRANCH  19  20
ATOM     20  C   UNL     1       6.574   4.152  12.988  0.00  0.00    +0.000 A 
ATOM     21  C   UNL     1       5.179   4.102  12.842  0.00  0.00    +0.000 A 
ATOM     22  C   UNL     1       4.587   3.161  11.995  0.00  0.00    +0.000 A 
ATOM     23  C   UNL     1       5.384   2.270  11.275  0.00  0.00    +0.000 A 
ATOM     24  C   UNL     1       6.765   2.334  11.401  0.00  0.00    +0.000 A 
ATOM     25  F   UNL     1       7.534   1.487  10.705  0.00  0.00    +0.000 F 
ATOM     26  C   UNL     1       7.364   3.265  12.241  0.00  0.00    +0.000 A 
ENDBRANCH  19  20
ENDBRANCH  18  19
ENDBRANCH   8  18
TORSDOF 5
ENDMDL
MODEL 7
REMARK VINA RESULT:      -7.9      3.874      5.704
REMARK  Name = 
REMARK  5 active torsions:
REMARK  status: ('A' for Active; 'I' for Inactive)
REMARK    1  A    between atoms: C_2  and  C_4
REMARK    2  A    between atoms: C_4  and  C_5
REMARK    3  A    between atoms: C_12  and  O_13
REMARK    4  A    between atoms: O_13  and  C_14
REMARK    5  A    between atoms: C_14  and  C_15
REMARK                            x       y       z     vdW  Elec       q    Type
REMARK                         _______ _______ _______ _____ _____    ______ ____
ROOT
ATOM      1  C   UNL     1       0.014  10.803  19.894  0.00  0.00    +0.000 A 
ATOM      2  C   UNL     1      -0.401  11.010  21.154  0.00  0.00    +0.000 A 
ATOM      3  C   UNL     1      -0.122  10.090  22.269  0.00  0.00    +0.000 A 
ATOM      4  O   UNL     1      -0.558  10.323  23.391  0.00  0.00    +0.000 OA
ATOM      5  O   UNL     1       0.664   8.987  21.988  0.00  0.00    +0.000 OA
ATOM      6  C   UNL     1       1.124   8.740  20.681  0.00  0.00    +0.000 A 
ATOM      7  C   UNL     1       1.920   7.605  20.509  0.00  0.00    +0.000 A 
ATOM      8  C   UNL     1       2.421   7.308  19.245  0.00  0.00    +0.000 A 
ATOM      9  C   UNL     1       2.058   8.109  18.161  0.00  0.00    +0.000 A 
ATOM     10  C   UNL     1       1.267   9.246  18.351  0.00  0.00    +0.000 A 
ATOM     11  C   UNL     1       0.804   9.594  19.622  0.00  0.00    +0.000 A 
ENDROOT
BRANCH   1  12
ATOM     12  C   UNL     1      -0.277  11.810  18.811  0.00  0.00    +0.000 C 
BRANCH  12  14
ATOM     13  N   UNL     1      -1.783  12.182  16.927  0.00  0.00    +0.000 N 
ATOM     14  C   UNL     1      -1.524  11.421  18.030  0.00  0.00    +0.000 C 
ATOM     15  O   UNL     1      -2.267  10.496  18.339  0.00  0.00    +0.000 OA
ATOM     16  H   UNL     1      -2.610  11.959  16.390  0.00  0.00    +0.000 HD
ATOM     17  H   UNL     1      -1.197  12.946  16.618  0.00  0.00    +0.000 HD
ENDBRANCH  12  14
ENDBRANCH   1  12
BRANCH   8  18
ATOM     18  O   UNL     1       3.253   6.223  19.167  0.00  0.00    +0.000 OA
BRANCH  18  19
ATOM     19  C   UNL     1       3.255   5.560  17.898  0.00  0.00    +0.000 C 
BRANCH  19  20
ATOM     20  C   UNL     1       4.655   5.185  17.482  0.00  0.00    +0.000 A 
ATOM     21  C   UNL     1       4.922   4.577  16.246  0.00  0.00    +0.000 A 
ATOM     22  C   UNL     1       6.233   4.258  15.880  0.00  0.00    +0.000 A 
ATOM     23  C   UNL     1       7.290   4.556  16.740  0.00  0.00    +0.000 A 
ATOM     24  C   UNL     1       7.029   5.179  17.953  0.00  0.00    +0.000 A 
ATOM     25  F   UNL     1       8.042   5.476  18.777  0.00  0.00    +0.000 F 
ATOM     26  C   UNL     1       5.730   5.500  18.327  0.00  0.00    +0.000 A 
ENDBRANCH  19  20
ENDBRANCH  18  19
ENDBRANCH   8  18
TORSDOF 5
ENDMDL
MODEL 8
REMARK VINA RESULT:      -7.9      4.018      5.804
REMARK  Name = 
REMARK  5 active torsions:
REMARK  status: ('A' for Active; 'I' for Inactive)
REMARK    1  A    between atoms: C_2  and  C_4
REMARK    2  A    between atoms: C_4  and  C_5
REMARK    3  A    between atoms: C_12  and  O_13
REMARK    4  A    between atoms: O_13  and  C_14
REMARK    5  A    between atoms: C_14  and  C_15
REMARK                            x       y       z     vdW  Elec       q    Type
REMARK                         _______ _______ _______ _____ _____    ______ ____
ROOT
ATOM      1  C   UNL     1       0.841  11.293  19.609  0.00  0.00    +0.000 A 
ATOM      2  C   UNL     1       0.372  11.499  20.850  0.00  0.00    +0.000 A 
ATOM      3  C   UNL     1       0.298  10.451  21.881  0.00  0.00    +0.000 A 
ATOM      4  O   UNL     1      -0.172  10.699  22.987  0.00  0.00    +0.000 OA
ATOM      5  O   UNL     1       0.801   9.207  21.546  0.00  0.00    +0.000 OA
ATOM      6  C   UNL     1       1.309   8.954  20.257  0.00  0.00    +0.000 A 
ATOM      7  C   UNL     1       1.803   7.669  20.027  0.00  0.00    +0.000 A 
ATOM      8  C   UNL     1       2.333   7.354  18.779  0.00  0.00    +0.000 A 
ATOM      9  C   UNL     1       2.293   8.307  17.760  0.00  0.00    +0.000 A 
ATOM     10  C   UNL     1       1.802   9.593  18.009  0.00  0.00    +0.000 A 
ATOM     11  C   UNL     1       1.321   9.946  19.272  0.00  0.00    +0.000 A 
ENDROOT
BRANCH   1  12
ATOM     12  C   UNL     1       0.922  12.425  18.617  0.00  0.00    +0.000 C 
BRANCH  12  14
ATOM     13  N   UNL     1      -1.294  12.496  17.599  0.00  0.00    +0.000 N 
ATOM     14  C   UNL     1      -0.429  13.107  18.460  0.00  0.00    +0.000 C 
ATOM     15  O   UNL     1      -0.754  14.132  19.049  0.00  0.00    +0.000 OA
ATOM     16  H   UNL     1      -2.199  12.928  17.462  0.00  0.00    +0.000 HD
ATOM     17  H   UNL     1      -1.085  11.643  17.100  0.00  0.00    +0.000 HD
ENDBRANCH  12  14
ENDBRANCH   1  12
BRANCH   8  18
ATOM     18  O   UNL     1       2.866   6.099  18.651  0.00  0.00    +0.000 OA
BRANCH  18  19
ATOM     19  C   UNL     1       3.763   5.941  17.547  0.00  0.00    +0.000 C 
BRANCH  19  20
ATOM     20  C   UNL     1       5.199   6.086  17.987  0.00  0.00    +0.000 A 
ATOM     21  C   UNL     1       5.735   5.316  19.029  0.00  0.00    +0.000 A 
ATOM     22  C   UNL     1       7.075   5.461  19.402  0.00  0.00    +0.000 A 
ATOM     23  C   UNL     1       7.893   6.366  18.727  0.00  0.00    +0.000 A 
ATOM     24  C   UNL     1       7.369   7.112  17.680  0.00  0.00    +0.000 A 
ATOM     25  F   UNL     1       8.154   7.976  17.024  0.00  0.00    +0.000 F 
ATOM     26  C   UNL     1       6.040   6.977  17.302  0.00  0.00    +0.000 A 
ENDBRANCH  19  20
ENDBRANCH  18  19
ENDBRANCH   8  18
TORSDOF 5
ENDMDL
MODEL 9
REMARK VINA RESULT:      -7.8      4.731      7.245
REMARK  Name = 
REMARK  5 active torsions:
REMARK  status: ('A' for Active; 'I' for Inactive)
REMARK    1  A    between atoms: C_2  and  C_4
REMARK    2  A    between atoms: C_4  and  C_5
REMARK    3  A    between atoms: C_12  and  O_13
REMARK    4  A    between atoms: O_13  and  C_14
REMARK    5  A    between atoms: C_14  and  C_15
REMARK                            x       y       z     vdW  Elec       q    Type
REMARK                         _______ _______ _______ _____ _____    ______ ____
ROOT
ATOM      1  C   UNL     1      -0.404  11.242  19.741  0.00  0.00    +0.000 A 
ATOM      2  C   UNL     1      -0.778  11.465  21.012  0.00  0.00    +0.000 A 
ATOM      3  C   UNL     1      -0.406  10.595  22.139  0.00  0.00    +0.000 A 
ATOM      4  O   UNL     1      -0.809  10.838  23.271  0.00  0.00    +0.000 OA
ATOM      5  O   UNL     1       0.425   9.526  21.856  0.00  0.00    +0.000 OA
ATOM      6  C   UNL     1       0.845   9.263  20.538  0.00  0.00    +0.000 A 
ATOM      7  C   UNL     1       1.692   8.166  20.365  0.00  0.00    +0.000 A 
ATOM      8  C   UNL     1       2.157   7.858  19.090  0.00  0.00    +0.000 A 
ATOM      9  C   UNL     1       1.709   8.607  18.000  0.00  0.00    +0.000 A 
ATOM     10  C   UNL     1       0.867   9.707  18.192  0.00  0.00    +0.000 A 
ATOM     11  C   UNL     1       0.438  10.068  19.470  0.00  0.00    +0.000 A 
ENDROOT
BRANCH   1  12
ATOM     12  C   UNL     1      -0.790  12.200  18.644  0.00  0.00    +0.000 C 
BRANCH  12  14
ATOM     13  N   UNL     1      -0.794  14.616  18.986  0.00  0.00    +0.000 N 
ATOM     14  C   UNL     1      -0.025  13.509  18.771  0.00  0.00    +0.000 C 
ATOM     15  O   UNL     1       1.195  13.601  18.693  0.00  0.00    +0.000 OA
ATOM     16  H   UNL     1      -0.319  15.505  19.066  0.00  0.00    +0.000 HD
ATOM     17  H   UNL     1      -1.801  14.595  19.075  0.00  0.00    +0.000 HD
ENDBRANCH  12  14
ENDBRANCH   1  12
BRANCH   8  18
ATOM     18  O   UNL     1       3.042   6.816  19.008  0.00  0.00    +0.000 OA
BRANCH  18  19
ATOM     19  C   UNL     1       2.840   5.947  17.888  0.00  0.00    +0.000 C 
BRANCH  19  20
ATOM     20  C   UNL     1       2.398   4.576  18.336  0.00  0.00    +0.000 A 
ATOM     21  C   UNL     1       2.619   3.434  17.551  0.00  0.00    +0.000 A 
ATOM     22  C   UNL     1       2.215   2.174  18.002  0.00  0.00    +0.000 A 
ATOM     23  C   UNL     1       1.598   2.042  19.246  0.00  0.00    +0.000 A 
ATOM     24  C   UNL     1       1.400   3.169  20.033  0.00  0.00    +0.000 A 
ATOM     25  F   UNL     1       0.817   3.045  21.232  0.00  0.00    +0.000 F 
ATOM     26  C   UNL     1       1.797   4.426  19.595  0.00  0.00    +0.000 A 
ENDBRANCH  19  20
ENDBRANCH  18  19
ENDBRANCH   8  18
TORSDOF 5
ENDMDL
