MODEL 1
REMARK VINA RESULT:      -7.0      0.000      0.000
REMARK  Name = 
REMARK  3 active torsions:
REMARK  status: ('A' for Active; 'I' for Inactive)
REMARK    1  A    between atoms: N_1  and  C_2
REMARK    2  A    between atoms: C_4  and  C_5
REMARK    3  A    between atoms: C_13  and  O_14
REMARK                            x       y       z     vdW  Elec       q    Type
REMARK                         _______ _______ _______ _____ _____    ______ ____
ROOT
ATOM      1  C   UNL     1       6.580   4.829  17.669  0.00  0.00    +0.000 A 
ATOM      2  C   UNL     1       5.448   4.300  18.301  0.00  0.00    +0.000 A 
ATOM      3  C   UNL     1       4.174   4.891  18.169  0.00  0.00    +0.000 A 
ATOM      4  C   UNL     1       4.086   6.064  17.392  0.00  0.00    +0.000 A 
ATOM      5  C   UNL     1       5.211   6.621  16.776  0.00  0.00    +0.000 A 
ATOM      6  C   UNL     1       6.449   6.009  16.934  0.00  0.00    +0.000 A 
ENDROOT
BRANCH   3   7
ATOM      7  C   UNL     1       2.979   4.307  18.826  0.00  0.00    +0.000 A 
ATOM      8  C   UNL     1       2.173   3.353  18.177  0.00  0.00    +0.000 A 
ATOM      9  C   UNL     1       1.035   2.815  18.788  0.00  0.00    +0.000 A 
ATOM     10  C   UNL     1       0.685   3.207  20.075  0.00  0.00    +0.000 A 
ATOM     11  C   UNL     1       1.467   4.141  20.746  0.00  0.00    +0.000 A 
ATOM     12  C   UNL     1       2.595   4.688  20.127  0.00  0.00    +0.000 A 
ENDBRANCH   3   7
BRANCH   1  13
ATOM     13  N   UNL     1       7.855   4.304  17.950  0.00  0.00    +0.000 N 
ATOM     14  H   UNL     1       8.578   4.612  17.310  0.00  0.00    +0.000 HD
ATOM     15  H   UNL     1       8.089   4.458  18.930  0.00  0.00    +0.000 HD
ENDBRANCH   1  13
BRANCH   6  16
ATOM     16  O   UNL     1       7.571   6.535  16.346  0.00  0.00    +0.000 OA
ATOM     17  H   UNL     1       7.444   7.493  16.253  0.00  0.00    +0.000 HD
ENDBRANCH   6  16
TORSDOF 3
ENDMDL
MODEL 2
REMARK VINA RESULT:      -7.0      0.188      1.290
REMARK  Name = 
REMARK  3 active torsions:
REMARK  status: ('A' for Active; 'I' for Inactive)
REMARK    1  A    between atoms: N_1  and  C_2
REMARK    2  A    between atoms: C_4  and  C_5
REMARK    3  A    between atoms: C_13  and  O_14
REMARK                            x       y       z     vdW  Elec       q    Type
REMARK                         _______ _______ _______ _____ _____    ______ ____
ROOT
ATOM      1  C   UNL     1       6.543   4.828  17.645  0.00  0.00    +0.000 A 
ATOM      2  C   UNL     1       5.389   4.278  18.216  0.00  0.00    +0.000 A 
ATOM      3  C   UNL     1       4.129   4.900  18.100  0.00  0.00    +0.000 A 
ATOM      4  C   UNL     1       4.076   6.125  17.405  0.00  0.00    +0.000 A 
ATOM      5  C   UNL     1       5.223   6.703  16.851  0.00  0.00    +0.000 A 
ATOM      6  C   UNL     1       6.447   6.058  16.991  0.00  0.00    +0.000 A 
ENDROOT
BRANCH   3   7
ATOM      7  C   UNL     1       2.910   4.294  18.692  0.00  0.00    +0.000 A 
ATOM      8  C   UNL     1       2.369   4.762  19.904  0.00  0.00    +0.000 A 
ATOM      9  C   UNL     1       1.231   4.179  20.474  0.00  0.00    +0.000 A 
ATOM     10  C   UNL     1       0.596   3.122  19.833  0.00  0.00    +0.000 A 
ATOM     11  C   UNL     1       1.102   2.643  18.629  0.00  0.00    +0.000 A 
ATOM     12  C   UNL     1       2.247   3.218  18.070  0.00  0.00    +0.000 A 
ENDBRANCH   3   7
BRANCH   1  13
ATOM     13  N   UNL     1       7.803   4.262  17.914  0.00  0.00    +0.000 N 
ATOM     14  H   UNL     1       8.174   4.499  18.826  0.00  0.00    +0.000 HD
ATOM     15  H   UNL     1       7.783   3.259  17.732  0.00  0.00    +0.000 HD
ENDBRANCH   1  13
BRANCH   6  16
ATOM     16  O   UNL     1       7.590   6.603  16.464  0.00  0.00    +0.000 OA
ATOM     17  H   UNL     1       8.249   5.896  16.371  0.00  0.00    +0.000 HD
ENDBRANCH   6  16
TORSDOF 3
ENDMDL
MODEL 3
REMARK VINA RESULT:      -6.9      1.452      2.084
REMARK  Name = 
REMARK  3 active torsions:
REMARK  status: ('A' for Active; 'I' for Inactive)
REMARK    1  A    between atoms: N_1  and  C_2
REMARK    2  A    between atoms: C_4  and  C_5
REMARK    3  A    between atoms: C_13  and  O_14
REMARK                            x       y       z     vdW  Elec       q    Type
REMARK                         _______ _______ _______ _____ _____    ______ ____
ROOT
ATOM      1  C   UNL     1       6.350   6.158  16.874  0.00  0.00    +0.000 A 
ATOM      2  C   UNL     1       5.262   5.946  17.729  0.00  0.00    +0.000 A 
ATOM      3  C   UNL     1       4.385   4.853  17.565  0.00  0.00    +0.000 A 
ATOM      4  C   UNL     1       4.630   3.988  16.480  0.00  0.00    +0.000 A 
ATOM      5  C   UNL     1       5.696   4.201  15.599  0.00  0.00    +0.000 A 
ATOM      6  C   UNL     1       6.534   5.292  15.794  0.00  0.00    +0.000 A 
ENDROOT
BRANCH   3   7
ATOM      7  C   UNL     1       3.249   4.628  18.493  0.00  0.00    +0.000 A 
ATOM      8  C   UNL     1       3.184   5.265  19.746  0.00  0.00    +0.000 A 
ATOM      9  C   UNL     1       2.123   5.040  20.631  0.00  0.00    +0.000 A 
ATOM     10  C   UNL     1       1.090   4.182  20.273  0.00  0.00    +0.000 A 
ATOM     11  C   UNL     1       1.120   3.545  19.037  0.00  0.00    +0.000 A 
ATOM     12  C   UNL     1       2.189   3.761  18.162  0.00  0.00    +0.000 A 
ENDBRANCH   3   7
BRANCH   1  13
ATOM     13  N   UNL     1       7.106   7.341  16.974  0.00  0.00    +0.000 N 
ATOM     14  H   UNL     1       7.992   7.225  17.452  0.00  0.00    +0.000 HD
ATOM     15  H   UNL     1       7.195   7.779  16.057  0.00  0.00    +0.000 HD
ENDBRANCH   1  13
BRANCH   6  16
ATOM     16  O   UNL     1       7.584   5.529  14.945  0.00  0.00    +0.000 OA
ATOM     17  H   UNL     1       7.232   5.914  14.126  0.00  0.00    +0.000 HD
ENDBRANCH   6  16
TORSDOF 3
ENDMDL
MODEL 4
REMARK VINA RESULT:      -6.9      1.454      1.669
REMARK  Name = 
REMARK  3 active torsions:
REMARK  status: ('A' for Active; 'I' for Inactive)
REMARK    1  A    between atoms: N_1  and  C_2
REMARK    2  A    between atoms: C_4  and  C_5
REMARK    3  A    between atoms: C_13  and  O_14
REMARK                            x       y       z     vdW  Elec       q    Type
REMARK                         _______ _______ _______ _____ _____    ______ ____
ROOT
ATOM      1  C   UNL     1       6.390   6.139  16.869  0.00  0.00    +0.000 A 
ATOM      2  C   UNL     1       5.299   5.929  17.723  0.00  0.00    +0.000 A 
ATOM      3  C   UNL     1       4.424   4.834  17.561  0.00  0.00    +0.000 A 
ATOM      4  C   UNL     1       4.672   3.965  16.480  0.00  0.00    +0.000 A 
ATOM      5  C   UNL     1       5.739   4.176  15.601  0.00  0.00    +0.000 A 
ATOM      6  C   UNL     1       6.577   5.269  15.793  0.00  0.00    +0.000 A 
ENDROOT
BRANCH   3   7
ATOM      7  C   UNL     1       3.286   4.612  18.488  0.00  0.00    +0.000 A 
ATOM      8  C   UNL     1       2.238   3.728  18.168  0.00  0.00    +0.000 A 
ATOM      9  C   UNL     1       1.155   3.531  19.032  0.00  0.00    +0.000 A 
ATOM     10  C   UNL     1       1.102   4.204  20.247  0.00  0.00    +0.000 A 
ATOM     11  C   UNL     1       2.128   5.077  20.595  0.00  0.00    +0.000 A 
ATOM     12  C   UNL     1       3.201   5.282  19.723  0.00  0.00    +0.000 A 
ENDBRANCH   3   7
BRANCH   1  13
ATOM     13  N   UNL     1       7.144   7.323  16.966  0.00  0.00    +0.000 N 
ATOM     14  H   UNL     1       8.140   7.169  17.072  0.00  0.00    +0.000 HD
ATOM     15  H   UNL     1       6.910   7.951  16.199  0.00  0.00    +0.000 HD
ENDBRANCH   1  13
BRANCH   6  16
ATOM     16  O   UNL     1       7.628   5.503  14.945  0.00  0.00    +0.000 OA
ATOM     17  H   UNL     1       7.523   6.391  14.568  0.00  0.00    +0.000 HD
ENDBRANCH   6  16
TORSDOF 3
ENDMDL
MODEL 5
REMARK VINA RESULT:      -6.8      1.212      1.775
REMARK  Name = 
REMARK  3 active torsions:
REMARK  status: ('A' for Active; 'I' for Inactive)
REMARK    1  A    between atoms: N_1  and  C_2
REMARK    2  A    between atoms: C_4  and  C_5
REMARK    3  A    between atoms: C_13  and  O_14
REMARK                            x       y       z     vdW  Elec       q    Type
REMARK                         _______ _______ _______ _____ _____    ______ ____
ROOT
ATOM      1  C   UNL     1       6.685   4.547  17.942  0.00  0.00    +0.000 A 
ATOM      2  C   UNL     1       5.500   4.355  18.663  0.00  0.00    +0.000 A 
ATOM      3  C   UNL     1       4.285   4.022  18.028  0.00  0.00    +0.000 A 
ATOM      4  C   UNL     1       4.300   3.917  16.623  0.00  0.00    +0.000 A 
ATOM      5  C   UNL     1       5.469   4.133  15.884  0.00  0.00    +0.000 A 
ATOM      6  C   UNL     1       6.645   4.462  16.549  0.00  0.00    +0.000 A 
ENDROOT
BRANCH   3   7
ATOM      7  C   UNL     1       3.042   3.800  18.807  0.00  0.00    +0.000 A 
ATOM      8  C   UNL     1       2.819   4.444  20.039  0.00  0.00    +0.000 A 
ATOM      9  C   UNL     1       1.656   4.220  20.784  0.00  0.00    +0.000 A 
ATOM     10  C   UNL     1       0.677   3.358  20.305  0.00  0.00    +0.000 A 
ATOM     11  C   UNL     1       0.864   2.714  19.086  0.00  0.00    +0.000 A 
ATOM     12  C   UNL     1       2.034   2.929  18.351  0.00  0.00    +0.000 A 
ENDBRANCH   3   7
BRANCH   1  13
ATOM     13  N   UNL     1       7.837   5.029  18.592  0.00  0.00    +0.000 N 
ATOM     14  H   UNL     1       7.667   5.829  19.191  0.00  0.00    +0.000 HD
ATOM     15  H   UNL     1       8.319   4.264  19.063  0.00  0.00    +0.000 HD
ENDBRANCH   1  13
BRANCH   6  16
ATOM     16  O   UNL     1       7.804   4.684  15.852  0.00  0.00    +0.000 OA
ATOM     17  H   UNL     1       7.629   5.359  15.177  0.00  0.00    +0.000 HD
ENDBRANCH   6  16
TORSDOF 3
ENDMDL
MODEL 6
REMARK VINA RESULT:      -6.8      0.889      1.080
REMARK  Name = 
REMARK  3 active torsions:
REMARK  status: ('A' for Active; 'I' for Inactive)
REMARK    1  A    between atoms: N_1  and  C_2
REMARK    2  A    between atoms: C_4  and  C_5
REMARK    3  A    between atoms: C_13  and  O_14
REMARK                            x       y       z     vdW  Elec       q    Type
REMARK                         _______ _______ _______ _____ _____    ______ ____
ROOT
ATOM      1  C   UNL     1       6.667   4.806  17.714  0.00  0.00    +0.000 A 
ATOM      2  C   UNL     1       5.649   4.267  18.509  0.00  0.00    +0.000 A 
ATOM      3  C   UNL     1       4.375   4.866  18.599  0.00  0.00    +0.000 A 
ATOM      4  C   UNL     1       4.171   6.058  17.875  0.00  0.00    +0.000 A 
ATOM      5  C   UNL     1       5.185   6.625  17.097  0.00  0.00    +0.000 A 
ATOM      6  C   UNL     1       6.428   6.004  17.038  0.00  0.00    +0.000 A 
ENDROOT
BRANCH   3   7
ATOM      7  C   UNL     1       3.298   4.271  19.429  0.00  0.00    +0.000 A 
ATOM      8  C   UNL     1       1.975   4.747  19.371  0.00  0.00    +0.000 A 
ATOM      9  C   UNL     1       0.962   4.200  20.166  0.00  0.00    +0.000 A 
ATOM     10  C   UNL     1       1.246   3.148  21.029  0.00  0.00    +0.000 A 
ATOM     11  C   UNL     1       2.542   2.648  21.102  0.00  0.00    +0.000 A 
ATOM     12  C   UNL     1       3.555   3.208  20.316  0.00  0.00    +0.000 A 
ENDBRANCH   3   7
BRANCH   1  13
ATOM     13  N   UNL     1       7.967   4.270  17.772  0.00  0.00    +0.000 N 
ATOM     14  H   UNL     1       8.023   3.295  17.501  0.00  0.00    +0.000 HD
ATOM     15  H   UNL     1       8.617   4.870  17.265  0.00  0.00    +0.000 HD
ENDBRANCH   1  13
BRANCH   6  16
ATOM     16  O   UNL     1       7.443   6.540  16.289  0.00  0.00    +0.000 OA
ATOM     17  H   UNL     1       7.624   5.939  15.548  0.00  0.00    +0.000 HD
ENDBRANCH   6  16
TORSDOF 3
ENDMDL
MODEL 7
REMARK VINA RESULT:      -6.7      1.338      1.850
REMARK  Name = 
REMARK  3 active torsions:
REMARK  status: ('A' for Active; 'I' for Inactive)
REMARK    1  A    between atoms: N_1  and  C_2
REMARK    2  A    between atoms: C_4  and  C_5
REMARK    3  A    between atoms: C_13  and  O_14
REMARK                            x       y       z     vdW  Elec       q    Type
REMARK                         _______ _______ _______ _____ _____    ______ ____
ROOT
ATOM      1  C   UNL     1       5.680   4.381  15.849  0.00  0.00    +0.000 A 
ATOM      2  C   UNL     1       4.579   3.921  16.582  0.00  0.00    +0.000 A 
ATOM      3  C   UNL     1       4.069   4.631  17.689  0.00  0.00    +0.000 A 
ATOM      4  C   UNL     1       4.732   5.820  18.053  0.00  0.00    +0.000 A 
ATOM      5  C   UNL     1       5.850   6.280  17.350  0.00  0.00    +0.000 A 
ATOM      6  C   UNL     1       6.323   5.548  16.267  0.00  0.00    +0.000 A 
ENDROOT
BRANCH   3   7
ATOM      7  C   UNL     1       2.887   4.142  18.442  0.00  0.00    +0.000 A 
ATOM      8  C   UNL     1       2.435   4.793  19.606  0.00  0.00    +0.000 A 
ATOM      9  C   UNL     1       1.333   4.322  20.329  0.00  0.00    +0.000 A 
ATOM     10  C   UNL     1       0.643   3.197  19.893  0.00  0.00    +0.000 A 
ATOM     11  C   UNL     1       1.060   2.538  18.741  0.00  0.00    +0.000 A 
ATOM     12  C   UNL     1       2.171   3.002  18.030  0.00  0.00    +0.000 A 
ENDBRANCH   3   7
BRANCH   1  13
ATOM     13  N   UNL     1       6.254   3.569  14.853  0.00  0.00    +0.000 N 
ATOM     14  H   UNL     1       5.685   3.476  14.020  0.00  0.00    +0.000 HD
ATOM     15  H   UNL     1       7.208   3.872  14.662  0.00  0.00    +0.000 HD
ENDBRANCH   1  13
BRANCH   6  16
ATOM     16  O   UNL     1       7.420   5.971  15.561  0.00  0.00    +0.000 OA
ATOM     17  H   UNL     1       7.648   6.866  15.861  0.00  0.00    +0.000 HD
ENDBRANCH   6  16
TORSDOF 3
ENDMDL
MODEL 8
REMARK VINA RESULT:      -6.7      1.337      1.350
REMARK  Name = 
REMARK  3 active torsions:
REMARK  status: ('A' for Active; 'I' for Inactive)
REMARK    1  A    between atoms: N_1  and  C_2
REMARK    2  A    between atoms: C_4  and  C_5
REMARK    3  A    between atoms: C_13  and  O_14
REMARK                            x       y       z     vdW  Elec       q    Type
REMARK                         _______ _______ _______ _____ _____    ______ ____
ROOT
ATOM      1  C   UNL     1       5.689   4.376  15.844  0.00  0.00    +0.000 A 
ATOM      2  C   UNL     1       4.592   3.921  16.586  0.00  0.00    +0.000 A 
ATOM      3  C   UNL     1       4.090   4.638  17.692  0.00  0.00    +0.000 A 
ATOM      4  C   UNL     1       4.757   5.828  18.046  0.00  0.00    +0.000 A 
ATOM      5  C   UNL     1       5.871   6.283  17.333  0.00  0.00    +0.000 A 
ATOM      6  C   UNL     1       6.336   5.545  16.251  0.00  0.00    +0.000 A 
ENDROOT
BRANCH   3   7
ATOM      7  C   UNL     1       2.912   4.155  18.455  0.00  0.00    +0.000 A 
ATOM      8  C   UNL     1       2.168   3.037  18.032  0.00  0.00    +0.000 A 
ATOM      9  C   UNL     1       1.046   2.592  18.740  0.00  0.00    +0.000 A 
ATOM     10  C   UNL     1       0.651   3.246  19.901  0.00  0.00    +0.000 A 
ATOM     11  C   UNL     1       1.372   4.347  20.350  0.00  0.00    +0.000 A 
ATOM     12  C   UNL     1       2.483   4.799  19.632  0.00  0.00    +0.000 A 
ENDBRANCH   3   7
BRANCH   1  13
ATOM     13  N   UNL     1       6.256   3.559  14.849  0.00  0.00    +0.000 N 
ATOM     14  H   UNL     1       5.609   2.892  14.446  0.00  0.00    +0.000 HD
ATOM     15  H   UNL     1       6.733   4.132  14.154  0.00  0.00    +0.000 HD
ENDBRANCH   1  13
BRANCH   6  16
ATOM     16  O   UNL     1       7.429   5.963  15.536  0.00  0.00    +0.000 OA
ATOM     17  H   UNL     1       8.177   5.384  15.756  0.00  0.00    +0.000 HD
ENDBRANCH   6  16
TORSDOF 3
ENDMDL
MODEL 9
REMARK VINA RESULT:      -6.7      1.300      1.724
REMARK  Name = 
REMARK  3 active torsions:
REMARK  status: ('A' for Active; 'I' for Inactive)
REMARK    1  A    between atoms: N_1  and  C_2
REMARK    2  A    between atoms: C_4  and  C_5
REMARK    3  A    between atoms: C_13  and  O_14
REMARK                            x       y       z     vdW  Elec       q    Type
REMARK                         _______ _______ _______ _____ _____    ______ ____
ROOT
ATOM      1  C   UNL     1       5.389   6.289  16.573  0.00  0.00    +0.000 A 
ATOM      2  C   UNL     1       4.267   5.659  17.128  0.00  0.00    +0.000 A 
ATOM      3  C   UNL     1       4.297   5.078  18.413  0.00  0.00    +0.000 A 
ATOM      4  C   UNL     1       5.517   5.128  19.115  0.00  0.00    +0.000 A 
ATOM      5  C   UNL     1       6.655   5.728  18.566  0.00  0.00    +0.000 A 
ATOM      6  C   UNL     1       6.584   6.287  17.294  0.00  0.00    +0.000 A 
ENDROOT
BRANCH   3   7
ATOM      7  C   UNL     1       3.094   4.434  18.997  0.00  0.00    +0.000 A 
ATOM      8  C   UNL     1       2.300   3.542  18.251  0.00  0.00    +0.000 A 
ATOM      9  C   UNL     1       1.155   2.949  18.794  0.00  0.00    +0.000 A 
ATOM     10  C   UNL     1       0.785   3.221  20.106  0.00  0.00    +0.000 A 
ATOM     11  C   UNL     1       1.555   4.090  20.872  0.00  0.00    +0.000 A 
ATOM     12  C   UNL     1       2.690   4.693  20.321  0.00  0.00    +0.000 A 
ENDBRANCH   3   7
BRANCH   1  13
ATOM     13  N   UNL     1       5.367   6.717  15.233  0.00  0.00    +0.000 N 
ATOM     14  H   UNL     1       6.246   6.591  14.746  0.00  0.00    +0.000 HD
ATOM     15  H   UNL     1       4.571   6.306  14.747  0.00  0.00    +0.000 HD
ENDBRANCH   1  13
BRANCH   6  16
ATOM     16  O   UNL     1       7.684   6.878  16.727  0.00  0.00    +0.000 OA
ATOM     17  H   UNL     1       7.400   7.701  16.298  0.00  0.00    +0.000 HD
ENDBRANCH   6  16
TORSDOF 3
ENDMDL
