MODEL 1
REMARK VINA RESULT:      -7.8      0.000      0.000
REMARK  Name = 
REMARK  6 active torsions:
REMARK  status: ('A' for Active; 'I' for Inactive)
REMARK    1  A    between atoms: C_2  and  C_3
REMARK    2  A    between atoms: C_3  and  C_4
REMARK    3  A    between atoms: C_4  and  C_5
REMARK    4  A    between atoms: N_7  and  C_8
REMARK    5  A    between atoms: N_14  and  N_15
REMARK    6  A    between atoms: C_16  and  C_17
REMARK                            x       y       z     vdW  Elec       q    Type
REMARK                         _______ _______ _______ _____ _____    ______ ____
ROOT
ATOM      1  O   UNL     1       7.583   6.001  18.880  0.00  0.00    +0.000 OA
ATOM      2  C   UNL     1       7.224   6.558  17.848  0.00  0.00    +0.000 C 
ATOM      3  N   UNL     1       7.616   7.824  17.426  0.00  0.00    +0.000 N 
ATOM      4  H   UNL     1       7.263   8.211  16.557  0.00  0.00    +0.000 HD
ENDROOT
BRANCH   3   5
ATOM      5  N   UNL     1       8.450   8.570  18.202  0.00  0.00    +0.000 NA
ATOM      6  C   UNL     1       8.518   9.830  17.918  0.00  0.00    +0.000 C 
BRANCH   6   7
ATOM      7  C   UNL     1       9.387  10.745  18.685  0.00  0.00    +0.000 A 
ATOM      8  C   UNL     1       9.303  10.801  20.074  0.00  0.00    +0.000 A 
ATOM      9  C   UNL     1      10.138  11.685  20.733  0.00  0.00    +0.000 A 
ATOM     10  N   UNL     1      11.022  12.490  20.103  0.00  0.00    +0.000 NA
ATOM     11  C   UNL     1      11.079  12.408  18.756  0.00  0.00    +0.000 A 
ATOM     12  C   UNL     1      10.289  11.558  18.004  0.00  0.00    +0.000 A 
ENDBRANCH   6   7
ENDBRANCH   3   5
BRANCH   2  13
ATOM     13  C   UNL     1       6.312   5.889  16.847  0.00  0.00    +0.000 C 
BRANCH  13  14
ATOM     14  C   UNL     1       5.069   6.721  16.521  0.00  0.00    +0.000 C 
BRANCH  14  15
ATOM     15  C   UNL     1       3.992   6.417  17.545  0.00  0.00    +0.000 C 
ATOM     16  O   UNL     1       3.305   7.320  18.011  0.00  0.00    +0.000 OA
ATOM     17  N   UNL     1       3.898   5.077  17.888  0.00  0.00    +0.000 N 
ATOM     18  H   UNL     1       4.644   4.459  17.589  0.00  0.00    +0.000 HD
BRANCH  17  19
ATOM     19  C   UNL     1       2.921   4.529  18.755  0.00  0.00    +0.000 A 
ATOM     20  C   UNL     1       1.885   3.705  18.303  0.00  0.00    +0.000 A 
ATOM     21  C   UNL     1       0.923   3.207  19.182  0.00  0.00    +0.000 A 
ATOM     22  C   UNL     1       0.988   3.520  20.534  0.00  0.00    +0.000 A 
ATOM     23  C   UNL     1       2.026   4.322  21.006  0.00  0.00    +0.000 A 
ATOM     24  C   UNL     1       2.997   4.817  20.123  0.00  0.00    +0.000 A 
ENDBRANCH  17  19
ENDBRANCH  14  15
ENDBRANCH  13  14
ENDBRANCH   2  13
TORSDOF 6
ENDMDL
MODEL 2
REMARK VINA RESULT:      -7.8      1.265      1.347
REMARK  Name = 
REMARK  6 active torsions:
REMARK  status: ('A' for Active; 'I' for Inactive)
REMARK    1  A    between atoms: C_2  and  C_3
REMARK    2  A    between atoms: C_3  and  C_4
REMARK    3  A    between atoms: C_4  and  C_5
REMARK    4  A    between atoms: N_7  and  C_8
REMARK    5  A    between atoms: N_14  and  N_15
REMARK    6  A    between atoms: C_16  and  C_17
REMARK                            x       y       z     vdW  Elec       q    Type
REMARK                         _______ _______ _______ _____ _____    ______ ____
ROOT
ATOM      1  O   UNL     1       8.041   6.375  18.842  0.00  0.00    +0.000 OA
ATOM      2  C   UNL     1       7.509   6.974  17.913  0.00  0.00    +0.000 C 
ATOM      3  N   UNL     1       7.728   8.305  17.570  0.00  0.00    +0.000 N 
ATOM      4  H   UNL     1       7.238   8.722  16.786  0.00  0.00    +0.000 HD
ENDROOT
BRANCH   3   5
ATOM      5  N   UNL     1       8.575   9.067  18.314  0.00  0.00    +0.000 NA
ATOM      6  C   UNL     1       8.723  10.294  17.930  0.00  0.00    +0.000 C 
BRANCH   6   7
ATOM      7  C   UNL     1       9.616  11.223  18.653  0.00  0.00    +0.000 A 
ATOM      8  C   UNL     1       9.789  11.109  20.030  0.00  0.00    +0.000 A 
ATOM      9  C   UNL     1      10.630  12.014  20.649  0.00  0.00    +0.000 A 
ATOM     10  N   UNL     1      11.288  12.995  19.992  0.00  0.00    +0.000 NA
ATOM     11  C   UNL     1      11.098  13.076  18.657  0.00  0.00    +0.000 A 
ATOM     12  C   UNL     1      10.279  12.219  17.944  0.00  0.00    +0.000 A 
ENDBRANCH   6   7
ENDBRANCH   3   5
BRANCH   2  13
ATOM     13  C   UNL     1       6.550   6.298  16.963  0.00  0.00    +0.000 C 
BRANCH  13  14
ATOM     14  C   UNL     1       6.549   4.773  17.099  0.00  0.00    +0.000 C 
BRANCH  14  15
ATOM     15  C   UNL     1       5.540   4.375  18.159  0.00  0.00    +0.000 C 
ATOM     16  O   UNL     1       5.911   3.852  19.206  0.00  0.00    +0.000 OA
ATOM     17  N   UNL     1       4.223   4.635  17.813  0.00  0.00    +0.000 N 
ATOM     18  H   UNL     1       4.027   4.882  16.851  0.00  0.00    +0.000 HD
BRANCH  17  19
ATOM     19  C   UNL     1       3.107   4.433  18.662  0.00  0.00    +0.000 A 
ATOM     20  C   UNL     1       2.222   3.361  18.505  0.00  0.00    +0.000 A 
ATOM     21  C   UNL     1       1.116   3.209  19.343  0.00  0.00    +0.000 A 
ATOM     22  C   UNL     1       0.883   4.126  20.360  0.00  0.00    +0.000 A 
ATOM     23  C   UNL     1       1.768   5.188  20.545  0.00  0.00    +0.000 A 
ATOM     24  C   UNL     1       2.882   5.336  19.708  0.00  0.00    +0.000 A 
ENDBRANCH  17  19
ENDBRANCH  14  15
ENDBRANCH  13  14
ENDBRANCH   2  13
TORSDOF 6
ENDMDL
MODEL 3
REMARK VINA RESULT:      -7.8      0.925      1.349
REMARK  Name = 
REMARK  6 active torsions:
REMARK  status: ('A' for Active; 'I' for Inactive)
REMARK    1  A    between atoms: C_2  and  C_3
REMARK    2  A    between atoms: C_3  and  C_4
REMARK    3  A    between atoms: C_4  and  C_5
REMARK    4  A    between atoms: N_7  and  C_8
REMARK    5  A    between atoms: N_14  and  N_15
REMARK    6  A    between atoms: C_16  and  C_17
REMARK                            x       y       z     vdW  Elec       q    Type
REMARK                         _______ _______ _______ _____ _____    ______ ____
ROOT
ATOM      1  O   UNL     1       8.086   6.383  18.657  0.00  0.00    +0.000 OA
ATOM      2  C   UNL     1       7.492   7.064  17.827  0.00  0.00    +0.000 C 
ATOM      3  N   UNL     1       7.681   8.424  17.605  0.00  0.00    +0.000 N 
ATOM      4  H   UNL     1       7.139   8.912  16.899  0.00  0.00    +0.000 HD
ENDROOT
BRANCH   3   5
ATOM      5  N   UNL     1       8.571   9.119  18.366  0.00  0.00    +0.000 NA
ATOM      6  C   UNL     1       8.910  10.287  17.921  0.00  0.00    +0.000 C 
BRANCH   6   7
ATOM      7  C   UNL     1       9.868  11.138  18.654  0.00  0.00    +0.000 A 
ATOM      8  C   UNL     1       9.760  11.300  20.033  0.00  0.00    +0.000 A 
ATOM      9  C   UNL     1      10.683  12.117  20.659  0.00  0.00    +0.000 A 
ATOM     10  N   UNL     1      11.676  12.762  20.006  0.00  0.00    +0.000 NA
ATOM     11  C   UNL     1      11.753  12.581  18.670  0.00  0.00    +0.000 A 
ATOM     12  C   UNL     1      10.881  11.785  17.950  0.00  0.00    +0.000 A 
ENDBRANCH   6   7
ENDBRANCH   3   5
BRANCH   2  13
ATOM     13  C   UNL     1       6.477   6.474  16.878  0.00  0.00    +0.000 C 
BRANCH  13  14
ATOM     14  C   UNL     1       5.043   6.910  17.189  0.00  0.00    +0.000 C 
BRANCH  14  15
ATOM     15  C   UNL     1       4.411   5.892  18.121  0.00  0.00    +0.000 C 
ATOM     16  O   UNL     1       5.045   5.439  19.068  0.00  0.00    +0.000 OA
ATOM     17  N   UNL     1       3.115   5.539  17.777  0.00  0.00    +0.000 N 
ATOM     18  H   UNL     1       2.772   5.827  16.869  0.00  0.00    +0.000 HD
BRANCH  17  19
ATOM     19  C   UNL     1       2.284   4.676  18.533  0.00  0.00    +0.000 A 
ATOM     20  C   UNL     1       1.898   4.956  19.848  0.00  0.00    +0.000 A 
ATOM     21  C   UNL     1       1.102   4.068  20.572  0.00  0.00    +0.000 A 
ATOM     22  C   UNL     1       0.672   2.884  19.986  0.00  0.00    +0.000 A 
ATOM     23  C   UNL     1       1.029   2.598  18.669  0.00  0.00    +0.000 A 
ATOM     24  C   UNL     1       1.823   3.494  17.939  0.00  0.00    +0.000 A 
ENDBRANCH  17  19
ENDBRANCH  14  15
ENDBRANCH  13  14
ENDBRANCH   2  13
TORSDOF 6
ENDMDL
MODEL 4
REMARK VINA RESULT:      -7.7      1.320      1.717
REMARK  Name = 
REMARK  6 active torsions:
REMARK  status: ('A' for Active; 'I' for Inactive)
REMARK    1  A    between atoms: C_2  and  C_3
REMARK    2  A    between atoms: C_3  and  C_4
REMARK    3  A    between atoms: C_4  and  C_5
REMARK    4  A    between atoms: N_7  and  C_8
REMARK    5  A    between atoms: N_14  and  N_15
REMARK    6  A    between atoms: C_16  and  C_17
REMARK                            x       y       z     vdW  Elec       q    Type
REMARK                         _______ _______ _______ _____ _____    ______ ____
ROOT
ATOM      1  O   UNL     1       8.007   6.377  18.801  0.00  0.00    +0.000 OA
ATOM      2  C   UNL     1       7.434   6.971  17.894  0.00  0.00    +0.000 C 
ATOM      3  N   UNL     1       7.637   8.300  17.535  0.00  0.00    +0.000 N 
ATOM      4  H   UNL     1       7.113   8.713  16.771  0.00  0.00    +0.000 HD
ENDROOT
BRANCH   3   5
ATOM      5  N   UNL     1       8.516   9.066  18.237  0.00  0.00    +0.000 NA
ATOM      6  C   UNL     1       8.613  10.303  17.869  0.00  0.00    +0.000 C 
BRANCH   6   7
ATOM      7  C   UNL     1       9.532  11.237  18.551  0.00  0.00    +0.000 A 
ATOM      8  C   UNL     1      10.105  12.299  17.856  0.00  0.00    +0.000 A 
ATOM      9  C   UNL     1      10.964  13.132  18.548  0.00  0.00    +0.000 A 
ATOM     10  N   UNL     1      11.273  12.969  19.854  0.00  0.00    +0.000 NA
ATOM     11  C   UNL     1      10.699  11.931  20.498  0.00  0.00    +0.000 A 
ATOM     12  C   UNL     1       9.826  11.041  19.897  0.00  0.00    +0.000 A 
ENDBRANCH   6   7
ENDBRANCH   3   5
BRANCH   2  13
ATOM     13  C   UNL     1       6.435   6.289  16.991  0.00  0.00    +0.000 C 
BRANCH  13  14
ATOM     14  C   UNL     1       6.526   4.763  17.043  0.00  0.00    +0.000 C 
BRANCH  14  15
ATOM     15  C   UNL     1       5.497   4.242  18.029  0.00  0.00    +0.000 C 
ATOM     16  O   UNL     1       5.840   3.865  19.144  0.00  0.00    +0.000 OA
ATOM     17  N   UNL     1       4.201   4.222  17.537  0.00  0.00    +0.000 N 
ATOM     18  H   UNL     1       4.070   4.368  16.543  0.00  0.00    +0.000 HD
BRANCH  17  19
ATOM     19  C   UNL     1       3.055   3.860  18.287  0.00  0.00    +0.000 A 
ATOM     20  C   UNL     1       2.363   2.662  18.080  0.00  0.00    +0.000 A 
ATOM     21  C   UNL     1       1.220   2.351  18.818  0.00  0.00    +0.000 A 
ATOM     22  C   UNL     1       0.756   3.234  19.785  0.00  0.00    +0.000 A 
ATOM     23  C   UNL     1       1.447   4.422  20.021  0.00  0.00    +0.000 A 
ATOM     24  C   UNL     1       2.598   4.731  19.283  0.00  0.00    +0.000 A 
ENDBRANCH  17  19
ENDBRANCH  14  15
ENDBRANCH  13  14
ENDBRANCH   2  13
TORSDOF 6
ENDMDL
MODEL 5
REMARK VINA RESULT:      -7.7      1.061      1.430
REMARK  Name = 
REMARK  6 active torsions:
REMARK  status: ('A' for Active; 'I' for Inactive)
REMARK    1  A    between atoms: C_2  and  C_3
REMARK    2  A    between atoms: C_3  and  C_4
REMARK    3  A    between atoms: C_4  and  C_5
REMARK    4  A    between atoms: N_7  and  C_8
REMARK    5  A    between atoms: N_14  and  N_15
REMARK    6  A    between atoms: C_16  and  C_17
REMARK                            x       y       z     vdW  Elec       q    Type
REMARK                         _______ _______ _______ _____ _____    ______ ____
ROOT
ATOM      1  O   UNL     1       7.749   5.600  19.952  0.00  0.00    +0.000 OA
ATOM      2  C   UNL     1       7.576   5.754  18.747  0.00  0.00    +0.000 C 
ATOM      3  N   UNL     1       7.906   6.891  18.017  0.00  0.00    +0.000 N 
ATOM      4  H   UNL     1       7.722   6.935  17.020  0.00  0.00    +0.000 HD
ENDROOT
BRANCH   3   5
ATOM      5  N   UNL     1       8.446   7.971  18.647  0.00  0.00    +0.000 NA
ATOM      6  C   UNL     1       8.324   9.105  18.037  0.00  0.00    +0.000 C 
BRANCH   6   7
ATOM      7  C   UNL     1       8.868  10.350  18.617  0.00  0.00    +0.000 A 
ATOM      8  C   UNL     1       8.890  11.527  17.872  0.00  0.00    +0.000 A 
ATOM      9  C   UNL     1       9.420  12.655  18.469  0.00  0.00    +0.000 A 
ATOM     10  N   UNL     1       9.913  12.675  19.727  0.00  0.00    +0.000 NA
ATOM     11  C   UNL     1       9.874  11.518  20.422  0.00  0.00    +0.000 A 
ATOM     12  C   UNL     1       9.365  10.335  19.917  0.00  0.00    +0.000 A 
ENDBRANCH   6   7
ENDBRANCH   3   5
BRANCH   2  13
ATOM     13  C   UNL     1       7.004   4.667  17.870  0.00  0.00    +0.000 C 
BRANCH  13  14
ATOM     14  C   UNL     1       5.965   5.187  16.873  0.00  0.00    +0.000 C 
BRANCH  14  15
ATOM     15  C   UNL     1       4.597   5.153  17.527  0.00  0.00    +0.000 C 
ATOM     16  O   UNL     1       3.822   6.095  17.395  0.00  0.00    +0.000 OA
ATOM     17  N   UNL     1       4.352   4.007  18.268  0.00  0.00    +0.000 N 
ATOM     18  H   UNL     1       5.135   3.396  18.466  0.00  0.00    +0.000 HD
BRANCH  17  19
ATOM     19  C   UNL     1       3.123   3.701  18.903  0.00  0.00    +0.000 A 
ATOM     20  C   UNL     1       2.122   2.943  18.287  0.00  0.00    +0.000 A 
ATOM     21  C   UNL     1       0.911   2.685  18.931  0.00  0.00    +0.000 A 
ATOM     22  C   UNL     1       0.687   3.178  20.211  0.00  0.00    +0.000 A 
ATOM     23  C   UNL     1       1.682   3.917  20.849  0.00  0.00    +0.000 A 
ATOM     24  C   UNL     1       2.901   4.169  20.203  0.00  0.00    +0.000 A 
ENDBRANCH  17  19
ENDBRANCH  14  15
ENDBRANCH  13  14
ENDBRANCH   2  13
TORSDOF 6
ENDMDL
MODEL 6
REMARK VINA RESULT:      -7.6      1.268      1.443
REMARK  Name = 
REMARK  6 active torsions:
REMARK  status: ('A' for Active; 'I' for Inactive)
REMARK    1  A    between atoms: C_2  and  C_3
REMARK    2  A    between atoms: C_3  and  C_4
REMARK    3  A    between atoms: C_4  and  C_5
REMARK    4  A    between atoms: N_7  and  C_8
REMARK    5  A    between atoms: N_14  and  N_15
REMARK    6  A    between atoms: C_16  and  C_17
REMARK                            x       y       z     vdW  Elec       q    Type
REMARK                         _______ _______ _______ _____ _____    ______ ____
ROOT
ATOM      1  O   UNL     1       7.758   6.211  18.600  0.00  0.00    +0.000 OA
ATOM      2  C   UNL     1       7.160   6.891  17.773  0.00  0.00    +0.000 C 
ATOM      3  N   UNL     1       7.498   8.184  17.385  0.00  0.00    +0.000 N 
ATOM      4  H   UNL     1       6.941   8.676  16.694  0.00  0.00    +0.000 HD
ENDROOT
BRANCH   3   5
ATOM      5  N   UNL     1       8.559   8.811  17.962  0.00  0.00    +0.000 NA
ATOM      6  C   UNL     1       8.419  10.078  18.186  0.00  0.00    +0.000 C 
BRANCH   6   7
ATOM      7  C   UNL     1       9.498  10.872  18.807  0.00  0.00    +0.000 A 
ATOM      8  C   UNL     1       9.518  11.085  20.183  0.00  0.00    +0.000 A 
ATOM      9  C   UNL     1      10.550  11.844  20.702  0.00  0.00    +0.000 A 
ATOM     10  N   UNL     1      11.532  12.385  19.948  0.00  0.00    +0.000 NA
ATOM     11  C   UNL     1      11.484  12.158  18.618  0.00  0.00    +0.000 A 
ATOM     12  C   UNL     1      10.496  11.412  18.001  0.00  0.00    +0.000 A 
ENDBRANCH   6   7
ENDBRANCH   3   5
BRANCH   2  13
ATOM     13  C   UNL     1       5.966   6.367  17.011  0.00  0.00    +0.000 C 
BRANCH  13  14
ATOM     14  C   UNL     1       5.972   4.844  16.865  0.00  0.00    +0.000 C 
BRANCH  14  15
ATOM     15  C   UNL     1       4.704   4.286  17.486  0.00  0.00    +0.000 C 
ATOM     16  O   UNL     1       3.927   3.616  16.814  0.00  0.00    +0.000 OA
ATOM     17  N   UNL     1       4.529   4.627  18.818  0.00  0.00    +0.000 N 
ATOM     18  H   UNL     1       5.131   5.344  19.206  0.00  0.00    +0.000 HD
BRANCH  17  19
ATOM     19  C   UNL     1       3.473   4.163  19.641  0.00  0.00    +0.000 A 
ATOM     20  C   UNL     1       3.530   2.947  20.329  0.00  0.00    +0.000 A 
ATOM     21  C   UNL     1       2.458   2.507  21.108  0.00  0.00    +0.000 A 
ATOM     22  C   UNL     1       1.312   3.285  21.215  0.00  0.00    +0.000 A 
ATOM     23  C   UNL     1       1.247   4.510  20.553  0.00  0.00    +0.000 A 
ATOM     24  C   UNL     1       2.327   4.955  19.777  0.00  0.00    +0.000 A 
ENDBRANCH  17  19
ENDBRANCH  14  15
ENDBRANCH  13  14
ENDBRANCH   2  13
TORSDOF 6
ENDMDL
MODEL 7
REMARK VINA RESULT:      -7.6      1.729      1.822
REMARK  Name = 
REMARK  6 active torsions:
REMARK  status: ('A' for Active; 'I' for Inactive)
REMARK    1  A    between atoms: C_2  and  C_3
REMARK    2  A    between atoms: C_3  and  C_4
REMARK    3  A    between atoms: C_4  and  C_5
REMARK    4  A    between atoms: N_7  and  C_8
REMARK    5  A    between atoms: N_14  and  N_15
REMARK    6  A    between atoms: C_16  and  C_17
REMARK                            x       y       z     vdW  Elec       q    Type
REMARK                         _______ _______ _______ _____ _____    ______ ____
ROOT
ATOM      1  O   UNL     1       7.651   7.208  16.626  0.00  0.00    +0.000 OA
ATOM      2  C   UNL     1       7.786   7.020  17.831  0.00  0.00    +0.000 C 
ATOM      3  N   UNL     1       8.235   7.957  18.756  0.00  0.00    +0.000 N 
ATOM      4  H   UNL     1       8.321   7.713  19.737  0.00  0.00    +0.000 HD
ENDROOT
BRANCH   3   5
ATOM      5  N   UNL     1       8.599   9.202  18.340  0.00  0.00    +0.000 NA
ATOM      6  C   UNL     1       9.274   9.910  19.187  0.00  0.00    +0.000 C 
BRANCH   6   7
ATOM      7  C   UNL     1       9.727  11.276  18.856  0.00  0.00    +0.000 A 
ATOM      8  C   UNL     1       9.332  12.360  19.635  0.00  0.00    +0.000 A 
ATOM      9  C   UNL     1       9.783  13.614  19.268  0.00  0.00    +0.000 A 
ATOM     10  N   UNL     1      10.580  13.840  18.200  0.00  0.00    +0.000 NA
ATOM     11  C   UNL     1      10.945  12.766  17.467  0.00  0.00    +0.000 A 
ATOM     12  C   UNL     1      10.550  11.471  17.750  0.00  0.00    +0.000 A 
ENDBRANCH   6   7
ENDBRANCH   3   5
BRANCH   2  13
ATOM     13  C   UNL     1       7.421   5.710  18.487  0.00  0.00    +0.000 C 
BRANCH  13  14
ATOM     14  C   UNL     1       6.520   4.835  17.613  0.00  0.00    +0.000 C 
BRANCH  14  15
ATOM     15  C   UNL     1       5.417   4.249  18.476  0.00  0.00    +0.000 C 
ATOM     16  O   UNL     1       5.678   3.764  19.572  0.00  0.00    +0.000 OA
ATOM     17  N   UNL     1       4.158   4.303  17.898  0.00  0.00    +0.000 N 
ATOM     18  H   UNL     1       4.099   4.542  16.916  0.00  0.00    +0.000 HD
BRANCH  17  19
ATOM     19  C   UNL     1       2.958   3.900  18.533  0.00  0.00    +0.000 A 
ATOM     20  C   UNL     1       2.225   2.781  18.124  0.00  0.00    +0.000 A 
ATOM     21  C   UNL     1       1.031   2.429  18.755  0.00  0.00    +0.000 A 
ATOM     22  C   UNL     1       0.555   3.191  19.815  0.00  0.00    +0.000 A 
ATOM     23  C   UNL     1       1.284   4.297  20.250  0.00  0.00    +0.000 A 
ATOM     24  C   UNL     1       2.487   4.645  19.621  0.00  0.00    +0.000 A 
ENDBRANCH  17  19
ENDBRANCH  14  15
ENDBRANCH  13  14
ENDBRANCH   2  13
TORSDOF 6
ENDMDL
MODEL 8
REMARK VINA RESULT:      -7.6      0.520      1.452
REMARK  Name = 
REMARK  6 active torsions:
REMARK  status: ('A' for Active; 'I' for Inactive)
REMARK    1  A    between atoms: C_2  and  C_3
REMARK    2  A    between atoms: C_3  and  C_4
REMARK    3  A    between atoms: C_4  and  C_5
REMARK    4  A    between atoms: N_7  and  C_8
REMARK    5  A    between atoms: N_14  and  N_15
REMARK    6  A    between atoms: C_16  and  C_17
REMARK                            x       y       z     vdW  Elec       q    Type
REMARK                         _______ _______ _______ _____ _____    ______ ____
ROOT
ATOM      1  O   UNL     1       7.355   6.161  18.777  0.00  0.00    +0.000 OA
ATOM      2  C   UNL     1       7.175   6.618  17.653  0.00  0.00    +0.000 C 
ATOM      3  N   UNL     1       7.609   7.860  17.200  0.00  0.00    +0.000 N 
ATOM      4  H   UNL     1       7.410   8.161  16.252  0.00  0.00    +0.000 HD
ENDROOT
BRANCH   3   5
ATOM      5  N   UNL     1       8.270   8.698  18.045  0.00  0.00    +0.000 NA
ATOM      6  C   UNL     1       8.405   9.921  17.644  0.00  0.00    +0.000 C 
BRANCH   6   7
ATOM      7  C   UNL     1       9.104  10.927  18.469  0.00  0.00    +0.000 A 
ATOM      8  C   UNL     1       9.303  12.219  17.990  0.00  0.00    +0.000 A 
ATOM      9  C   UNL     1       9.972  13.111  18.807  0.00  0.00    +0.000 A 
ATOM     10  N   UNL     1      10.438  12.796  20.036  0.00  0.00    +0.000 NA
ATOM     11  C   UNL     1      10.226  11.535  20.470  0.00  0.00    +0.000 A 
ATOM     12  C   UNL     1       9.568  10.568  19.731  0.00  0.00    +0.000 A 
ENDBRANCH   6   7
ENDBRANCH   3   5
BRANCH   2  13
ATOM     13  C   UNL     1       6.476   5.835  16.568  0.00  0.00    +0.000 C 
BRANCH  13  14
ATOM     14  C   UNL     1       5.140   6.453  16.151  0.00  0.00    +0.000 C 
BRANCH  14  15
ATOM     15  C   UNL     1       4.119   6.199  17.244  0.00  0.00    +0.000 C 
ATOM     16  O   UNL     1       3.510   7.133  17.756  0.00  0.00    +0.000 OA
ATOM     17  N   UNL     1       3.982   4.864  17.591  0.00  0.00    +0.000 N 
ATOM     18  H   UNL     1       4.675   4.212  17.244  0.00  0.00    +0.000 HD
BRANCH  17  19
ATOM     19  C   UNL     1       3.039   4.361  18.521  0.00  0.00    +0.000 A 
ATOM     20  C   UNL     1       3.188   4.509  19.904  0.00  0.00    +0.000 A 
ATOM     21  C   UNL     1       2.253   3.975  20.793  0.00  0.00    +0.000 A 
ATOM     22  C   UNL     1       1.146   3.290  20.308  0.00  0.00    +0.000 A 
ATOM     23  C   UNL     1       0.970   3.152  18.932  0.00  0.00    +0.000 A 
ATOM     24  C   UNL     1       1.906   3.694  18.040  0.00  0.00    +0.000 A 
ENDBRANCH  17  19
ENDBRANCH  14  15
ENDBRANCH  13  14
ENDBRANCH   2  13
TORSDOF 6
ENDMDL
MODEL 9
REMARK VINA RESULT:      -7.6      1.743      2.167
REMARK  Name = 
REMARK  6 active torsions:
REMARK  status: ('A' for Active; 'I' for Inactive)
REMARK    1  A    between atoms: C_2  and  C_3
REMARK    2  A    between atoms: C_3  and  C_4
REMARK    3  A    between atoms: C_4  and  C_5
REMARK    4  A    between atoms: N_7  and  C_8
REMARK    5  A    between atoms: N_14  and  N_15
REMARK    6  A    between atoms: C_16  and  C_17
REMARK                            x       y       z     vdW  Elec       q    Type
REMARK                         _______ _______ _______ _____ _____    ______ ____
ROOT
ATOM      1  O   UNL     1       7.710   7.218  16.723  0.00  0.00    +0.000 OA
ATOM      2  C   UNL     1       7.901   7.025  17.919  0.00  0.00    +0.000 C 
ATOM      3  N   UNL     1       8.426   7.948  18.819  0.00  0.00    +0.000 N 
ATOM      4  H   UNL     1       8.555   7.701  19.794  0.00  0.00    +0.000 HD
ENDROOT
BRANCH   3   5
ATOM      5  N   UNL     1       8.808   9.180  18.382  0.00  0.00    +0.000 NA
ATOM      6  C   UNL     1       9.155  10.026  19.298  0.00  0.00    +0.000 C 
BRANCH   6   7
ATOM      7  C   UNL     1       9.588  11.395  18.954  0.00  0.00    +0.000 A 
ATOM      8  C   UNL     1      10.277  11.642  17.769  0.00  0.00    +0.000 A 
ATOM      9  C   UNL     1      10.662  12.944  17.510  0.00  0.00    +0.000 A 
ATOM     10  N   UNL     1      10.407  13.980  18.340  0.00  0.00    +0.000 NA
ATOM     11  C   UNL     1       9.735  13.705  19.478  0.00  0.00    +0.000 A 
ATOM     12  C   UNL     1       9.305  12.439  19.831  0.00  0.00    +0.000 A 
ENDBRANCH   6   7
ENDBRANCH   3   5
BRANCH   2  13
ATOM     13  C   UNL     1       7.528   5.728  18.596  0.00  0.00    +0.000 C 
BRANCH  13  14
ATOM     14  C   UNL     1       7.014   4.670  17.617  0.00  0.00    +0.000 C 
BRANCH  14  15
ATOM     15  C   UNL     1       5.528   4.469  17.847  0.00  0.00    +0.000 C 
ATOM     16  O   UNL     1       4.769   4.304  16.897  0.00  0.00    +0.000 OA
ATOM     17  N   UNL     1       5.149   4.517  19.180  0.00  0.00    +0.000 N 
ATOM     18  H   UNL     1       5.827   4.855  19.852  0.00  0.00    +0.000 HD
BRANCH  17  19
ATOM     19  C   UNL     1       3.838   4.276  19.658  0.00  0.00    +0.000 A 
ATOM     20  C   UNL     1       2.931   5.306  19.930  0.00  0.00    +0.000 A 
ATOM     21  C   UNL     1       1.656   5.034  20.428  0.00  0.00    +0.000 A 
ATOM     22  C   UNL     1       1.265   3.720  20.656  0.00  0.00    +0.000 A 
ATOM     23  C   UNL     1       2.148   2.680  20.369  0.00  0.00    +0.000 A 
ATOM     24  C   UNL     1       3.426   2.954  19.863  0.00  0.00    +0.000 A 
ENDBRANCH  17  19
ENDBRANCH  14  15
ENDBRANCH  13  14
ENDBRANCH   2  13
TORSDOF 6
ENDMDL
