MODEL 1
REMARK VINA RESULT:      -7.9      0.000      0.000
REMARK  Name = 
REMARK  9 active torsions:
REMARK  status: ('A' for Active; 'I' for Inactive)
REMARK    1  A    between atoms: C_1  and  N_2
REMARK    2  A    between atoms: N_2  and  C_3
REMARK    3  A    between atoms: C_3  and  C_4
REMARK    4  A    between atoms: C_4  and  C_5
REMARK    5  A    between atoms: C_5  and  C_6
REMARK    6  A    between atoms: N_9  and  C_10
REMARK    7  A    between atoms: C_16  and  C_17
REMARK    8  A    between atoms: C_19  and  C_20
REMARK    9  A    between atoms: C_20  and  O_22
REMARK                            x       y       z     vdW  Elec       q    Type
REMARK                         _______ _______ _______ _____ _____    ______ ____
ROOT
ATOM      1  C   UNL     1       4.255   3.202  20.291  0.00  0.00    +0.000 C 
ATOM      2  N   UNL     1       4.483   3.084  18.864  0.00  0.00    +0.000 N 
ATOM      3  C   UNL     1       5.462   3.873  18.304  0.00  0.00    +0.000 A 
ATOM      4  N   UNL     1       6.210   4.637  19.116  0.00  0.00    +0.000 NA
ATOM      5  C   UNL     1       7.155   5.411  18.559  0.00  0.00    +0.000 A 
ATOM      6  C   UNL     1       7.388   5.459  17.212  0.00  0.00    +0.000 A 
ATOM      7  C   UNL     1       6.593   4.648  16.429  0.00  0.00    +0.000 A 
ATOM      8  N   UNL     1       5.635   3.855  16.973  0.00  0.00    +0.000 NA
ENDROOT
BRANCH   7   9
ATOM      9  C   UNL     1       6.749   4.581  14.958  0.00  0.00    +0.000 A 
ATOM     10  C   UNL     1       5.979   3.735  14.162  0.00  0.00    +0.000 A 
ATOM     11  C   UNL     1       6.223   3.691  12.789  0.00  0.00    +0.000 A 
ATOM     12  C   UNL     1       7.193   4.522  12.232  0.00  0.00    +0.000 A 
ATOM     13  C   UNL     1       7.900   5.346  13.080  0.00  0.00    +0.000 A 
ATOM     14  N   UNL     1       7.707   5.383  14.414  0.00  0.00    +0.000 NA
BRANCH  11  15
ATOM     15  C   UNL     1       5.457   2.817  11.868  0.00  0.00    +0.000 C 
ATOM     16  O   UNL     1       4.370   3.136  11.418  0.00  0.00    +0.000 OA
BRANCH  15  17
ATOM     17  O   UNL     1       6.083   1.669  11.536  0.00  0.00    +0.000 OA
ATOM     18  H   UNL     1       6.191   1.018  12.254  0.00  0.00    +0.000 HD
ENDBRANCH  15  17
ENDBRANCH  11  15
ENDBRANCH   7   9
BRANCH   2  19
ATOM     19  C   UNL     1       3.579   2.310  18.031  0.00  0.00    +0.000 C 
BRANCH  19  20
ATOM     20  C   UNL     1       2.116   2.539  18.422  0.00  0.00    +0.000 C 
BRANCH  20  21
ATOM     21  C   UNL     1       1.510   3.767  17.740  0.00  0.00    +0.000 C 
BRANCH  21  22
ATOM     22  C   UNL     1       1.845   5.035  18.445  0.00  0.00    +0.000 A 
ATOM     23  C   UNL     1       2.658   6.091  17.974  0.00  0.00    +0.000 A 
ATOM     24  N   UNL     1       2.738   7.103  18.839  0.00  0.00    +0.000 NA
ATOM     25  N   UNL     1       1.968   6.704  19.865  0.00  0.00    +0.000 N 
ATOM     26  C   UNL     1       1.762   7.572  20.998  0.00  0.00    +0.000 C 
ATOM     27  C   UNL     1       1.422   5.466  19.685  0.00  0.00    +0.000 A 
ENDBRANCH  21  22
ENDBRANCH  20  21
ENDBRANCH  19  20
ENDBRANCH   2  19
TORSDOF 7
ENDMDL
MODEL 2
REMARK VINA RESULT:      -7.9      0.966      1.240
REMARK  Name = 
REMARK  9 active torsions:
REMARK  status: ('A' for Active; 'I' for Inactive)
REMARK    1  A    between atoms: C_1  and  N_2
REMARK    2  A    between atoms: N_2  and  C_3
REMARK    3  A    between atoms: C_3  and  C_4
REMARK    4  A    between atoms: C_4  and  C_5
REMARK    5  A    between atoms: C_5  and  C_6
REMARK    6  A    between atoms: N_9  and  C_10
REMARK    7  A    between atoms: C_16  and  C_17
REMARK    8  A    between atoms: C_19  and  C_20
REMARK    9  A    between atoms: C_20  and  O_22
REMARK                            x       y       z     vdW  Elec       q    Type
REMARK                         _______ _______ _______ _____ _____    ______ ____
ROOT
ATOM      1  C   UNL     1       3.911   3.845  20.235  0.00  0.00    +0.000 C 
ATOM      2  N   UNL     1       4.059   3.742  18.797  0.00  0.00    +0.000 N 
ATOM      3  C   UNL     1       5.275   4.088  18.252  0.00  0.00    +0.000 A 
ATOM      4  N   UNL     1       6.279   4.413  19.081  0.00  0.00    +0.000 NA
ATOM      5  C   UNL     1       7.457   4.760  18.539  0.00  0.00    +0.000 A 
ATOM      6  C   UNL     1       7.681   4.799  17.190  0.00  0.00    +0.000 A 
ATOM      7  C   UNL     1       6.613   4.449  16.388  0.00  0.00    +0.000 A 
ATOM      8  N   UNL     1       5.415   4.092  16.916  0.00  0.00    +0.000 NA
ENDROOT
BRANCH   7   9
ATOM      9  C   UNL     1       6.718   4.425  14.911  0.00  0.00    +0.000 A 
ATOM     10  C   UNL     1       5.949   3.573  14.121  0.00  0.00    +0.000 A 
ATOM     11  C   UNL     1       6.145   3.572  12.739  0.00  0.00    +0.000 A 
ATOM     12  C   UNL     1       7.063   4.452  12.170  0.00  0.00    +0.000 A 
ATOM     13  C   UNL     1       7.771   5.279  13.014  0.00  0.00    +0.000 A 
ATOM     14  N   UNL     1       7.626   5.275  14.355  0.00  0.00    +0.000 NA
BRANCH  11  15
ATOM     15  C   UNL     1       5.376   2.695  11.824  0.00  0.00    +0.000 C 
ATOM     16  O   UNL     1       4.308   3.028  11.341  0.00  0.00    +0.000 OA
BRANCH  15  17
ATOM     17  O   UNL     1       5.980   1.523  11.535  0.00  0.00    +0.000 OA
ATOM     18  H   UNL     1       5.509   0.718  11.820  0.00  0.00    +0.000 HD
ENDBRANCH  15  17
ENDBRANCH  11  15
ENDBRANCH   7   9
BRANCH   2  19
ATOM     19  C   UNL     1       2.909   3.474  17.950  0.00  0.00    +0.000 C 
BRANCH  19  20
ATOM     20  C   UNL     1       2.013   4.708  17.811  0.00  0.00    +0.000 C 
BRANCH  20  21
ATOM     21  C   UNL     1       2.813   6.005  17.676  0.00  0.00    +0.000 C 
BRANCH  21  22
ATOM     22  C   UNL     1       2.316   7.079  18.579  0.00  0.00    +0.000 A 
ATOM     23  C   UNL     1       1.892   8.379  18.217  0.00  0.00    +0.000 A 
ATOM     24  N   UNL     1       1.477   9.093  19.264  0.00  0.00    +0.000 NA
ATOM     25  N   UNL     1       1.624   8.252  20.301  0.00  0.00    +0.000 N 
ATOM     26  C   UNL     1       1.224   8.656  21.626  0.00  0.00    +0.000 C 
ATOM     27  C   UNL     1       2.136   7.037  19.946  0.00  0.00    +0.000 A 
ENDBRANCH  21  22
ENDBRANCH  20  21
ENDBRANCH  19  20
ENDBRANCH   2  19
TORSDOF 7
ENDMDL
MODEL 3
REMARK VINA RESULT:      -7.4      2.004      2.643
REMARK  Name = 
REMARK  9 active torsions:
REMARK  status: ('A' for Active; 'I' for Inactive)
REMARK    1  A    between atoms: C_1  and  N_2
REMARK    2  A    between atoms: N_2  and  C_3
REMARK    3  A    between atoms: C_3  and  C_4
REMARK    4  A    between atoms: C_4  and  C_5
REMARK    5  A    between atoms: C_5  and  C_6
REMARK    6  A    between atoms: N_9  and  C_10
REMARK    7  A    between atoms: C_16  and  C_17
REMARK    8  A    between atoms: C_19  and  C_20
REMARK    9  A    between atoms: C_20  and  O_22
REMARK                            x       y       z     vdW  Elec       q    Type
REMARK                         _______ _______ _______ _____ _____    ______ ____
ROOT
ATOM      1  C   UNL     1       3.747   5.766  19.908  0.00  0.00    +0.000 C 
ATOM      2  N   UNL     1       3.904   5.543  18.484  0.00  0.00    +0.000 N 
ATOM      3  C   UNL     1       5.156   5.206  18.022  0.00  0.00    +0.000 A 
ATOM      4  N   UNL     1       6.138   5.014  18.917  0.00  0.00    +0.000 NA
ATOM      5  C   UNL     1       7.358   4.696  18.456  0.00  0.00    +0.000 A 
ATOM      6  C   UNL     1       7.646   4.563  17.126  0.00  0.00    +0.000 A 
ATOM      7  C   UNL     1       6.596   4.766  16.254  0.00  0.00    +0.000 A 
ATOM      8  N   UNL     1       5.354   5.084  16.700  0.00  0.00    +0.000 NA
ENDROOT
BRANCH   7   9
ATOM      9  C   UNL     1       6.757   4.632  14.788  0.00  0.00    +0.000 A 
ATOM     10  C   UNL     1       5.959   3.784  14.023  0.00  0.00    +0.000 A 
ATOM     11  C   UNL     1       6.209   3.673  12.654  0.00  0.00    +0.000 A 
ATOM     12  C   UNL     1       7.212   4.444  12.069  0.00  0.00    +0.000 A 
ATOM     13  C   UNL     1       7.945   5.275  12.887  0.00  0.00    +0.000 A 
ATOM     14  N   UNL     1       7.747   5.375  14.218  0.00  0.00    +0.000 NA
BRANCH  11  15
ATOM     15  C   UNL     1       5.415   2.791  11.766  0.00  0.00    +0.000 C 
ATOM     16  O   UNL     1       4.353   3.139  11.278  0.00  0.00    +0.000 OA
BRANCH  15  17
ATOM     17  O   UNL     1       5.987   1.597  11.506  0.00  0.00    +0.000 OA
ATOM     18  H   UNL     1       6.418   1.510  10.635  0.00  0.00    +0.000 HD
ENDBRANCH  15  17
ENDBRANCH  11  15
ENDBRANCH   7   9
BRANCH   2  19
ATOM     19  C   UNL     1       2.826   5.858  17.562  0.00  0.00    +0.000 C 
BRANCH  19  20
ATOM     20  C   UNL     1       1.885   6.921  18.136  0.00  0.00    +0.000 C 
BRANCH  20  21
ATOM     21  C   UNL     1       2.262   8.338  17.700  0.00  0.00    +0.000 C 
BRANCH  21  22
ATOM     22  C   UNL     1       1.673   9.383  18.582  0.00  0.00    +0.000 A 
ATOM     23  C   UNL     1       1.547  10.765  18.312  0.00  0.00    +0.000 A 
ATOM     24  N   UNL     1       0.947  11.429  19.301  0.00  0.00    +0.000 NA
ATOM     25  N   UNL     1       0.677  10.473  20.207  0.00  0.00    +0.000 N 
ATOM     26  C   UNL     1      -0.029  10.802  21.420  0.00  0.00    +0.000 C 
ATOM     27  C   UNL     1       1.105   9.232  19.829  0.00  0.00    +0.000 A 
ENDBRANCH  21  22
ENDBRANCH  20  21
ENDBRANCH  19  20
ENDBRANCH   2  19
TORSDOF 7
ENDMDL
MODEL 4
REMARK VINA RESULT:      -7.2      1.173      1.540
REMARK  Name = 
REMARK  9 active torsions:
REMARK  status: ('A' for Active; 'I' for Inactive)
REMARK    1  A    between atoms: C_1  and  N_2
REMARK    2  A    between atoms: N_2  and  C_3
REMARK    3  A    between atoms: C_3  and  C_4
REMARK    4  A    between atoms: C_4  and  C_5
REMARK    5  A    between atoms: C_5  and  C_6
REMARK    6  A    between atoms: N_9  and  C_10
REMARK    7  A    between atoms: C_16  and  C_17
REMARK    8  A    between atoms: C_19  and  C_20
REMARK    9  A    between atoms: C_20  and  O_22
REMARK                            x       y       z     vdW  Elec       q    Type
REMARK                         _______ _______ _______ _____ _____    ______ ____
ROOT
ATOM      1  C   UNL     1       3.908   3.707  20.113  0.00  0.00    +0.000 C 
ATOM      2  N   UNL     1       4.089   3.590  18.679  0.00  0.00    +0.000 N 
ATOM      3  C   UNL     1       5.270   4.051  18.143  0.00  0.00    +0.000 A 
ATOM      4  N   UNL     1       6.221   4.497  18.977  0.00  0.00    +0.000 NA
ATOM      5  C   UNL     1       7.364   4.955  18.443  0.00  0.00    +0.000 A 
ATOM      6  C   UNL     1       7.603   4.989  17.097  0.00  0.00    +0.000 A 
ATOM      7  C   UNL     1       6.591   4.512  16.289  0.00  0.00    +0.000 A 
ATOM      8  N   UNL     1       5.429   4.042  16.809  0.00  0.00    +0.000 NA
ENDROOT
BRANCH   7   9
ATOM      9  C   UNL     1       6.720   4.468  14.814  0.00  0.00    +0.000 A 
ATOM     10  C   UNL     1       5.944   3.626  14.021  0.00  0.00    +0.000 A 
ATOM     11  C   UNL     1       6.163   3.604  12.643  0.00  0.00    +0.000 A 
ATOM     12  C   UNL     1       7.112   4.455  12.079  0.00  0.00    +0.000 A 
ATOM     13  C   UNL     1       7.825   5.275  12.926  0.00  0.00    +0.000 A 
ATOM     14  N   UNL     1       7.657   5.290  14.265  0.00  0.00    +0.000 NA
BRANCH  11  15
ATOM     15  C   UNL     1       5.389   2.735  11.724  0.00  0.00    +0.000 C 
ATOM     16  O   UNL     1       5.778   1.630  11.387  0.00  0.00    +0.000 OA
BRANCH  15  17
ATOM     17  O   UNL     1       4.204   3.248  11.334  0.00  0.00    +0.000 OA
ATOM     18  H   UNL     1       4.001   4.147  11.654  0.00  0.00    +0.000 HD
ENDBRANCH  15  17
ENDBRANCH  11  15
ENDBRANCH   7   9
BRANCH   2  19
ATOM     19  C   UNL     1       2.986   3.185  17.824  0.00  0.00    +0.000 C 
BRANCH  19  20
ATOM     20  C   UNL     1       1.941   4.296  17.688  0.00  0.00    +0.000 C 
BRANCH  20  21
ATOM     21  C   UNL     1       1.996   5.301  18.840  0.00  0.00    +0.000 C 
BRANCH  21  22
ATOM     22  C   UNL     1       2.342   6.675  18.384  0.00  0.00    +0.000 A 
ATOM     23  C   UNL     1       3.415   7.059  17.547  0.00  0.00    +0.000 A 
ATOM     24  N   UNL     1       3.433   8.370  17.303  0.00  0.00    +0.000 NA
ATOM     25  N   UNL     1       2.365   8.832  17.975  0.00  0.00    +0.000 N 
ATOM     26  C   UNL     1       2.018  10.230  17.912  0.00  0.00    +0.000 C 
ATOM     27  C   UNL     1       1.687   7.859  18.651  0.00  0.00    +0.000 A 
ENDBRANCH  21  22
ENDBRANCH  20  21
ENDBRANCH  19  20
ENDBRANCH   2  19
TORSDOF 7
ENDMDL
MODEL 5
REMARK VINA RESULT:      -7.1      1.466      2.468
REMARK  Name = 
REMARK  9 active torsions:
REMARK  status: ('A' for Active; 'I' for Inactive)
REMARK    1  A    between atoms: C_1  and  N_2
REMARK    2  A    between atoms: N_2  and  C_3
REMARK    3  A    between atoms: C_3  and  C_4
REMARK    4  A    between atoms: C_4  and  C_5
REMARK    5  A    between atoms: C_5  and  C_6
REMARK    6  A    between atoms: N_9  and  C_10
REMARK    7  A    between atoms: C_16  and  C_17
REMARK    8  A    between atoms: C_19  and  C_20
REMARK    9  A    between atoms: C_20  and  O_22
REMARK                            x       y       z     vdW  Elec       q    Type
REMARK                         _______ _______ _______ _____ _____    ______ ____
ROOT
ATOM      1  C   UNL     1       4.045   6.239  19.690  0.00  0.00    +0.000 C 
ATOM      2  N   UNL     1       4.150   5.966  18.270  0.00  0.00    +0.000 N 
ATOM      3  C   UNL     1       5.348   5.478  17.798  0.00  0.00    +0.000 A 
ATOM      4  N   UNL     1       6.317   5.197  18.682  0.00  0.00    +0.000 NA
ATOM      5  C   UNL     1       7.485   4.733  18.210  0.00  0.00    +0.000 A 
ATOM      6  C   UNL     1       7.732   4.535  16.879  0.00  0.00    +0.000 A 
ATOM      7  C   UNL     1       6.696   4.836  16.019  0.00  0.00    +0.000 A 
ATOM      8  N   UNL     1       5.506   5.303  16.476  0.00  0.00    +0.000 NA
ENDROOT
BRANCH   7   9
ATOM      9  C   UNL     1       6.814   4.650  14.554  0.00  0.00    +0.000 A 
ATOM     10  C   UNL     1       6.005   3.762  13.846  0.00  0.00    +0.000 A 
ATOM     11  C   UNL     1       6.215   3.604  12.476  0.00  0.00    +0.000 A 
ATOM     12  C   UNL     1       7.188   4.366  11.832  0.00  0.00    +0.000 A 
ATOM     13  C   UNL     1       7.933   5.238  12.595  0.00  0.00    +0.000 A 
ATOM     14  N   UNL     1       7.774   5.384  13.927  0.00  0.00    +0.000 NA
BRANCH  11  15
ATOM     15  C   UNL     1       5.407   2.679  11.646  0.00  0.00    +0.000 C 
ATOM     16  O   UNL     1       5.798   1.566  11.337  0.00  0.00    +0.000 OA
BRANCH  15  17
ATOM     17  O   UNL     1       4.190   3.152  11.303  0.00  0.00    +0.000 OA
ATOM     18  H   UNL     1       4.061   4.113  11.407  0.00  0.00    +0.000 HD
ENDBRANCH  15  17
ENDBRANCH  11  15
ENDBRANCH   7   9
BRANCH   2  19
ATOM     19  C   UNL     1       3.098   6.379  17.357  0.00  0.00    +0.000 C 
BRANCH  19  20
ATOM     20  C   UNL     1       1.716   5.950  17.858  0.00  0.00    +0.000 C 
BRANCH  20  21
ATOM     21  C   UNL     1       1.434   4.467  17.609  0.00  0.00    +0.000 C 
BRANCH  21  22
ATOM     22  C   UNL     1       1.695   3.627  18.810  0.00  0.00    +0.000 A 
ATOM     23  C   UNL     1       2.739   2.691  18.994  0.00  0.00    +0.000 A 
ATOM     24  N   UNL     1       2.711   2.120  20.199  0.00  0.00    +0.000 NA
ATOM     25  N   UNL     1       1.653   2.694  20.797  0.00  0.00    +0.000 N 
ATOM     26  C   UNL     1       1.322   2.362  22.161  0.00  0.00    +0.000 C 
ATOM     27  C   UNL     1       1.002   3.593  20.002  0.00  0.00    +0.000 A 
ENDBRANCH  21  22
ENDBRANCH  20  21
ENDBRANCH  19  20
ENDBRANCH   2  19
TORSDOF 7
ENDMDL
MODEL 6
REMARK VINA RESULT:      -7.1      1.535      2.423
REMARK  Name = 
REMARK  9 active torsions:
REMARK  status: ('A' for Active; 'I' for Inactive)
REMARK    1  A    between atoms: C_1  and  N_2
REMARK    2  A    between atoms: N_2  and  C_3
REMARK    3  A    between atoms: C_3  and  C_4
REMARK    4  A    between atoms: C_4  and  C_5
REMARK    5  A    between atoms: C_5  and  C_6
REMARK    6  A    between atoms: N_9  and  C_10
REMARK    7  A    between atoms: C_16  and  C_17
REMARK    8  A    between atoms: C_19  and  C_20
REMARK    9  A    between atoms: C_20  and  O_22
REMARK                            x       y       z     vdW  Elec       q    Type
REMARK                         _______ _______ _______ _____ _____    ______ ____
ROOT
ATOM      1  C   UNL     1       3.176   5.715  19.605  0.00  0.00    +0.000 C 
ATOM      2  N   UNL     1       3.499   5.217  18.283  0.00  0.00    +0.000 N 
ATOM      3  C   UNL     1       4.748   5.500  17.778  0.00  0.00    +0.000 A 
ATOM      4  N   UNL     1       5.627   6.138  18.566  0.00  0.00    +0.000 NA
ATOM      5  C   UNL     1       6.838   6.420  18.060  0.00  0.00    +0.000 A 
ATOM      6  C   UNL     1       7.216   6.089  16.788  0.00  0.00    +0.000 A 
ATOM      7  C   UNL     1       6.273   5.428  16.028  0.00  0.00    +0.000 A 
ATOM      8  N   UNL     1       5.044   5.131  16.521  0.00  0.00    +0.000 NA
ENDROOT
BRANCH   7   9
ATOM      9  C   UNL     1       6.552   4.989  14.641  0.00  0.00    +0.000 A 
ATOM     10  C   UNL     1       5.724   4.100  13.957  0.00  0.00    +0.000 A 
ATOM     11  C   UNL     1       6.084   3.694  12.672  0.00  0.00    +0.000 A 
ATOM     12  C   UNL     1       7.231   4.216  12.076  0.00  0.00    +0.000 A 
ATOM     13  C   UNL     1       7.987   5.106  12.807  0.00  0.00    +0.000 A 
ATOM     14  N   UNL     1       7.680   5.489  14.064  0.00  0.00    +0.000 NA
BRANCH  11  15
ATOM     15  C   UNL     1       5.267   2.748  11.875  0.00  0.00    +0.000 C 
ATOM     16  O   UNL     1       4.150   3.025  11.475  0.00  0.00    +0.000 OA
BRANCH  15  17
ATOM     17  O   UNL     1       5.881   1.580  11.591  0.00  0.00    +0.000 OA
ATOM     18  H   UNL     1       5.404   0.982  10.987  0.00  0.00    +0.000 HD
ENDBRANCH  15  17
ENDBRANCH  11  15
ENDBRANCH   7   9
BRANCH   2  19
ATOM     19  C   UNL     1       2.474   4.614  17.448  0.00  0.00    +0.000 C 
BRANCH  19  20
ATOM     20  C   UNL     1       2.977   3.335  16.772  0.00  0.00    +0.000 C 
BRANCH  20  21
ATOM     21  C   UNL     1       2.495   2.067  17.480  0.00  0.00    +0.000 C 
BRANCH  21  22
ATOM     22  C   UNL     1       2.540   2.188  18.963  0.00  0.00    +0.000 A 
ATOM     23  C   UNL     1       3.683   2.154  19.794  0.00  0.00    +0.000 A 
ATOM     24  N   UNL     1       3.385   2.319  21.084  0.00  0.00    +0.000 NA
ATOM     25  N   UNL     1       2.050   2.468  21.084  0.00  0.00    +0.000 N 
ATOM     26  C   UNL     1       1.349   2.724  22.318  0.00  0.00    +0.000 C 
ATOM     27  C   UNL     1       1.494   2.384  19.840  0.00  0.00    +0.000 A 
ENDBRANCH  21  22
ENDBRANCH  20  21
ENDBRANCH  19  20
ENDBRANCH   2  19
TORSDOF 7
ENDMDL
MODEL 7
REMARK VINA RESULT:      -7.0      4.500      7.420
REMARK  Name = 
REMARK  9 active torsions:
REMARK  status: ('A' for Active; 'I' for Inactive)
REMARK    1  A    between atoms: C_1  and  N_2
REMARK    2  A    between atoms: N_2  and  C_3
REMARK    3  A    between atoms: C_3  and  C_4
REMARK    4  A    between atoms: C_4  and  C_5
REMARK    5  A    between atoms: C_5  and  C_6
REMARK    6  A    between atoms: N_9  and  C_10
REMARK    7  A    between atoms: C_16  and  C_17
REMARK    8  A    between atoms: C_19  and  C_20
REMARK    9  A    between atoms: C_20  and  O_22
REMARK                            x       y       z     vdW  Elec       q    Type
REMARK                         _______ _______ _______ _____ _____    ______ ____
ROOT
ATOM      1  C   UNL     1       3.846   1.661  18.408  0.00  0.00    +0.000 C 
ATOM      2  N   UNL     1       3.671   3.078  18.153  0.00  0.00    +0.000 N 
ATOM      3  C   UNL     1       3.070   3.835  19.133  0.00  0.00    +0.000 A 
ATOM      4  N   UNL     1       2.764   3.247  20.299  0.00  0.00    +0.000 NA
ATOM      5  C   UNL     1       2.169   3.991  21.244  0.00  0.00    +0.000 A 
ATOM      6  C   UNL     1       1.860   5.313  21.075  0.00  0.00    +0.000 A 
ATOM      7  C   UNL     1       2.205   5.865  19.857  0.00  0.00    +0.000 A 
ATOM      8  N   UNL     1       2.811   5.131  18.891  0.00  0.00    +0.000 NA
ENDROOT
BRANCH   7   9
ATOM      9  C   UNL     1       1.952   7.290  19.543  0.00  0.00    +0.000 A 
ATOM     10  C   UNL     1       1.352   8.160  20.451  0.00  0.00    +0.000 A 
ATOM     11  C   UNL     1       1.099   9.476  20.060  0.00  0.00    +0.000 A 
ATOM     12  C   UNL     1       1.492   9.910  18.795  0.00  0.00    +0.000 A 
ATOM     13  C   UNL     1       2.099   8.997  17.961  0.00  0.00    +0.000 A 
ATOM     14  N   UNL     1       2.323   7.711  18.302  0.00  0.00    +0.000 NA
BRANCH  11  15
ATOM     15  C   UNL     1       0.459  10.467  20.958  0.00  0.00    +0.000 C 
ATOM     16  O   UNL     1      -0.423  11.219  20.580  0.00  0.00    +0.000 OA
BRANCH  15  17
ATOM     17  O   UNL     1       0.901  10.434  22.233  0.00  0.00    +0.000 OA
ATOM     18  H   UNL     1       1.387   9.630  22.496  0.00  0.00    +0.000 HD
ENDBRANCH  15  17
ENDBRANCH  11  15
ENDBRANCH   7   9
BRANCH   2  19
ATOM     19  C   UNL     1       3.939   3.632  16.837  0.00  0.00    +0.000 C 
BRANCH  19  20
ATOM     20  C   UNL     1       5.438   3.847  16.611  0.00  0.00    +0.000 C 
BRANCH  20  21
ATOM     21  C   UNL     1       5.764   5.264  16.135  0.00  0.00    +0.000 C 
BRANCH  21  22
ATOM     22  C   UNL     1       6.630   6.004  17.093  0.00  0.00    +0.000 A 
ATOM     23  C   UNL     1       7.266   5.492  18.248  0.00  0.00    +0.000 A 
ATOM     24  N   UNL     1       7.998   6.411  18.881  0.00  0.00    +0.000 NA
ATOM     25  N   UNL     1       7.842   7.514  18.129  0.00  0.00    +0.000 N 
ATOM     26  C   UNL     1       8.536   8.730  18.473  0.00  0.00    +0.000 C 
ATOM     27  C   UNL     1       7.020   7.326  17.055  0.00  0.00    +0.000 A 
ENDBRANCH  21  22
ENDBRANCH  20  21
ENDBRANCH  19  20
ENDBRANCH   2  19
TORSDOF 7
ENDMDL
MODEL 8
REMARK VINA RESULT:      -6.9      4.537      8.692
REMARK  Name = 
REMARK  9 active torsions:
REMARK  status: ('A' for Active; 'I' for Inactive)
REMARK    1  A    between atoms: C_1  and  N_2
REMARK    2  A    between atoms: N_2  and  C_3
REMARK    3  A    between atoms: C_3  and  C_4
REMARK    4  A    between atoms: C_4  and  C_5
REMARK    5  A    between atoms: C_5  and  C_6
REMARK    6  A    between atoms: N_9  and  C_10
REMARK    7  A    between atoms: C_16  and  C_17
REMARK    8  A    between atoms: C_19  and  C_20
REMARK    9  A    between atoms: C_20  and  O_22
REMARK                            x       y       z     vdW  Elec       q    Type
REMARK                         _______ _______ _______ _____ _____    ______ ____
ROOT
ATOM      1  C   UNL     1       5.664   3.955  18.111  0.00  0.00    +0.000 C 
ATOM      2  N   UNL     1       5.083   5.272  18.285  0.00  0.00    +0.000 N 
ATOM      3  C   UNL     1       3.979   5.382  19.100  0.00  0.00    +0.000 A 
ATOM      4  N   UNL     1       3.557   4.291  19.758  0.00  0.00    +0.000 NA
ATOM      5  C   UNL     1       2.473   4.407  20.541  0.00  0.00    +0.000 A 
ATOM      6  C   UNL     1       1.782   5.577  20.698  0.00  0.00    +0.000 A 
ATOM      7  C   UNL     1       2.266   6.666  20.003  0.00  0.00    +0.000 A 
ATOM      8  N   UNL     1       3.363   6.571  19.209  0.00  0.00    +0.000 NA
ENDROOT
BRANCH   7   9
ATOM      9  C   UNL     1       1.632   8.001  20.096  0.00  0.00    +0.000 A 
ATOM     10  C   UNL     1       1.048   8.470  21.271  0.00  0.00    +0.000 A 
ATOM     11  C   UNL     1       0.424   9.718  21.263  0.00  0.00    +0.000 A 
ATOM     12  C   UNL     1       0.436  10.491  20.104  0.00  0.00    +0.000 A 
ATOM     13  C   UNL     1       1.052   9.969  18.988  0.00  0.00    +0.000 A 
ATOM     14  N   UNL     1       1.633   8.751  18.959  0.00  0.00    +0.000 NA
BRANCH  11  15
ATOM     15  C   UNL     1      -0.228  10.293  22.465  0.00  0.00    +0.000 C 
ATOM     16  O   UNL     1       0.078   9.961  23.597  0.00  0.00    +0.000 OA
BRANCH  15  17
ATOM     17  O   UNL     1      -1.149  11.243  22.201  0.00  0.00    +0.000 OA
ATOM     18  H   UNL     1      -1.978  11.189  22.712  0.00  0.00    +0.000 HD
ENDBRANCH  15  17
ENDBRANCH  11  15
ENDBRANCH   7   9
BRANCH   2  19
ATOM     19  C   UNL     1       5.529   6.391  17.475  0.00  0.00    +0.000 C 
BRANCH  19  20
ATOM     20  C   UNL     1       5.543   6.039  15.985  0.00  0.00    +0.000 C 
BRANCH  20  21
ATOM     21  C   UNL     1       6.888   5.473  15.526  0.00  0.00    +0.000 C 
BRANCH  21  22
ATOM     22  C   UNL     1       6.802   4.797  14.202  0.00  0.00    +0.000 A 
ATOM     23  C   UNL     1       7.523   5.112  13.027  0.00  0.00    +0.000 A 
ATOM     24  N   UNL     1       7.235   4.294  12.013  0.00  0.00    +0.000 NA
ATOM     25  N   UNL     1       6.334   3.446  12.536  0.00  0.00    +0.000 N 
ATOM     26  C   UNL     1       5.811   2.363  11.741  0.00  0.00    +0.000 C 
ATOM     27  C   UNL     1       6.030   3.713  13.840  0.00  0.00    +0.000 A 
ENDBRANCH  21  22
ENDBRANCH  20  21
ENDBRANCH  19  20
ENDBRANCH   2  19
TORSDOF 7
ENDMDL
MODEL 9
REMARK VINA RESULT:      -6.9      2.450      4.106
REMARK  Name = 
REMARK  9 active torsions:
REMARK  status: ('A' for Active; 'I' for Inactive)
REMARK    1  A    between atoms: C_1  and  N_2
REMARK    2  A    between atoms: N_2  and  C_3
REMARK    3  A    between atoms: C_3  and  C_4
REMARK    4  A    between atoms: C_4  and  C_5
REMARK    5  A    between atoms: C_5  and  C_6
REMARK    6  A    between atoms: N_9  and  C_10
REMARK    7  A    between atoms: C_16  and  C_17
REMARK    8  A    between atoms: C_19  and  C_20
REMARK    9  A    between atoms: C_20  and  O_22
REMARK                            x       y       z     vdW  Elec       q    Type
REMARK                         _______ _______ _______ _____ _____    ______ ____
ROOT
ATOM      1  C   UNL     1       1.068   2.857  21.369  0.00  0.00    +0.000 C 
ATOM      2  N   UNL     1       1.973   3.742  20.662  0.00  0.00    +0.000 N 
ATOM      3  C   UNL     1       2.595   3.255  19.534  0.00  0.00    +0.000 A 
ATOM      4  N   UNL     1       2.265   2.028  19.101  0.00  0.00    +0.000 NA
ATOM      5  C   UNL     1       2.886   1.558  18.007  0.00  0.00    +0.000 A 
ATOM      6  C   UNL     1       3.834   2.265  17.320  0.00  0.00    +0.000 A 
ATOM      7  C   UNL     1       4.127   3.522  17.809  0.00  0.00    +0.000 A 
ATOM      8  N   UNL     1       3.508   4.017  18.910  0.00  0.00    +0.000 NA
ENDROOT
BRANCH   7   9
ATOM      9  C   UNL     1       5.116   4.408  17.152  0.00  0.00    +0.000 A 
ATOM     10  C   UNL     1       5.598   4.166  15.867  0.00  0.00    +0.000 A 
ATOM     11  C   UNL     1       6.569   5.018  15.339  0.00  0.00    +0.000 A 
ATOM     12  C   UNL     1       7.002   6.117  16.079  0.00  0.00    +0.000 A 
ATOM     13  C   UNL     1       6.463   6.302  17.333  0.00  0.00    +0.000 A 
ATOM     14  N   UNL     1       5.550   5.474  17.880  0.00  0.00    +0.000 NA
BRANCH  11  15
ATOM     15  C   UNL     1       7.142   4.833  13.984  0.00  0.00    +0.000 C 
ATOM     16  O   UNL     1       6.674   4.049  13.177  0.00  0.00    +0.000 OA
BRANCH  15  17
ATOM     17  O   UNL     1       8.191   5.636  13.707  0.00  0.00    +0.000 OA
ATOM     18  H   UNL     1       8.829   5.295  13.053  0.00  0.00    +0.000 HD
ENDBRANCH  15  17
ENDBRANCH  11  15
ENDBRANCH   7   9
BRANCH   2  19
ATOM     19  C   UNL     1       2.356   5.021  21.234  0.00  0.00    +0.000 C 
BRANCH  19  20
ATOM     20  C   UNL     1       1.306   6.100  20.958  0.00  0.00    +0.000 C 
BRANCH  20  21
ATOM     21  C   UNL     1       1.904   7.353  20.315  0.00  0.00    +0.000 C 
BRANCH  21  22
ATOM     22  C   UNL     1       1.287   8.607  20.827  0.00  0.00    +0.000 A 
ATOM     23  C   UNL     1       1.295   9.089  22.157  0.00  0.00    +0.000 A 
ATOM     24  N   UNL     1       0.674  10.263  22.281  0.00  0.00    +0.000 NA
ATOM     25  N   UNL     1       0.271  10.544  21.031  0.00  0.00    +0.000 N 
ATOM     26  C   UNL     1      -0.409  11.783  20.748  0.00  0.00    +0.000 C 
ATOM     27  C   UNL     1       0.601   9.576  20.125  0.00  0.00    +0.000 A 
ENDBRANCH  21  22
ENDBRANCH  20  21
ENDBRANCH  19  20
ENDBRANCH   2  19
TORSDOF 7
ENDMDL
