MODEL 1
REMARK VINA RESULT:      -7.3      0.000      0.000
REMARK  Name = 
REMARK  7 active torsions:
REMARK  status: ('A' for Active; 'I' for Inactive)
REMARK    1  A    between atoms: O_1  and  C_2
REMARK    2  A    between atoms: C_5  and  C_6
REMARK    3  A    between atoms: C_8  and  C_9
REMARK    4  A    between atoms: C_9  and  C_10
REMARK    5  A    between atoms: C_15  and  O_16
REMARK    6  A    between atoms: C_18  and  C_19
REMARK    7  A    between atoms: C_19  and  C_20
REMARK                            x       y       z     vdW  Elec       q    Type
REMARK                         _______ _______ _______ _____ _____    ______ ____
ROOT
ATOM      1  C   UNL     1       1.379   3.455  19.586  0.00  0.00    +0.000 A 
ATOM      2  C   UNL     1       1.925   2.535  18.692  0.00  0.00    +0.000 A 
ATOM      3  C   UNL     1       3.036   2.891  17.919  0.00  0.00    +0.000 A 
ATOM      4  C   UNL     1       3.667   4.140  18.066  0.00  0.00    +0.000 A 
ATOM      5  C   UNL     1       3.043   5.058  18.934  0.00  0.00    +0.000 A 
ATOM      6  C   UNL     1       1.892   4.746  19.675  0.00  0.00    +0.000 A 
ENDROOT
BRANCH   4   7
ATOM      7  C   UNL     1       4.984   4.441  17.441  0.00  0.00    +0.000 A 
ATOM      8  C   UNL     1       5.090   4.468  16.036  0.00  0.00    +0.000 A 
ATOM      9  C   UNL     1       6.318   4.578  15.366  0.00  0.00    +0.000 A 
ATOM     10  C   UNL     1       7.493   4.618  16.119  0.00  0.00    +0.000 A 
ATOM     11  C   UNL     1       7.428   4.649  17.512  0.00  0.00    +0.000 A 
ATOM     12  C   UNL     1       6.190   4.591  18.161  0.00  0.00    +0.000 A 
BRANCH  12  13
ATOM     13  O   UNL     1       6.173   4.694  19.530  0.00  0.00    +0.000 OA
ATOM     14  H   UNL     1       6.876   5.297  19.817  0.00  0.00    +0.000 HD
ENDBRANCH  12  13
BRANCH   9  15
ATOM     15  C   UNL     1       6.343   4.670  13.861  0.00  0.00    +0.000 C 
BRANCH  15  16
ATOM     16  C   UNL     1       6.023   3.371  13.193  0.00  0.00    +0.000 C 
ATOM     17  C   UNL     1       5.220   3.240  11.920  0.00  0.00    +0.000 C 
ATOM     18  O   UNL     1       6.652   3.236  11.904  0.00  0.00    +0.000 OA
ENDBRANCH  15  16
ENDBRANCH   9  15
ENDBRANCH   4   7
BRANCH   1  19
ATOM     19  O   UNL     1       0.326   3.099  20.379  0.00  0.00    +0.000 OA
ATOM     20  H   UNL     1       0.666   2.586  21.131  0.00  0.00    +0.000 HD
ENDBRANCH   1  19
BRANCH   6  21
ATOM     21  C   UNL     1       1.246   5.828  20.505  0.00  0.00    +0.000 C 
BRANCH  21  22
ATOM     22  C   UNL     1       1.971   7.135  20.441  0.00  0.00    +0.000 C 
ATOM     23  C   UNL     1       1.361   8.435  19.971  0.00  0.00    +0.000 C 
ATOM     24  O   UNL     1       1.449   8.114  21.362  0.00  0.00    +0.000 OA
ENDBRANCH  21  22
ENDBRANCH   6  21
TORSDOF 7
ENDMDL
MODEL 2
REMARK VINA RESULT:      -7.1      2.285      4.102
REMARK  Name = 
REMARK  7 active torsions:
REMARK  status: ('A' for Active; 'I' for Inactive)
REMARK    1  A    between atoms: O_1  and  C_2
REMARK    2  A    between atoms: C_5  and  C_6
REMARK    3  A    between atoms: C_8  and  C_9
REMARK    4  A    between atoms: C_9  and  C_10
REMARK    5  A    between atoms: C_15  and  O_16
REMARK    6  A    between atoms: C_18  and  C_19
REMARK    7  A    between atoms: C_19  and  C_20
REMARK                            x       y       z     vdW  Elec       q    Type
REMARK                         _______ _______ _______ _____ _____    ______ ____
ROOT
ATOM      1  C   UNL     1       3.859   5.629  18.071  0.00  0.00    +0.000 A 
ATOM      2  C   UNL     1       4.638   6.597  17.440  0.00  0.00    +0.000 A 
ATOM      3  C   UNL     1       5.368   6.264  16.293  0.00  0.00    +0.000 A 
ATOM      4  C   UNL     1       5.287   4.985  15.713  0.00  0.00    +0.000 A 
ATOM      5  C   UNL     1       4.538   4.024  16.420  0.00  0.00    +0.000 A 
ATOM      6  C   UNL     1       3.845   4.317  17.606  0.00  0.00    +0.000 A 
ENDROOT
BRANCH   4   7
ATOM      7  C   UNL     1       5.853   4.687  14.369  0.00  0.00    +0.000 A 
ATOM      8  C   UNL     1       5.096   3.926  13.456  0.00  0.00    +0.000 A 
ATOM      9  C   UNL     1       5.615   3.459  12.238  0.00  0.00    +0.000 A 
ATOM     10  C   UNL     1       6.952   3.719  11.934  0.00  0.00    +0.000 A 
ATOM     11  C   UNL     1       7.720   4.515  12.785  0.00  0.00    +0.000 A 
ATOM     12  C   UNL     1       7.169   5.015  13.969  0.00  0.00    +0.000 A 
BRANCH  12  13
ATOM     13  O   UNL     1       7.940   5.849  14.739  0.00  0.00    +0.000 OA
ATOM     14  H   UNL     1       8.410   6.474  14.166  0.00  0.00    +0.000 HD
ENDBRANCH  12  13
BRANCH   9  15
ATOM     15  C   UNL     1       4.721   2.710  11.283  0.00  0.00    +0.000 C 
BRANCH  15  16
ATOM     16  C   UNL     1       3.453   3.442  10.978  0.00  0.00    +0.000 C 
ATOM     17  C   UNL     1       3.176   4.168   9.682  0.00  0.00    +0.000 C 
ATOM     18  O   UNL     1       2.702   2.836   9.908  0.00  0.00    +0.000 OA
ENDBRANCH  15  16
ENDBRANCH   9  15
ENDBRANCH   4   7
BRANCH   1  19
ATOM     19  O   UNL     1       3.105   5.958  19.160  0.00  0.00    +0.000 OA
ATOM     20  H   UNL     1       3.677   6.398  19.810  0.00  0.00    +0.000 HD
ENDBRANCH   1  19
BRANCH   6  21
ATOM     21  C   UNL     1       3.150   3.195  18.337  0.00  0.00    +0.000 C 
BRANCH  21  22
ATOM     22  C   UNL     1       1.658   3.282  18.273  0.00  0.00    +0.000 C 
ATOM     23  C   UNL     1       0.710   2.329  18.963  0.00  0.00    +0.000 C 
ATOM     24  O   UNL     1       1.057   3.589  19.547  0.00  0.00    +0.000 OA
ENDBRANCH  21  22
ENDBRANCH   6  21
TORSDOF 7
ENDMDL
MODEL 3
REMARK VINA RESULT:      -7.1      1.514      7.437
REMARK  Name = 
REMARK  7 active torsions:
REMARK  status: ('A' for Active; 'I' for Inactive)
REMARK    1  A    between atoms: O_1  and  C_2
REMARK    2  A    between atoms: C_5  and  C_6
REMARK    3  A    between atoms: C_8  and  C_9
REMARK    4  A    between atoms: C_9  and  C_10
REMARK    5  A    between atoms: C_15  and  O_16
REMARK    6  A    between atoms: C_18  and  C_19
REMARK    7  A    between atoms: C_19  and  C_20
REMARK                            x       y       z     vdW  Elec       q    Type
REMARK                         _______ _______ _______ _____ _____    ______ ____
ROOT
ATOM      1  C   UNL     1       7.003   4.775  16.250  0.00  0.00    +0.000 A 
ATOM      2  C   UNL     1       7.274   4.910  17.610  0.00  0.00    +0.000 A 
ATOM      3  C   UNL     1       6.225   4.864  18.537  0.00  0.00    +0.000 A 
ATOM      4  C   UNL     1       4.899   4.618  18.138  0.00  0.00    +0.000 A 
ATOM      5  C   UNL     1       4.666   4.551  16.750  0.00  0.00    +0.000 A 
ATOM      6  C   UNL     1       5.692   4.654  15.797  0.00  0.00    +0.000 A 
ENDROOT
BRANCH   4   7
ATOM      7  C   UNL     1       3.818   4.321  19.117  0.00  0.00    +0.000 A 
ATOM      8  C   UNL     1       2.975   5.364  19.550  0.00  0.00    +0.000 A 
ATOM      9  C   UNL     1       2.044   5.210  20.589  0.00  0.00    +0.000 A 
ATOM     10  C   UNL     1       1.979   3.986  21.257  0.00  0.00    +0.000 A 
ATOM     11  C   UNL     1       2.758   2.912  20.824  0.00  0.00    +0.000 A 
ATOM     12  C   UNL     1       3.643   3.071  19.752  0.00  0.00    +0.000 A 
BRANCH  12  13
ATOM     13  O   UNL     1       4.336   1.968  19.318  0.00  0.00    +0.000 OA
ATOM     14  H   UNL     1       5.251   2.220  19.119  0.00  0.00    +0.000 HD
ENDBRANCH  12  13
BRANCH   9  15
ATOM     15  C   UNL     1       1.128   6.353  20.947  0.00  0.00    +0.000 C 
BRANCH  15  16
ATOM     16  C   UNL     1       1.723   7.692  20.648  0.00  0.00    +0.000 C 
ATOM     17  C   UNL     1       0.928   8.969  20.513  0.00  0.00    +0.000 C 
ATOM     18  O   UNL     1       1.581   8.622  21.739  0.00  0.00    +0.000 OA
ENDBRANCH  15  16
ENDBRANCH   9  15
ENDBRANCH   4   7
BRANCH   1  19
ATOM     19  O   UNL     1       8.025   4.769  15.345  0.00  0.00    +0.000 OA
ATOM     20  H   UNL     1       7.973   5.582  14.815  0.00  0.00    +0.000 HD
ENDBRANCH   1  19
BRANCH   6  21
ATOM     21  C   UNL     1       5.327   4.663  14.333  0.00  0.00    +0.000 C 
BRANCH  21  22
ATOM     22  C   UNL     1       5.918   3.521  13.568  0.00  0.00    +0.000 C 
ATOM     23  C   UNL     1       5.655   3.237  12.107  0.00  0.00    +0.000 C 
ATOM     24  O   UNL     1       6.823   3.948  12.530  0.00  0.00    +0.000 OA
ENDBRANCH  21  22
ENDBRANCH   6  21
TORSDOF 7
ENDMDL
MODEL 4
REMARK VINA RESULT:      -7.0      1.929      6.764
REMARK  Name = 
REMARK  7 active torsions:
REMARK  status: ('A' for Active; 'I' for Inactive)
REMARK    1  A    between atoms: O_1  and  C_2
REMARK    2  A    between atoms: C_5  and  C_6
REMARK    3  A    between atoms: C_8  and  C_9
REMARK    4  A    between atoms: C_9  and  C_10
REMARK    5  A    between atoms: C_15  and  O_16
REMARK    6  A    between atoms: C_18  and  C_19
REMARK    7  A    between atoms: C_19  and  C_20
REMARK                            x       y       z     vdW  Elec       q    Type
REMARK                         _______ _______ _______ _____ _____    ______ ____
ROOT
ATOM      1  C   UNL     1       6.571   4.812  16.010  0.00  0.00    +0.000 A 
ATOM      2  C   UNL     1       5.528   4.027  15.524  0.00  0.00    +0.000 A 
ATOM      3  C   UNL     1       4.481   3.656  16.375  0.00  0.00    +0.000 A 
ATOM      4  C   UNL     1       4.414   4.111  17.704  0.00  0.00    +0.000 A 
ATOM      5  C   UNL     1       5.520   4.849  18.168  0.00  0.00    +0.000 A 
ATOM      6  C   UNL     1       6.612   5.184  17.352  0.00  0.00    +0.000 A 
ENDROOT
BRANCH   4   7
ATOM      7  C   UNL     1       3.196   3.935  18.542  0.00  0.00    +0.000 A 
ATOM      8  C   UNL     1       2.677   5.041  19.244  0.00  0.00    +0.000 A 
ATOM      9  C   UNL     1       1.640   4.930  20.182  0.00  0.00    +0.000 A 
ATOM     10  C   UNL     1       1.127   3.664  20.470  0.00  0.00    +0.000 A 
ATOM     11  C   UNL     1       1.575   2.551  19.758  0.00  0.00    +0.000 A 
ATOM     12  C   UNL     1       2.574   2.690  18.789  0.00  0.00    +0.000 A 
BRANCH  12  13
ATOM     13  O   UNL     1       2.933   1.579  18.067  0.00  0.00    +0.000 OA
ATOM     14  H   UNL     1       2.150   1.029  17.911  0.00  0.00    +0.000 HD
ENDBRANCH  12  13
BRANCH   9  15
ATOM     15  C   UNL     1       1.091   6.171  20.841  0.00  0.00    +0.000 C 
BRANCH  15  16
ATOM     16  C   UNL     1       1.888   7.397  20.528  0.00  0.00    +0.000 C 
ATOM     17  C   UNL     1       1.312   8.662  19.937  0.00  0.00    +0.000 C 
ATOM     18  O   UNL     1       1.522   8.524  21.346  0.00  0.00    +0.000 OA
ENDBRANCH  15  16
ENDBRANCH   9  15
ENDBRANCH   4   7
BRANCH   1  19
ATOM     19  O   UNL     1       7.571   5.220  15.175  0.00  0.00    +0.000 OA
ATOM     20  H   UNL     1       7.250   5.165  14.260  0.00  0.00    +0.000 HD
ENDBRANCH   1  19
BRANCH   6  21
ATOM     21  C   UNL     1       7.790   5.897  17.969  0.00  0.00    +0.000 C 
BRANCH  21  22
ATOM     22  C   UNL     1       7.502   7.322  18.320  0.00  0.00    +0.000 C 
ATOM     23  C   UNL     1       8.332   8.503  17.873  0.00  0.00    +0.000 C 
ATOM     24  O   UNL     1       7.142   8.122  17.176  0.00  0.00    +0.000 OA
ENDBRANCH  21  22
ENDBRANCH   6  21
TORSDOF 7
ENDMDL
MODEL 5
REMARK VINA RESULT:      -6.8      2.126      4.450
REMARK  Name = 
REMARK  7 active torsions:
REMARK  status: ('A' for Active; 'I' for Inactive)
REMARK    1  A    between atoms: O_1  and  C_2
REMARK    2  A    between atoms: C_5  and  C_6
REMARK    3  A    between atoms: C_8  and  C_9
REMARK    4  A    between atoms: C_9  and  C_10
REMARK    5  A    between atoms: C_15  and  O_16
REMARK    6  A    between atoms: C_18  and  C_19
REMARK    7  A    between atoms: C_19  and  C_20
REMARK                            x       y       z     vdW  Elec       q    Type
REMARK                         _______ _______ _______ _____ _____    ______ ____
ROOT
ATOM      1  C   UNL     1       1.237   9.635  19.274  0.00  0.00    +0.000 A 
ATOM      2  C   UNL     1       1.620   9.261  17.988  0.00  0.00    +0.000 A 
ATOM      3  C   UNL     1       2.180   7.997  17.768  0.00  0.00    +0.000 A 
ATOM      4  C   UNL     1       2.308   7.057  18.807  0.00  0.00    +0.000 A 
ATOM      5  C   UNL     1       1.966   7.501  20.099  0.00  0.00    +0.000 A 
ATOM      6  C   UNL     1       1.459   8.786  20.355  0.00  0.00    +0.000 A 
ENDROOT
BRANCH   4   7
ATOM      7  C   UNL     1       2.666   5.635  18.550  0.00  0.00    +0.000 A 
ATOM      8  C   UNL     1       3.629   5.334  17.566  0.00  0.00    +0.000 A 
ATOM      9  C   UNL     1       3.903   4.024  17.143  0.00  0.00    +0.000 A 
ATOM     10  C   UNL     1       3.161   2.973  17.686  0.00  0.00    +0.000 A 
ATOM     11  C   UNL     1       2.237   3.223  18.702  0.00  0.00    +0.000 A 
ATOM     12  C   UNL     1       2.015   4.531  19.146  0.00  0.00    +0.000 A 
BRANCH  12  13
ATOM     13  O   UNL     1       1.148   4.720  20.193  0.00  0.00    +0.000 OA
ATOM     14  H   UNL     1       1.650   4.794  21.019  0.00  0.00    +0.000 HD
ENDBRANCH  12  13
BRANCH   9  15
ATOM     15  C   UNL     1       4.998   3.776  16.136  0.00  0.00    +0.000 C 
BRANCH  15  16
ATOM     16  C   UNL     1       6.037   4.852  16.130  0.00  0.00    +0.000 C 
ATOM     17  C   UNL     1       7.161   4.948  15.126  0.00  0.00    +0.000 C 
ATOM     18  O   UNL     1       5.954   5.701  14.969  0.00  0.00    +0.000 OA
ENDBRANCH  15  16
ENDBRANCH   9  15
ENDBRANCH   4   7
BRANCH   1  19
ATOM     19  O   UNL     1       0.645  10.846  19.489  0.00  0.00    +0.000 OA
ATOM     20  H   UNL     1       1.340  11.504  19.659  0.00  0.00    +0.000 HD
ENDBRANCH   1  19
BRANCH   6  21
ATOM     21  C   UNL     1       1.211   9.198  21.785  0.00  0.00    +0.000 C 
BRANCH  21  22
ATOM     22  C   UNL     1      -0.240   9.259  22.141  0.00  0.00    +0.000 C 
ATOM     23  C   UNL     1      -0.823  10.126  23.233  0.00  0.00    +0.000 C 
ATOM     24  O   UNL     1      -0.834  10.543  21.865  0.00  0.00    +0.000 OA
ENDBRANCH  21  22
ENDBRANCH   6  21
TORSDOF 7
ENDMDL
MODEL 6
REMARK VINA RESULT:      -6.8      2.654      7.299
REMARK  Name = 
REMARK  7 active torsions:
REMARK  status: ('A' for Active; 'I' for Inactive)
REMARK    1  A    between atoms: O_1  and  C_2
REMARK    2  A    between atoms: C_5  and  C_6
REMARK    3  A    between atoms: C_8  and  C_9
REMARK    4  A    between atoms: C_9  and  C_10
REMARK    5  A    between atoms: C_15  and  O_16
REMARK    6  A    between atoms: C_18  and  C_19
REMARK    7  A    between atoms: C_19  and  C_20
REMARK                            x       y       z     vdW  Elec       q    Type
REMARK                         _______ _______ _______ _____ _____    ______ ____
ROOT
ATOM      1  C   UNL     1       4.592   4.743  16.967  0.00  0.00    +0.000 A 
ATOM      2  C   UNL     1       5.010   6.068  17.072  0.00  0.00    +0.000 A 
ATOM      3  C   UNL     1       4.160   7.024  17.640  0.00  0.00    +0.000 A 
ATOM      4  C   UNL     1       2.908   6.672  18.174  0.00  0.00    +0.000 A 
ATOM      5  C   UNL     1       2.502   5.336  17.990  0.00  0.00    +0.000 A 
ATOM      6  C   UNL     1       3.312   4.371  17.369  0.00  0.00    +0.000 A 
ENDROOT
BRANCH   4   7
ATOM      7  C   UNL     1       2.103   7.616  18.997  0.00  0.00    +0.000 A 
ATOM      8  C   UNL     1       1.667   8.829  18.426  0.00  0.00    +0.000 A 
ATOM      9  C   UNL     1       1.051   9.845  19.172  0.00  0.00    +0.000 A 
ATOM     10  C   UNL     1       0.902   9.671  20.549  0.00  0.00    +0.000 A 
ATOM     11  C   UNL     1       1.270   8.464  21.144  0.00  0.00    +0.000 A 
ATOM     12  C   UNL     1       1.835   7.442  20.373  0.00  0.00    +0.000 A 
BRANCH  12  13
ATOM     13  O   UNL     1       2.117   6.248  20.990  0.00  0.00    +0.000 OA
ATOM     14  H   UNL     1       1.317   5.702  21.016  0.00  0.00    +0.000 HD
ENDBRANCH  12  13
BRANCH   9  15
ATOM     15  C   UNL     1       0.549  11.085  18.476  0.00  0.00    +0.000 C 
BRANCH  15  16
ATOM     16  C   UNL     1      -0.872  11.407  18.814  0.00  0.00    +0.000 C 
ATOM     17  C   UNL     1      -1.932  11.766  17.799  0.00  0.00    +0.000 C 
ATOM     18  O   UNL     1      -1.802  10.433  18.305  0.00  0.00    +0.000 OA
ENDBRANCH  15  16
ENDBRANCH   9  15
ENDBRANCH   4   7
BRANCH   1  19
ATOM     19  O   UNL     1       5.433   3.795  16.461  0.00  0.00    +0.000 OA
ATOM     20  H   UNL     1       4.936   2.969  16.349  0.00  0.00    +0.000 HD
ENDBRANCH   1  19
BRANCH   6  21
ATOM     21  C   UNL     1       2.749   2.990  17.136  0.00  0.00    +0.000 C 
BRANCH  21  22
ATOM     22  C   UNL     1       2.761   2.131  18.360  0.00  0.00    +0.000 C 
ATOM     23  C   UNL     1       3.832   1.116  18.688  0.00  0.00    +0.000 C 
ATOM     24  O   UNL     1       3.855   2.433  19.248  0.00  0.00    +0.000 OA
ENDBRANCH  21  22
ENDBRANCH   6  21
TORSDOF 7
ENDMDL
MODEL 7
REMARK VINA RESULT:      -6.8      3.776      6.342
REMARK  Name = 
REMARK  7 active torsions:
REMARK  status: ('A' for Active; 'I' for Inactive)
REMARK    1  A    between atoms: O_1  and  C_2
REMARK    2  A    between atoms: C_5  and  C_6
REMARK    3  A    between atoms: C_8  and  C_9
REMARK    4  A    between atoms: C_9  and  C_10
REMARK    5  A    between atoms: C_15  and  O_16
REMARK    6  A    between atoms: C_18  and  C_19
REMARK    7  A    between atoms: C_19  and  C_20
REMARK                            x       y       z     vdW  Elec       q    Type
REMARK                         _______ _______ _______ _____ _____    ______ ____
ROOT
ATOM      1  C   UNL     1      -0.451  11.676  18.051  0.00  0.00    +0.000 A 
ATOM      2  C   UNL     1       0.847  11.896  18.505  0.00  0.00    +0.000 A 
ATOM      3  C   UNL     1       1.667  10.807  18.824  0.00  0.00    +0.000 A 
ATOM      4  C   UNL     1       1.238   9.481  18.637  0.00  0.00    +0.000 A 
ATOM      5  C   UNL     1      -0.101   9.308  18.236  0.00  0.00    +0.000 A 
ATOM      6  C   UNL     1      -0.963  10.384  17.967  0.00  0.00    +0.000 A 
ENDROOT
BRANCH   4   7
ATOM      7  C   UNL     1       2.170   8.324  18.733  0.00  0.00    +0.000 A 
ATOM      8  C   UNL     1       3.053   8.060  17.667  0.00  0.00    +0.000 A 
ATOM      9  C   UNL     1       3.843   6.902  17.600  0.00  0.00    +0.000 A 
ATOM     10  C   UNL     1       3.719   5.945  18.609  0.00  0.00    +0.000 A 
ATOM     11  C   UNL     1       2.898   6.194  19.710  0.00  0.00    +0.000 A 
ATOM     12  C   UNL     1       2.157   7.378  19.783  0.00  0.00    +0.000 A 
BRANCH  12  13
ATOM     13  O   UNL     1       1.418   7.609  20.916  0.00  0.00    +0.000 OA
ATOM     14  H   UNL     1       1.835   8.313  21.436  0.00  0.00    +0.000 HD
ENDBRANCH  12  13
BRANCH   9  15
ATOM     15  C   UNL     1       4.815   6.725  16.461  0.00  0.00    +0.000 C 
BRANCH  15  16
ATOM     16  C   UNL     1       5.996   5.884  16.830  0.00  0.00    +0.000 C 
ATOM     17  C   UNL     1       6.696   4.934  15.887  0.00  0.00    +0.000 C 
ATOM     18  O   UNL     1       7.191   6.257  16.118  0.00  0.00    +0.000 OA
ENDBRANCH  15  16
ENDBRANCH   9  15
ENDBRANCH   4   7
BRANCH   1  19
ATOM     19  O   UNL     1      -1.240  12.730  17.690  0.00  0.00    +0.000 OA
ATOM     20  H   UNL     1      -2.115  12.615  18.096  0.00  0.00    +0.000 HD
ENDBRANCH   1  19
BRANCH   6  21
ATOM     21  C   UNL     1      -2.406  10.094  17.635  0.00  0.00    +0.000 C 
BRANCH  21  22
ATOM     22  C   UNL     1      -2.642   9.853  16.178  0.00  0.00    +0.000 C 
ATOM     23  C   UNL     1      -3.753  10.483  15.370  0.00  0.00    +0.000 C 
ATOM     24  O   UNL     1      -2.430  11.029  15.371  0.00  0.00    +0.000 OA
ENDBRANCH  21  22
ENDBRANCH   6  21
TORSDOF 7
ENDMDL
MODEL 8
REMARK VINA RESULT:      -6.8      2.255      4.308
REMARK  Name = 
REMARK  7 active torsions:
REMARK  status: ('A' for Active; 'I' for Inactive)
REMARK    1  A    between atoms: O_1  and  C_2
REMARK    2  A    between atoms: C_5  and  C_6
REMARK    3  A    between atoms: C_8  and  C_9
REMARK    4  A    between atoms: C_9  and  C_10
REMARK    5  A    between atoms: C_15  and  O_16
REMARK    6  A    between atoms: C_18  and  C_19
REMARK    7  A    between atoms: C_19  and  C_20
REMARK                            x       y       z     vdW  Elec       q    Type
REMARK                         _______ _______ _______ _____ _____    ______ ____
ROOT
ATOM      1  C   UNL     1       1.069   9.169  20.535  0.00  0.00    +0.000 A 
ATOM      2  C   UNL     1       1.296   7.942  21.154  0.00  0.00    +0.000 A 
ATOM      3  C   UNL     1       1.824   6.876  20.415  0.00  0.00    +0.000 A 
ATOM      4  C   UNL     1       2.197   7.027  19.068  0.00  0.00    +0.000 A 
ATOM      5  C   UNL     1       1.891   8.264  18.468  0.00  0.00    +0.000 A 
ATOM      6  C   UNL     1       1.306   9.330  19.172  0.00  0.00    +0.000 A 
ENDROOT
BRANCH   4   7
ATOM      7  C   UNL     1       2.981   5.991  18.341  0.00  0.00    +0.000 A 
ATOM      8  C   UNL     1       4.155   6.367  17.660  0.00  0.00    +0.000 A 
ATOM      9  C   UNL     1       4.861   5.495  16.816  0.00  0.00    +0.000 A 
ATOM     10  C   UNL     1       4.356   4.210  16.605  0.00  0.00    +0.000 A 
ATOM     11  C   UNL     1       3.227   3.780  17.303  0.00  0.00    +0.000 A 
ATOM     12  C   UNL     1       2.567   4.649  18.179  0.00  0.00    +0.000 A 
BRANCH  12  13
ATOM     13  O   UNL     1       1.503   4.159  18.895  0.00  0.00    +0.000 OA
ATOM     14  H   UNL     1       0.934   3.635  18.310  0.00  0.00    +0.000 HD
ENDBRANCH  12  13
BRANCH   9  15
ATOM     15  C   UNL     1       6.148   5.950  16.178  0.00  0.00    +0.000 C 
BRANCH  15  16
ATOM     16  C   UNL     1       6.864   4.849  15.462  0.00  0.00    +0.000 C 
ATOM     17  C   UNL     1       6.820   4.632  13.967  0.00  0.00    +0.000 C 
ATOM     18  O   UNL     1       7.903   5.333  14.589  0.00  0.00    +0.000 OA
ENDBRANCH  15  16
ENDBRANCH   9  15
ENDBRANCH   4   7
BRANCH   1  19
ATOM     19  O   UNL     1       0.602  10.227  21.259  0.00  0.00    +0.000 OA
ATOM     20  H   UNL     1       1.303  10.897  21.315  0.00  0.00    +0.000 HD
ENDBRANCH   1  19
BRANCH   6  21
ATOM     21  C   UNL     1       0.932  10.582  18.417  0.00  0.00    +0.000 C 
BRANCH  21  22
ATOM     22  C   UNL     1       1.963  11.661  18.513  0.00  0.00    +0.000 C 
ATOM     23  C   UNL     1       1.674  13.140  18.399  0.00  0.00    +0.000 C 
ATOM     24  O   UNL     1       1.794  12.500  19.673  0.00  0.00    +0.000 OA
ENDBRANCH  21  22
ENDBRANCH   6  21
TORSDOF 7
ENDMDL
MODEL 9
REMARK VINA RESULT:      -6.8      2.415      7.807
REMARK  Name = 
REMARK  7 active torsions:
REMARK  status: ('A' for Active; 'I' for Inactive)
REMARK    1  A    between atoms: O_1  and  C_2
REMARK    2  A    between atoms: C_5  and  C_6
REMARK    3  A    between atoms: C_8  and  C_9
REMARK    4  A    between atoms: C_9  and  C_10
REMARK    5  A    between atoms: C_15  and  O_16
REMARK    6  A    between atoms: C_18  and  C_19
REMARK    7  A    between atoms: C_19  and  C_20
REMARK                            x       y       z     vdW  Elec       q    Type
REMARK                         _______ _______ _______ _____ _____    ______ ____
ROOT
ATOM      1  C   UNL     1       3.770   3.386  18.640  0.00  0.00    +0.000 A 
ATOM      2  C   UNL     1       3.184   3.752  19.850  0.00  0.00    +0.000 A 
ATOM      3  C   UNL     1       2.809   5.083  20.068  0.00  0.00    +0.000 A 
ATOM      4  C   UNL     1       2.947   6.061  19.066  0.00  0.00    +0.000 A 
ATOM      5  C   UNL     1       3.600   5.658  17.884  0.00  0.00    +0.000 A 
ATOM      6  C   UNL     1       4.041   4.343  17.666  0.00  0.00    +0.000 A 
ENDROOT
BRANCH   4   7
ATOM      7  C   UNL     1       2.332   7.412  19.186  0.00  0.00    +0.000 A 
ATOM      8  C   UNL     1       1.583   7.728  20.337  0.00  0.00    +0.000 A 
ATOM      9  C   UNL     1       0.834   8.909  20.458  0.00  0.00    +0.000 A 
ATOM     10  C   UNL     1       0.791   9.791  19.377  0.00  0.00    +0.000 A 
ATOM     11  C   UNL     1       1.563   9.542  18.241  0.00  0.00    +0.000 A 
ATOM     12  C   UNL     1       2.343   8.384  18.160  0.00  0.00    +0.000 A 
BRANCH  12  13
ATOM     13  O   UNL     1       3.138   8.216  17.054  0.00  0.00    +0.000 OA
ATOM     14  H   UNL     1       2.648   7.725  16.376  0.00  0.00    +0.000 HD
ENDBRANCH  12  13
BRANCH   9  15
ATOM     15  C   UNL     1       0.115   9.209  21.749  0.00  0.00    +0.000 C 
BRANCH  15  16
ATOM     16  C   UNL     1       0.011  10.674  22.031  0.00  0.00    +0.000 C 
ATOM     17  C   UNL     1      -1.280  11.396  22.337  0.00  0.00    +0.000 C 
ATOM     18  O   UNL     1      -0.405  10.955  23.381  0.00  0.00    +0.000 OA
ENDBRANCH  15  16
ENDBRANCH   9  15
ENDBRANCH   4   7
BRANCH   1  19
ATOM     19  O   UNL     1       4.093   2.081  18.402  0.00  0.00    +0.000 OA
ATOM     20  H   UNL     1       3.697   1.533  19.098  0.00  0.00    +0.000 HD
ENDBRANCH   1  19
BRANCH   6  21
ATOM     21  C   UNL     1       4.813   4.034  16.407  0.00  0.00    +0.000 C 
BRANCH  21  22
ATOM     22  C   UNL     1       6.020   4.899  16.225  0.00  0.00    +0.000 C 
ATOM     23  C   UNL     1       6.950   4.839  15.036  0.00  0.00    +0.000 C 
ATOM     24  O   UNL     1       5.899   5.807  15.112  0.00  0.00    +0.000 OA
ENDBRANCH  21  22
ENDBRANCH   6  21
TORSDOF 7
ENDMDL
