MODEL 1
REMARK VINA RESULT:      -7.7      0.000      0.000
REMARK  Name = 
REMARK  5 active torsions:
REMARK  status: ('A' for Active; 'I' for Inactive)
REMARK    1  A    between atoms: C_2  and  O_3
REMARK    2  A    between atoms: C_2  and  C_4
REMARK    3  A    between atoms: N_8  and  C_9
REMARK    4  A    between atoms: C_9  and  C_10
REMARK    5  A    between atoms: N_13  and  C_14
REMARK                            x       y       z     vdW  Elec       q    Type
REMARK                         _______ _______ _______ _____ _____    ______ ____
ROOT
ATOM      1  C   UNL     1       5.390   4.720  18.061  0.00  0.00    +0.000 A 
ATOM      2  C   UNL     1       6.798   4.754  18.108  0.00  0.00    +0.000 A 
ATOM      3  N   UNL     1       7.358   4.715  16.901  0.00  0.00    +0.000 NA
ATOM      4  N   UNL     1       6.312   4.648  16.034  0.00  0.00    +0.000 N 
ATOM      5  C   UNL     1       5.108   4.714  16.708  0.00  0.00    +0.000 A 
ENDROOT
BRANCH   4   6
ATOM      6  C   UNL     1       6.527   4.495  14.636  0.00  0.00    +0.000 A 
ATOM      7  C   UNL     1       7.538   5.241  14.011  0.00  0.00    +0.000 A 
ATOM      8  C   UNL     1       7.784   5.085  12.646  0.00  0.00    +0.000 A 
ATOM      9  C   UNL     1       7.023   4.193  11.895  0.00  0.00    +0.000 A 
ATOM     10  C   UNL     1       6.013   3.456  12.508  0.00  0.00    +0.000 A 
ATOM     11  C   UNL     1       5.763   3.600  13.876  0.00  0.00    +0.000 A 
ENDBRANCH   4   6
BRANCH   1  12
ATOM     12  C   UNL     1       4.456   4.644  19.221  0.00  0.00    +0.000 C 
BRANCH  12  17
ATOM     13  C   UNL     1       2.194   3.736  19.080  0.00  0.00    +0.000 C 
ATOM     14  C   UNL     1       1.747   3.874  20.523  0.00  0.00    +0.000 C 
ATOM     15  C   UNL     1       2.581   2.845  21.265  0.00  0.00    +0.000 C 
ATOM     16  C   UNL     1       3.788   2.578  20.376  0.00  0.00    +0.000 C 
ATOM     17  N   UNL     1       3.655   3.402  19.147  0.00  0.00    +0.000 NA
BRANCH  13  19
ATOM     18  O   UNL     1       0.302   2.258  18.549  0.00  0.00    +0.000 OA
ATOM     19  C   UNL     1       1.459   2.595  18.353  0.00  0.00    +0.000 C 
BRANCH  19  20
ATOM     20  O   UNL     1       2.249   2.018  17.409  0.00  0.00    +0.000 OA
ATOM     21  H   UNL     1       1.689   1.352  16.942  0.00  0.00    +0.000 HD
ENDBRANCH  19  20
ENDBRANCH  13  19
ENDBRANCH  12  17
ENDBRANCH   1  12
TORSDOF 5
ENDMDL
MODEL 2
REMARK VINA RESULT:      -7.6      0.798      1.449
REMARK  Name = 
REMARK  5 active torsions:
REMARK  status: ('A' for Active; 'I' for Inactive)
REMARK    1  A    between atoms: C_2  and  O_3
REMARK    2  A    between atoms: C_2  and  C_4
REMARK    3  A    between atoms: N_8  and  C_9
REMARK    4  A    between atoms: C_9  and  C_10
REMARK    5  A    between atoms: N_13  and  C_14
REMARK                            x       y       z     vdW  Elec       q    Type
REMARK                         _______ _______ _______ _____ _____    ______ ____
ROOT
ATOM      1  C   UNL     1       4.733   4.829  17.876  0.00  0.00    +0.000 A 
ATOM      2  C   UNL     1       4.616   6.123  17.333  0.00  0.00    +0.000 A 
ATOM      3  N   UNL     1       5.027   6.193  16.068  0.00  0.00    +0.000 NA
ATOM      4  N   UNL     1       5.429   4.931  15.763  0.00  0.00    +0.000 N 
ATOM      5  C   UNL     1       5.203   4.071  16.819  0.00  0.00    +0.000 A 
ENDROOT
BRANCH   4   6
ATOM      6  C   UNL     1       6.028   4.637  14.506  0.00  0.00    +0.000 A 
ATOM      7  C   UNL     1       5.395   3.734  13.638  0.00  0.00    +0.000 A 
ATOM      8  C   UNL     1       5.951   3.453  12.389  0.00  0.00    +0.000 A 
ATOM      9  C   UNL     1       7.142   4.062  12.000  0.00  0.00    +0.000 A 
ATOM     10  C   UNL     1       7.779   4.952  12.861  0.00  0.00    +0.000 A 
ATOM     11  C   UNL     1       7.227   5.245  14.111  0.00  0.00    +0.000 A 
ENDBRANCH   4   6
BRANCH   1  12
ATOM     12  C   UNL     1       4.465   4.420  19.286  0.00  0.00    +0.000 C 
BRANCH  12  17
ATOM     13  C   UNL     1       2.145   3.713  19.016  0.00  0.00    +0.000 C 
ATOM     14  C   UNL     1       1.567   4.135  20.354  0.00  0.00    +0.000 C 
ATOM     15  C   UNL     1       2.199   3.176  21.346  0.00  0.00    +0.000 C 
ATOM     16  C   UNL     1       3.456   2.652  20.665  0.00  0.00    +0.000 C 
ATOM     17  N   UNL     1       3.545   3.263  19.313  0.00  0.00    +0.000 NA
BRANCH  13  19
ATOM     18  O   UNL     1       0.199   2.263  18.616  0.00  0.00    +0.000 OA
ATOM     19  C   UNL     1       1.369   2.536  18.396  0.00  0.00    +0.000 C 
BRANCH  19  20
ATOM     20  O   UNL     1       2.139   1.843  17.516  0.00  0.00    +0.000 OA
ATOM     21  H   UNL     1       2.812   1.358  18.053  0.00  0.00    +0.000 HD
ENDBRANCH  19  20
ENDBRANCH  13  19
ENDBRANCH  12  17
ENDBRANCH   1  12
TORSDOF 5
ENDMDL
MODEL 3
REMARK VINA RESULT:      -7.3      0.897      1.686
REMARK  Name = 
REMARK  5 active torsions:
REMARK  status: ('A' for Active; 'I' for Inactive)
REMARK    1  A    between atoms: C_2  and  O_3
REMARK    2  A    between atoms: C_2  and  C_4
REMARK    3  A    between atoms: N_8  and  C_9
REMARK    4  A    between atoms: C_9  and  C_10
REMARK    5  A    between atoms: N_13  and  C_14
REMARK                            x       y       z     vdW  Elec       q    Type
REMARK                         _______ _______ _______ _____ _____    ______ ____
ROOT
ATOM      1  C   UNL     1       5.529   5.157  17.914  0.00  0.00    +0.000 A 
ATOM      2  C   UNL     1       6.877   4.760  18.021  0.00  0.00    +0.000 A 
ATOM      3  N   UNL     1       7.454   4.562  16.837  0.00  0.00    +0.000 NA
ATOM      4  N   UNL     1       6.479   4.824  15.927  0.00  0.00    +0.000 N 
ATOM      5  C   UNL     1       5.322   5.248  16.550  0.00  0.00    +0.000 A 
ENDROOT
BRANCH   4   6
ATOM      6  C   UNL     1       6.703   4.624  14.536  0.00  0.00    +0.000 A 
ATOM      7  C   UNL     1       5.942   3.666  13.849  0.00  0.00    +0.000 A 
ATOM      8  C   UNL     1       6.125   3.474  12.479  0.00  0.00    +0.000 A 
ATOM      9  C   UNL     1       7.071   4.227  11.787  0.00  0.00    +0.000 A 
ATOM     10  C   UNL     1       7.835   5.172  12.465  0.00  0.00    +0.000 A 
ATOM     11  C   UNL     1       7.654   5.377  13.836  0.00  0.00    +0.000 A 
ENDBRANCH   4   6
BRANCH   1  12
ATOM     12  C   UNL     1       4.563   5.358  19.032  0.00  0.00    +0.000 C 
BRANCH  12  17
ATOM     13  C   UNL     1       3.055   3.643  18.170  0.00  0.00    +0.000 C 
ATOM     14  C   UNL     1       1.718   4.342  18.327  0.00  0.00    +0.000 C 
ATOM     15  C   UNL     1       1.504   4.391  19.829  0.00  0.00    +0.000 C 
ATOM     16  C   UNL     1       2.888   4.241  20.445  0.00  0.00    +0.000 C 
ATOM     17  N   UNL     1       3.875   4.087  19.345  0.00  0.00    +0.000 NA
BRANCH  13  19
ATOM     18  O   UNL     1       3.758   1.334  18.636  0.00  0.00    +0.000 OA
ATOM     19  C   UNL     1       2.916   2.110  18.215  0.00  0.00    +0.000 C 
BRANCH  19  20
ATOM     20  O   UNL     1       1.698   1.709  17.763  0.00  0.00    +0.000 OA
ATOM     21  H   UNL     1       1.205   1.370  18.549  0.00  0.00    +0.000 HD
ENDBRANCH  19  20
ENDBRANCH  13  19
ENDBRANCH  12  17
ENDBRANCH   1  12
TORSDOF 5
ENDMDL
MODEL 4
REMARK VINA RESULT:      -7.3      0.731      1.007
REMARK  Name = 
REMARK  5 active torsions:
REMARK  status: ('A' for Active; 'I' for Inactive)
REMARK    1  A    between atoms: C_2  and  O_3
REMARK    2  A    between atoms: C_2  and  C_4
REMARK    3  A    between atoms: N_8  and  C_9
REMARK    4  A    between atoms: C_9  and  C_10
REMARK    5  A    between atoms: N_13  and  C_14
REMARK                            x       y       z     vdW  Elec       q    Type
REMARK                         _______ _______ _______ _____ _____    ______ ____
ROOT
ATOM      1  C   UNL     1       5.535   4.914  18.059  0.00  0.00    +0.000 A 
ATOM      2  C   UNL     1       6.935   4.770  18.116  0.00  0.00    +0.000 A 
ATOM      3  N   UNL     1       7.496   4.671  16.912  0.00  0.00    +0.000 NA
ATOM      4  N   UNL     1       6.457   4.745  16.038  0.00  0.00    +0.000 N 
ATOM      5  C   UNL     1       5.266   4.956  16.703  0.00  0.00    +0.000 A 
ENDROOT
BRANCH   4   6
ATOM      6  C   UNL     1       6.663   4.579  14.640  0.00  0.00    +0.000 A 
ATOM      7  C   UNL     1       7.609   5.381  13.984  0.00  0.00    +0.000 A 
ATOM      8  C   UNL     1       7.847   5.215  12.619  0.00  0.00    +0.000 A 
ATOM      9  C   UNL     1       7.140   4.256  11.898  0.00  0.00    +0.000 A 
ATOM     10  C   UNL     1       6.194   3.463  12.541  0.00  0.00    +0.000 A 
ATOM     11  C   UNL     1       5.953   3.617  13.909  0.00  0.00    +0.000 A 
ENDBRANCH   4   6
BRANCH   1  12
ATOM     12  C   UNL     1       4.589   4.945  19.211  0.00  0.00    +0.000 C 
BRANCH  12  17
ATOM     13  C   UNL     1       2.328   4.248  19.810  0.00  0.00    +0.000 C 
ATOM     14  C   UNL     1       2.550   3.769  21.232  0.00  0.00    +0.000 C 
ATOM     15  C   UNL     1       3.366   2.499  21.068  0.00  0.00    +0.000 C 
ATOM     16  C   UNL     1       4.015   2.603  19.694  0.00  0.00    +0.000 C 
ATOM     17  N   UNL     1       3.577   3.877  19.066  0.00  0.00    +0.000 NA
BRANCH  13  19
ATOM     18  O   UNL     1       1.040   3.268  17.958  0.00  0.00    +0.000 OA
ATOM     19  C   UNL     1       1.129   3.547  19.143  0.00  0.00    +0.000 C 
BRANCH  19  20
ATOM     20  O   UNL     1       0.175   3.221  20.056  0.00  0.00    +0.000 OA
ATOM     21  H   UNL     1      -0.513   3.927  20.006  0.00  0.00    +0.000 HD
ENDBRANCH  19  20
ENDBRANCH  13  19
ENDBRANCH  12  17
ENDBRANCH   1  12
TORSDOF 5
ENDMDL
MODEL 5
REMARK VINA RESULT:      -7.2      0.525      1.394
REMARK  Name = 
REMARK  5 active torsions:
REMARK  status: ('A' for Active; 'I' for Inactive)
REMARK    1  A    between atoms: C_2  and  O_3
REMARK    2  A    between atoms: C_2  and  C_4
REMARK    3  A    between atoms: N_8  and  C_9
REMARK    4  A    between atoms: C_9  and  C_10
REMARK    5  A    between atoms: N_13  and  C_14
REMARK                            x       y       z     vdW  Elec       q    Type
REMARK                         _______ _______ _______ _____ _____    ______ ____
ROOT
ATOM      1  C   UNL     1       5.629   4.992  17.935  0.00  0.00    +0.000 A 
ATOM      2  C   UNL     1       6.730   5.857  17.780  0.00  0.00    +0.000 A 
ATOM      3  N   UNL     1       7.194   5.887  16.532  0.00  0.00    +0.000 NA
ATOM      4  N   UNL     1       6.397   5.028  15.844  0.00  0.00    +0.000 N 
ATOM      5  C   UNL     1       5.401   4.521  16.655  0.00  0.00    +0.000 A 
ENDROOT
BRANCH   4   6
ATOM      6  C   UNL     1       6.654   4.725  14.477  0.00  0.00    +0.000 A 
ATOM      7  C   UNL     1       5.891   3.735  13.839  0.00  0.00    +0.000 A 
ATOM      8  C   UNL     1       6.108   3.442  12.491  0.00  0.00    +0.000 A 
ATOM      9  C   UNL     1       7.088   4.126  11.775  0.00  0.00    +0.000 A 
ATOM     10  C   UNL     1       7.853   5.102  12.406  0.00  0.00    +0.000 A 
ATOM     11  C   UNL     1       7.640   5.408  13.754  0.00  0.00    +0.000 A 
ENDBRANCH   4   6
BRANCH   1  12
ATOM     12  C   UNL     1       4.937   4.641  19.209  0.00  0.00    +0.000 C 
BRANCH  12  17
ATOM     13  C   UNL     1       2.640   3.859  18.942  0.00  0.00    +0.000 C 
ATOM     14  C   UNL     1       2.164   3.894  20.383  0.00  0.00    +0.000 C 
ATOM     15  C   UNL     1       2.931   2.765  21.049  0.00  0.00    +0.000 C 
ATOM     16  C   UNL     1       4.146   2.518  20.165  0.00  0.00    +0.000 C 
ATOM     17  N   UNL     1       4.082   3.451  19.010  0.00  0.00    +0.000 NA
BRANCH  13  19
ATOM     18  O   UNL     1       2.356   2.108  17.240  0.00  0.00    +0.000 OA
ATOM     19  C   UNL     1       1.871   2.821  18.103  0.00  0.00    +0.000 C 
BRANCH  19  20
ATOM     20  O   UNL     1       0.565   2.753  18.475  0.00  0.00    +0.000 OA
ATOM     21  H   UNL     1       0.310   1.800  18.429  0.00  0.00    +0.000 HD
ENDBRANCH  19  20
ENDBRANCH  13  19
ENDBRANCH  12  17
ENDBRANCH   1  12
TORSDOF 5
ENDMDL
MODEL 6
REMARK VINA RESULT:      -7.2      2.069      2.661
REMARK  Name = 
REMARK  5 active torsions:
REMARK  status: ('A' for Active; 'I' for Inactive)
REMARK    1  A    between atoms: C_2  and  O_3
REMARK    2  A    between atoms: C_2  and  C_4
REMARK    3  A    between atoms: N_8  and  C_9
REMARK    4  A    between atoms: C_9  and  C_10
REMARK    5  A    between atoms: N_13  and  C_14
REMARK                            x       y       z     vdW  Elec       q    Type
REMARK                         _______ _______ _______ _____ _____    ______ ____
ROOT
ATOM      1  C   UNL     1       4.933   4.065  17.711  0.00  0.00    +0.000 A 
ATOM      2  C   UNL     1       6.254   4.490  17.954  0.00  0.00    +0.000 A 
ATOM      3  N   UNL     1       6.950   4.686  16.837  0.00  0.00    +0.000 NA
ATOM      4  N   UNL     1       6.086   4.383  15.832  0.00  0.00    +0.000 N 
ATOM      5  C   UNL     1       4.838   4.065  16.331  0.00  0.00    +0.000 A 
ENDROOT
BRANCH   4   6
ATOM      6  C   UNL     1       6.512   4.385  14.474  0.00  0.00    +0.000 A 
ATOM      7  C   UNL     1       5.893   3.521  13.559  0.00  0.00    +0.000 A 
ATOM      8  C   UNL     1       6.276   3.527  12.217  0.00  0.00    +0.000 A 
ATOM      9  C   UNL     1       7.281   4.386  11.780  0.00  0.00    +0.000 A 
ATOM     10  C   UNL     1       7.906   5.240  12.685  0.00  0.00    +0.000 A 
ATOM     11  C   UNL     1       7.525   5.246  14.030  0.00  0.00    +0.000 A 
ENDBRANCH   4   6
BRANCH   1  12
ATOM     12  C   UNL     1       3.921   3.655  18.727  0.00  0.00    +0.000 C 
BRANCH  12  17
ATOM     13  C   UNL     1       2.909   5.408  20.091  0.00  0.00    +0.000 C 
ATOM     14  C   UNL     1       2.125   4.572  21.085  0.00  0.00    +0.000 C 
ATOM     15  C   UNL     1       1.006   3.970  20.254  0.00  0.00    +0.000 C 
ATOM     16  C   UNL     1       1.491   4.025  18.812  0.00  0.00    +0.000 C 
ATOM     17  N   UNL     1       2.835   4.658  18.795  0.00  0.00    +0.000 NA
BRANCH  13  19
ATOM     18  O   UNL     1       2.227   7.407  18.832  0.00  0.00    +0.000 OA
ATOM     19  C   UNL     1       2.287   6.803  19.891  0.00  0.00    +0.000 C 
BRANCH  19  20
ATOM     20  O   UNL     1       1.756   7.280  21.048  0.00  0.00    +0.000 OA
ATOM     21  H   UNL     1       1.142   8.011  20.795  0.00  0.00    +0.000 HD
ENDBRANCH  19  20
ENDBRANCH  13  19
ENDBRANCH  12  17
ENDBRANCH   1  12
TORSDOF 5
ENDMDL
MODEL 7
REMARK VINA RESULT:      -7.2      2.077      2.440
REMARK  Name = 
REMARK  5 active torsions:
REMARK  status: ('A' for Active; 'I' for Inactive)
REMARK    1  A    between atoms: C_2  and  O_3
REMARK    2  A    between atoms: C_2  and  C_4
REMARK    3  A    between atoms: N_8  and  C_9
REMARK    4  A    between atoms: C_9  and  C_10
REMARK    5  A    between atoms: N_13  and  C_14
REMARK                            x       y       z     vdW  Elec       q    Type
REMARK                         _______ _______ _______ _____ _____    ______ ____
ROOT
ATOM      1  C   UNL     1       4.923   4.049  17.698  0.00  0.00    +0.000 A 
ATOM      2  C   UNL     1       6.261   4.432  17.917  0.00  0.00    +0.000 A 
ATOM      3  N   UNL     1       6.938   4.619  16.786  0.00  0.00    +0.000 NA
ATOM      4  N   UNL     1       6.044   4.352  15.797  0.00  0.00    +0.000 N 
ATOM      5  C   UNL     1       4.798   4.066  16.322  0.00  0.00    +0.000 A 
ENDROOT
BRANCH   4   6
ATOM      6  C   UNL     1       6.440   4.356  14.431  0.00  0.00    +0.000 A 
ATOM      7  C   UNL     1       7.457   5.227  14.012  0.00  0.00    +0.000 A 
ATOM      8  C   UNL     1       7.880   5.226  12.683  0.00  0.00    +0.000 A 
ATOM      9  C   UNL     1       7.289   4.366  11.761  0.00  0.00    +0.000 A 
ATOM     10  C   UNL     1       6.273   3.505  12.168  0.00  0.00    +0.000 A 
ATOM     11  C   UNL     1       5.846   3.494  13.499  0.00  0.00    +0.000 A 
ENDBRANCH   4   6
BRANCH   1  12
ATOM     12  C   UNL     1       3.921   3.659  18.733  0.00  0.00    +0.000 C 
BRANCH  12  17
ATOM     13  C   UNL     1       2.914   5.433  20.073  0.00  0.00    +0.000 C 
ATOM     14  C   UNL     1       2.137   4.612  21.085  0.00  0.00    +0.000 C 
ATOM     15  C   UNL     1       1.014   3.995  20.270  0.00  0.00    +0.000 C 
ATOM     16  C   UNL     1       1.491   4.026  18.825  0.00  0.00    +0.000 C 
ATOM     17  N   UNL     1       2.834   4.661  18.790  0.00  0.00    +0.000 NA
BRANCH  13  19
ATOM     18  O   UNL     1       2.220   7.409  18.784  0.00  0.00    +0.000 OA
ATOM     19  C   UNL     1       2.289   6.824  19.853  0.00  0.00    +0.000 C 
BRANCH  19  20
ATOM     20  O   UNL     1       1.765   7.320  21.005  0.00  0.00    +0.000 OA
ATOM     21  H   UNL     1       2.525   7.666  21.533  0.00  0.00    +0.000 HD
ENDBRANCH  19  20
ENDBRANCH  13  19
ENDBRANCH  12  17
ENDBRANCH   1  12
TORSDOF 5
ENDMDL
MODEL 8
REMARK VINA RESULT:      -7.2      1.125      1.583
REMARK  Name = 
REMARK  5 active torsions:
REMARK  status: ('A' for Active; 'I' for Inactive)
REMARK    1  A    between atoms: C_2  and  O_3
REMARK    2  A    between atoms: C_2  and  C_4
REMARK    3  A    between atoms: N_8  and  C_9
REMARK    4  A    between atoms: C_9  and  C_10
REMARK    5  A    between atoms: N_13  and  C_14
REMARK                            x       y       z     vdW  Elec       q    Type
REMARK                         _______ _______ _______ _____ _____    ______ ____
ROOT
ATOM      1  C   UNL     1       5.433   5.427  17.784  0.00  0.00    +0.000 A 
ATOM      2  C   UNL     1       6.728   4.895  17.937  0.00  0.00    +0.000 A 
ATOM      3  N   UNL     1       7.313   4.611  16.776  0.00  0.00    +0.000 NA
ATOM      4  N   UNL     1       6.396   4.951  15.832  0.00  0.00    +0.000 N 
ATOM      5  C   UNL     1       5.273   5.507  16.413  0.00  0.00    +0.000 A 
ENDROOT
BRANCH   4   6
ATOM      6  C   UNL     1       6.634   4.696  14.453  0.00  0.00    +0.000 A 
ATOM      7  C   UNL     1       7.630   5.422  13.782  0.00  0.00    +0.000 A 
ATOM      8  C   UNL     1       7.899   5.168  12.437  0.00  0.00    +0.000 A 
ATOM      9  C   UNL     1       7.175   4.197  11.749  0.00  0.00    +0.000 A 
ATOM     10  C   UNL     1       6.180   3.479  12.407  0.00  0.00    +0.000 A 
ATOM     11  C   UNL     1       5.907   3.721  13.756  0.00  0.00    +0.000 A 
ENDBRANCH   4   6
BRANCH   1  12
ATOM     12  C   UNL     1       4.463   5.754  18.869  0.00  0.00    +0.000 C 
BRANCH  12  17
ATOM     13  C   UNL     1       3.477   3.557  18.469  0.00  0.00    +0.000 C 
ATOM     14  C   UNL     1       2.026   3.939  18.243  0.00  0.00    +0.000 C 
ATOM     15  C   UNL     1       1.547   4.386  19.612  0.00  0.00    +0.000 C 
ATOM     16  C   UNL     1       2.805   4.756  20.386  0.00  0.00    +0.000 C 
ATOM     17  N   UNL     1       3.981   4.512  19.510  0.00  0.00    +0.000 NA
BRANCH  13  19
ATOM     18  O   UNL     1       4.434   1.752  19.837  0.00  0.00    +0.000 OA
ATOM     19  C   UNL     1       3.621   2.120  19.004  0.00  0.00    +0.000 C 
BRANCH  19  20
ATOM     20  O   UNL     1       2.684   1.295  18.466  0.00  0.00    +0.000 OA
ATOM     21  H   UNL     1       2.034   1.874  18.000  0.00  0.00    +0.000 HD
ENDBRANCH  19  20
ENDBRANCH  13  19
ENDBRANCH  12  17
ENDBRANCH   1  12
TORSDOF 5
ENDMDL
MODEL 9
REMARK VINA RESULT:      -7.0      1.116      1.266
REMARK  Name = 
REMARK  5 active torsions:
REMARK  status: ('A' for Active; 'I' for Inactive)
REMARK    1  A    between atoms: C_2  and  O_3
REMARK    2  A    between atoms: C_2  and  C_4
REMARK    3  A    between atoms: N_8  and  C_9
REMARK    4  A    between atoms: C_9  and  C_10
REMARK    5  A    between atoms: N_13  and  C_14
REMARK                            x       y       z     vdW  Elec       q    Type
REMARK                         _______ _______ _______ _____ _____    ______ ____
ROOT
ATOM      1  C   UNL     1       6.006   5.011  18.031  0.00  0.00    +0.000 A 
ATOM      2  C   UNL     1       7.383   4.717  17.971  0.00  0.00    +0.000 A 
ATOM      3  N   UNL     1       7.827   4.566  16.724  0.00  0.00    +0.000 NA
ATOM      4  N   UNL     1       6.732   4.756  15.940  0.00  0.00    +0.000 N 
ATOM      5  C   UNL     1       5.630   5.089  16.703  0.00  0.00    +0.000 A 
ENDROOT
BRANCH   4   6
ATOM      6  C   UNL     1       6.801   4.576  14.531  0.00  0.00    +0.000 A 
ATOM      7  C   UNL     1       7.713   5.338  13.785  0.00  0.00    +0.000 A 
ATOM      8  C   UNL     1       7.817   5.157  12.405  0.00  0.00    +0.000 A 
ATOM      9  C   UNL     1       7.008   4.225  11.759  0.00  0.00    +0.000 A 
ATOM     10  C   UNL     1       6.094   3.473  12.492  0.00  0.00    +0.000 A 
ATOM     11  C   UNL     1       5.988   3.642  13.876  0.00  0.00    +0.000 A 
ENDBRANCH   4   6
BRANCH   1  12
ATOM     12  C   UNL     1       5.170   5.136  19.259  0.00  0.00    +0.000 C 
BRANCH  12  17
ATOM     13  C   UNL     1       2.954   5.060  18.239  0.00  0.00    +0.000 C 
ATOM     14  C   UNL     1       2.186   5.981  19.169  0.00  0.00    +0.000 C 
ATOM     15  C   UNL     1       2.092   5.197  20.465  0.00  0.00    +0.000 C 
ATOM     16  C   UNL     1       3.219   4.175  20.408  0.00  0.00    +0.000 C 
ATOM     17  N   UNL     1       3.933   4.337  19.115  0.00  0.00    +0.000 NA
BRANCH  13  19
ATOM     18  O   UNL     1       0.850   4.178  17.322  0.00  0.00    +0.000 OA
ATOM     19  C   UNL     1       2.036   4.024  17.563  0.00  0.00    +0.000 C 
BRANCH  19  20
ATOM     20  O   UNL     1       2.725   2.906  17.213  0.00  0.00    +0.000 OA
ATOM     21  H   UNL     1       2.852   2.383  18.041  0.00  0.00    +0.000 HD
ENDBRANCH  19  20
ENDBRANCH  13  19
ENDBRANCH  12  17
ENDBRANCH   1  12
TORSDOF 5
ENDMDL
