MODEL 1
REMARK VINA RESULT:      -7.5      0.000      0.000
REMARK  Name = 
REMARK  5 active torsions:
REMARK  status: ('A' for Active; 'I' for Inactive)
REMARK    1  A    between atoms: C_1  and  O_2
REMARK    2  A    between atoms: O_2  and  C_3
REMARK    3  A    between atoms: C_6  and  C_7
REMARK    4  A    between atoms: C_14  and  C_15
REMARK    5  A    between atoms: C_20  and  C_21
REMARK                            x       y       z     vdW  Elec       q    Type
REMARK                         _______ _______ _______ _____ _____    ______ ____
ROOT
ATOM      1  C   UNL     1       5.020   4.260  19.031  0.00  0.00    +0.000 A 
ATOM      2  N   UNL     1       5.451   2.978  18.979  0.00  0.00    +0.000 NA
ATOM      3  O   UNL     1       4.476   2.194  19.580  0.00  0.00    +0.000 OA
ATOM      4  C   UNL     1       3.472   3.000  19.981  0.00  0.00    +0.000 A 
ATOM      5  C   UNL     1       3.755   4.300  19.649  0.00  0.00    +0.000 A 
ATOM      6  C   UNL     1       2.776   5.314  19.988  0.00  0.00    +0.000 A 
ATOM      7  N   UNL     1       2.805   6.613  19.567  0.00  0.00    +0.000 NA
ATOM      8  C   UNL     1       1.758   7.259  20.056  0.00  0.00    +0.000 A 
ATOM      9  S   UNL     1       0.654   6.252  20.960  0.00  0.00    +0.000 S 
ATOM     10  C   UNL     1       1.710   4.944  20.785  0.00  0.00    +0.000 A 
ATOM     11  C   UNL     1       1.540   3.593  21.439  0.00  0.00    +0.000 C 
ATOM     12  C   UNL     1       2.250   2.465  20.635  0.00  0.00    +0.000 C 
ENDROOT
BRANCH   8  13
ATOM     13  C   UNL     1       1.491   8.711  19.900  0.00  0.00    +0.000 A 
ATOM     14  C   UNL     1       1.030   9.464  21.003  0.00  0.00    +0.000 A 
ATOM     15  C   UNL     1       0.780  10.834  20.913  0.00  0.00    +0.000 A 
ATOM     16  C   UNL     1       1.001  11.495  19.715  0.00  0.00    +0.000 A 
ATOM     17  C   UNL     1       1.473  10.786  18.612  0.00  0.00    +0.000 A 
ATOM     18  C   UNL     1       1.718   9.399  18.683  0.00  0.00    +0.000 A 
ATOM     19  C   UNL     1       2.242   8.716  17.445  0.00  0.00    +0.000 C 
ENDBRANCH   8  13
BRANCH   1  23
ATOM     20  C   UNL     1       7.439   7.479  17.582  0.00  0.00    +0.000 A 
ATOM     21  C   UNL     1       7.885   6.673  18.632  0.00  0.00    +0.000 A 
ATOM     22  C   UNL     1       7.107   5.606  19.091  0.00  0.00    +0.000 A 
ATOM     23  C   UNL     1       5.857   5.340  18.515  0.00  0.00    +0.000 A 
ATOM     24  C   UNL     1       5.411   6.164  17.476  0.00  0.00    +0.000 A 
ATOM     25  C   UNL     1       6.198   7.220  17.005  0.00  0.00    +0.000 A 
BRANCH  20  27
ATOM     26  C   UNL     1       8.483   9.497  18.239  0.00  0.00    +0.000 C 
ATOM     27  O   UNL     1       8.274   8.506  17.241  0.00  0.00    +0.000 OA
ENDBRANCH  20  27
ENDBRANCH   1  23
TORSDOF 3
ENDMDL
MODEL 2
REMARK VINA RESULT:      -7.5      0.312      1.341
REMARK  Name = 
REMARK  5 active torsions:
REMARK  status: ('A' for Active; 'I' for Inactive)
REMARK    1  A    between atoms: C_1  and  O_2
REMARK    2  A    between atoms: O_2  and  C_3
REMARK    3  A    between atoms: C_6  and  C_7
REMARK    4  A    between atoms: C_14  and  C_15
REMARK    5  A    between atoms: C_20  and  C_21
REMARK                            x       y       z     vdW  Elec       q    Type
REMARK                         _______ _______ _______ _____ _____    ______ ____
ROOT
ATOM      1  C   UNL     1       5.058   4.280  19.046  0.00  0.00    +0.000 A 
ATOM      2  N   UNL     1       5.490   2.997  19.024  0.00  0.00    +0.000 NA
ATOM      3  O   UNL     1       4.501   2.223  19.614  0.00  0.00    +0.000 OA
ATOM      4  C   UNL     1       3.488   3.034  19.978  0.00  0.00    +0.000 A 
ATOM      5  C   UNL     1       3.778   4.329  19.633  0.00  0.00    +0.000 A 
ATOM      6  C   UNL     1       2.792   5.348  19.933  0.00  0.00    +0.000 A 
ATOM      7  N   UNL     1       2.831   6.641  19.492  0.00  0.00    +0.000 NA
ATOM      8  C   UNL     1       1.772   7.294  19.946  0.00  0.00    +0.000 A 
ATOM      9  S   UNL     1       0.647   6.301  20.838  0.00  0.00    +0.000 S 
ATOM     10  C   UNL     1       1.707   4.991  20.710  0.00  0.00    +0.000 A 
ATOM     11  C   UNL     1       1.521   3.650  21.380  0.00  0.00    +0.000 C 
ATOM     12  C   UNL     1       2.250   2.510  20.611  0.00  0.00    +0.000 C 
ENDROOT
BRANCH   8  13
ATOM     13  C   UNL     1       1.509   8.744  19.760  0.00  0.00    +0.000 A 
ATOM     14  C   UNL     1       1.563   9.308  18.466  0.00  0.00    +0.000 A 
ATOM     15  C   UNL     1       1.308  10.660  18.237  0.00  0.00    +0.000 A 
ATOM     16  C   UNL     1       0.975  11.487  19.299  0.00  0.00    +0.000 A 
ATOM     17  C   UNL     1       0.896  10.959  20.586  0.00  0.00    +0.000 A 
ATOM     18  C   UNL     1       1.163   9.596  20.837  0.00  0.00    +0.000 A 
ATOM     19  C   UNL     1       1.039   9.109  22.257  0.00  0.00    +0.000 C 
ENDBRANCH   8  13
BRANCH   1  23
ATOM     20  C   UNL     1       7.510   7.477  17.605  0.00  0.00    +0.000 A 
ATOM     21  C   UNL     1       7.925   6.696  18.685  0.00  0.00    +0.000 A 
ATOM     22  C   UNL     1       7.137   5.636  19.142  0.00  0.00    +0.000 A 
ATOM     23  C   UNL     1       5.907   5.352  18.533  0.00  0.00    +0.000 A 
ATOM     24  C   UNL     1       5.491   6.152  17.463  0.00  0.00    +0.000 A 
ATOM     25  C   UNL     1       6.289   7.201  16.994  0.00  0.00    +0.000 A 
BRANCH  20  27
ATOM     26  C   UNL     1       8.531   9.510  18.252  0.00  0.00    +0.000 C 
ATOM     27  O   UNL     1       8.352   8.500  17.268  0.00  0.00    +0.000 OA
ENDBRANCH  20  27
ENDBRANCH   1  23
TORSDOF 3
ENDMDL
MODEL 3
REMARK VINA RESULT:      -7.1      5.058      8.801
REMARK  Name = 
REMARK  5 active torsions:
REMARK  status: ('A' for Active; 'I' for Inactive)
REMARK    1  A    between atoms: C_1  and  O_2
REMARK    2  A    between atoms: O_2  and  C_3
REMARK    3  A    between atoms: C_6  and  C_7
REMARK    4  A    between atoms: C_14  and  C_15
REMARK    5  A    between atoms: C_20  and  C_21
REMARK                            x       y       z     vdW  Elec       q    Type
REMARK                         _______ _______ _______ _____ _____    ______ ____
ROOT
ATOM      1  C   UNL     1      -2.756  11.903  19.494  0.00  0.00    +0.000 A 
ATOM      2  N   UNL     1      -3.588  12.909  19.855  0.00  0.00    +0.000 NA
ATOM      3  O   UNL     1      -3.296  13.228  21.174  0.00  0.00    +0.000 OA
ATOM      4  C   UNL     1      -2.297  12.426  21.593  0.00  0.00    +0.000 A 
ATOM      5  C   UNL     1      -1.913  11.588  20.578  0.00  0.00    +0.000 A 
ATOM      6  C   UNL     1      -0.831  10.659  20.840  0.00  0.00    +0.000 A 
ATOM      7  N   UNL     1      -0.200   9.896  19.899  0.00  0.00    +0.000 NA
ATOM      8  C   UNL     1       0.742   9.168  20.481  0.00  0.00    +0.000 A 
ATOM      9  S   UNL     1       0.941   9.487  22.186  0.00  0.00    +0.000 S 
ATOM     10  C   UNL     1      -0.380  10.540  22.140  0.00  0.00    +0.000 A 
ATOM     11  C   UNL     1      -1.002  11.211  23.342  0.00  0.00    +0.000 C 
ATOM     12  C   UNL     1      -1.723  12.536  22.958  0.00  0.00    +0.000 C 
ENDROOT
BRANCH   8  13
ATOM     13  C   UNL     1       1.580   8.144  19.806  0.00  0.00    +0.000 A 
ATOM     14  C   UNL     1       1.785   6.888  20.420  0.00  0.00    +0.000 A 
ATOM     15  C   UNL     1       2.550   5.887  19.820  0.00  0.00    +0.000 A 
ATOM     16  C   UNL     1       3.120   6.111  18.577  0.00  0.00    +0.000 A 
ATOM     17  C   UNL     1       2.923   7.332  17.936  0.00  0.00    +0.000 A 
ATOM     18  C   UNL     1       2.163   8.359  18.534  0.00  0.00    +0.000 A 
ATOM     19  C   UNL     1       1.990   9.642  17.762  0.00  0.00    +0.000 C 
ENDBRANCH   8  13
BRANCH   1  23
ATOM     20  C   UNL     1      -2.986  10.228  15.564  0.00  0.00    +0.000 A 
ATOM     21  C   UNL     1      -1.908   9.931  16.399  0.00  0.00    +0.000 A 
ATOM     22  C   UNL     1      -1.843  10.458  17.692  0.00  0.00    +0.000 A 
ATOM     23  C   UNL     1      -2.851  11.309  18.164  0.00  0.00    +0.000 A 
ATOM     24  C   UNL     1      -3.919  11.616  17.313  0.00  0.00    +0.000 A 
ATOM     25  C   UNL     1      -3.993  11.073  16.025  0.00  0.00    +0.000 A 
BRANCH  20  27
ATOM     26  C   UNL     1      -4.011   9.976  13.447  0.00  0.00    +0.000 C 
ATOM     27  O   UNL     1      -2.924   9.677  14.314  0.00  0.00    +0.000 OA
ENDBRANCH  20  27
ENDBRANCH   1  23
TORSDOF 3
ENDMDL
MODEL 4
REMARK VINA RESULT:      -7.0      6.293     10.019
REMARK  Name = 
REMARK  5 active torsions:
REMARK  status: ('A' for Active; 'I' for Inactive)
REMARK    1  A    between atoms: C_1  and  O_2
REMARK    2  A    between atoms: O_2  and  C_3
REMARK    3  A    between atoms: C_6  and  C_7
REMARK    4  A    between atoms: C_14  and  C_15
REMARK    5  A    between atoms: C_20  and  C_21
REMARK                            x       y       z     vdW  Elec       q    Type
REMARK                         _______ _______ _______ _____ _____    ______ ____
ROOT
ATOM      1  C   UNL     1      10.620  14.169  19.007  0.00  0.00    +0.000 A 
ATOM      2  N   UNL     1      11.940  14.469  18.974  0.00  0.00    +0.000 NA
ATOM      3  O   UNL     1      12.043  15.853  18.924  0.00  0.00    +0.000 OA
ATOM      4  C   UNL     1      10.799  16.372  18.933  0.00  0.00    +0.000 A 
ATOM      5  C   UNL     1       9.872  15.363  18.999  0.00  0.00    +0.000 A 
ATOM      6  C   UNL     1       8.471  15.732  19.035  0.00  0.00    +0.000 A 
ATOM      7  N   UNL     1       7.435  14.879  19.291  0.00  0.00    +0.000 NA
ATOM      8  C   UNL     1       6.292  15.548  19.253  0.00  0.00    +0.000 A 
ATOM      9  S   UNL     1       6.478  17.267  19.007  0.00  0.00    +0.000 S 
ATOM     10  C   UNL     1       8.143  17.056  18.814  0.00  0.00    +0.000 A 
ATOM     11  C   UNL     1       9.118  18.138  18.415  0.00  0.00    +0.000 C 
ATOM     12  C   UNL     1      10.559  17.837  18.922  0.00  0.00    +0.000 C 
ENDROOT
BRANCH   8  13
ATOM     13  C   UNL     1       4.939  14.951  19.387  0.00  0.00    +0.000 A 
ATOM     14  C   UNL     1       4.224  14.565  18.232  0.00  0.00    +0.000 A 
ATOM     15  C   UNL     1       2.957  13.985  18.305  0.00  0.00    +0.000 A 
ATOM     16  C   UNL     1       2.375  13.760  19.542  0.00  0.00    +0.000 A 
ATOM     17  C   UNL     1       3.060  14.113  20.702  0.00  0.00    +0.000 A 
ATOM     18  C   UNL     1       4.336  14.712  20.646  0.00  0.00    +0.000 A 
ATOM     19  C   UNL     1       5.011  15.047  21.951  0.00  0.00    +0.000 C 
ENDBRANCH   8  13
BRANCH   1  23
ATOM     20  C   UNL     1       9.250  10.116  19.035  0.00  0.00    +0.000 A 
ATOM     21  C   UNL     1       9.348  10.823  17.836  0.00  0.00    +0.000 A 
ATOM     22  C   UNL     1       9.819  12.139  17.822  0.00  0.00    +0.000 A 
ATOM     23  C   UNL     1      10.181  12.776  19.016  0.00  0.00    +0.000 A 
ATOM     24  C   UNL     1      10.062  12.066  20.216  0.00  0.00    +0.000 A 
ATOM     25  C   UNL     1       9.609  10.742  20.227  0.00  0.00    +0.000 A 
BRANCH  20  27
ATOM     26  C   UNL     1       7.941   8.593  17.785  0.00  0.00    +0.000 C 
ATOM     27  O   UNL     1       8.752   8.847  18.926  0.00  0.00    +0.000 OA
ENDBRANCH  20  27
ENDBRANCH   1  23
TORSDOF 3
ENDMDL
MODEL 5
REMARK VINA RESULT:      -7.0      7.980     12.513
REMARK  Name = 
REMARK  5 active torsions:
REMARK  status: ('A' for Active; 'I' for Inactive)
REMARK    1  A    between atoms: C_1  and  O_2
REMARK    2  A    between atoms: O_2  and  C_3
REMARK    3  A    between atoms: C_6  and  C_7
REMARK    4  A    between atoms: C_14  and  C_15
REMARK    5  A    between atoms: C_20  and  C_21
REMARK                            x       y       z     vdW  Elec       q    Type
REMARK                         _______ _______ _______ _____ _____    ______ ____
ROOT
ATOM      1  C   UNL     1      -6.257  14.281  21.959  0.00  0.00    +0.000 A 
ATOM      2  N   UNL     1      -7.187  15.260  22.057  0.00  0.00    +0.000 NA
ATOM      3  O   UNL     1      -6.598  16.317  22.738  0.00  0.00    +0.000 OA
ATOM      4  C   UNL     1      -5.329  15.974  23.037  0.00  0.00    +0.000 A 
ATOM      5  C   UNL     1      -5.059  14.717  22.560  0.00  0.00    +0.000 A 
ATOM      6  C   UNL     1      -3.729  14.182  22.774  0.00  0.00    +0.000 A 
ATOM      7  N   UNL     1      -3.235  13.042  22.207  0.00  0.00    +0.000 NA
ATOM      8  C   UNL     1      -1.988  12.852  22.612  0.00  0.00    +0.000 A 
ATOM      9  S   UNL     1      -1.360  14.135  23.617  0.00  0.00    +0.000 S 
ATOM     10  C   UNL     1      -2.874  14.884  23.601  0.00  0.00    +0.000 A 
ATOM     11  C   UNL     1      -3.249  16.108  24.404  0.00  0.00    +0.000 C 
ATOM     12  C   UNL     1      -4.409  16.905  23.739  0.00  0.00    +0.000 C 
ENDROOT
BRANCH   8  13
ATOM     13  C   UNL     1      -1.147  11.672  22.288  0.00  0.00    +0.000 A 
ATOM     14  C   UNL     1      -1.073  10.592  23.196  0.00  0.00    +0.000 A 
ATOM     15  C   UNL     1      -0.310   9.454  22.932  0.00  0.00    +0.000 A 
ATOM     16  C   UNL     1       0.390   9.357  21.739  0.00  0.00    +0.000 A 
ATOM     17  C   UNL     1       0.325  10.397  20.815  0.00  0.00    +0.000 A 
ATOM     18  C   UNL     1      -0.431  11.560  21.071  0.00  0.00    +0.000 A 
ATOM     19  C   UNL     1      -0.457  12.627  20.008  0.00  0.00    +0.000 C 
ENDBRANCH   8  13
BRANCH   1  23
ATOM     20  C   UNL     1      -7.175  10.508  20.161  0.00  0.00    +0.000 A 
ATOM     21  C   UNL     1      -7.762  10.878  21.372  0.00  0.00    +0.000 A 
ATOM     22  C   UNL     1      -7.482  12.121  21.949  0.00  0.00    +0.000 A 
ATOM     23  C   UNL     1      -6.592  13.007  21.329  0.00  0.00    +0.000 A 
ATOM     24  C   UNL     1      -5.993  12.620  20.124  0.00  0.00    +0.000 A 
ATOM     25  C   UNL     1      -6.288  11.384  19.538  0.00  0.00    +0.000 A 
BRANCH  20  27
ATOM     26  C   UNL     1      -7.878   8.317  20.707  0.00  0.00    +0.000 C 
ATOM     27  O   UNL     1      -7.504   9.260  19.711  0.00  0.00    +0.000 OA
ENDBRANCH  20  27
ENDBRANCH   1  23
TORSDOF 3
ENDMDL
MODEL 6
REMARK VINA RESULT:      -6.9      7.424     10.082
REMARK  Name = 
REMARK  5 active torsions:
REMARK  status: ('A' for Active; 'I' for Inactive)
REMARK    1  A    between atoms: C_1  and  O_2
REMARK    2  A    between atoms: O_2  and  C_3
REMARK    3  A    between atoms: C_6  and  C_7
REMARK    4  A    between atoms: C_14  and  C_15
REMARK    5  A    between atoms: C_20  and  C_21
REMARK                            x       y       z     vdW  Elec       q    Type
REMARK                         _______ _______ _______ _____ _____    ______ ____
ROOT
ATOM      1  C   UNL     1      -4.383  11.895  19.275  0.00  0.00    +0.000 A 
ATOM      2  N   UNL     1      -5.647  11.619  19.674  0.00  0.00    +0.000 NA
ATOM      3  O   UNL     1      -5.811  12.180  20.933  0.00  0.00    +0.000 OA
ATOM      4  C   UNL     1      -4.659  12.789  21.279  0.00  0.00    +0.000 A 
ATOM      5  C   UNL     1      -3.737  12.653  20.272  0.00  0.00    +0.000 A 
ATOM      6  C   UNL     1      -2.435  13.262  20.459  0.00  0.00    +0.000 A 
ATOM      7  N   UNL     1      -1.476  13.389  19.494  0.00  0.00    +0.000 NA
ATOM      8  C   UNL     1      -0.416  13.998  20.004  0.00  0.00    +0.000 A 
ATOM      9  S   UNL     1      -0.618  14.523  21.657  0.00  0.00    +0.000 S 
ATOM     10  C   UNL     1      -2.134  13.778  21.704  0.00  0.00    +0.000 A 
ATOM     11  C   UNL     1      -3.006  13.653  22.932  0.00  0.00    +0.000 C 
ATOM     12  C   UNL     1      -4.512  13.520  22.563  0.00  0.00    +0.000 C 
ENDROOT
BRANCH   8  13
ATOM     13  C   UNL     1       0.867  14.233  19.294  0.00  0.00    +0.000 A 
ATOM     14  C   UNL     1       1.299  15.554  19.043  0.00  0.00    +0.000 A 
ATOM     15  C   UNL     1       2.504  15.828  18.394  0.00  0.00    +0.000 A 
ATOM     16  C   UNL     1       3.321  14.783  17.991  0.00  0.00    +0.000 A 
ATOM     17  C   UNL     1       2.932  13.469  18.239  0.00  0.00    +0.000 A 
ATOM     18  C   UNL     1       1.712  13.174  18.882  0.00  0.00    +0.000 A 
ATOM     19  C   UNL     1       1.380  11.724  19.123  0.00  0.00    +0.000 C 
ENDBRANCH   8  13
BRANCH   1  23
ATOM     20  C   UNL     1      -2.986  10.354  15.536  0.00  0.00    +0.000 A 
ATOM     21  C   UNL     1      -4.121  11.166  15.589  0.00  0.00    +0.000 A 
ATOM     22  C   UNL     1      -4.565  11.690  16.807  0.00  0.00    +0.000 A 
ATOM     23  C   UNL     1      -3.887  11.393  17.997  0.00  0.00    +0.000 A 
ATOM     24  C   UNL     1      -2.762  10.564  17.936  0.00  0.00    +0.000 A 
ATOM     25  C   UNL     1      -2.307  10.054  16.715  0.00  0.00    +0.000 A 
BRANCH  20  27
ATOM     26  C   UNL     1      -3.714   9.893  13.333  0.00  0.00    +0.000 C 
ATOM     27  O   UNL     1      -2.666   9.880  14.294  0.00  0.00    +0.000 OA
ENDBRANCH  20  27
ENDBRANCH   1  23
TORSDOF 3
ENDMDL
MODEL 7
REMARK VINA RESULT:      -6.9      7.479     12.086
REMARK  Name = 
REMARK  5 active torsions:
REMARK  status: ('A' for Active; 'I' for Inactive)
REMARK    1  A    between atoms: C_1  and  O_2
REMARK    2  A    between atoms: O_2  and  C_3
REMARK    3  A    between atoms: C_6  and  C_7
REMARK    4  A    between atoms: C_14  and  C_15
REMARK    5  A    between atoms: C_20  and  C_21
REMARK                            x       y       z     vdW  Elec       q    Type
REMARK                         _______ _______ _______ _____ _____    ______ ____
ROOT
ATOM      1  C   UNL     1      -5.567  14.433  20.298  0.00  0.00    +0.000 A 
ATOM      2  N   UNL     1      -6.371  15.491  20.035  0.00  0.00    +0.000 NA
ATOM      3  O   UNL     1      -5.708  16.628  20.478  0.00  0.00    +0.000 OA
ATOM      4  C   UNL     1      -4.520  16.252  20.993  0.00  0.00    +0.000 A 
ATOM      5  C   UNL     1      -4.376  14.892  20.893  0.00  0.00    +0.000 A 
ATOM      6  C   UNL     1      -3.145  14.303  21.383  0.00  0.00    +0.000 A 
ATOM      7  N   UNL     1      -2.756  13.008  21.190  0.00  0.00    +0.000 NA
ATOM      8  C   UNL     1      -1.579  12.810  21.764  0.00  0.00    +0.000 A 
ATOM      9  S   UNL     1      -0.875  14.247  22.464  0.00  0.00    +0.000 S 
ATOM     10  C   UNL     1      -2.275  15.113  22.087  0.00  0.00    +0.000 A 
ATOM     11  C   UNL     1      -2.554  16.540  22.498  0.00  0.00    +0.000 C 
ATOM     12  C   UNL     1      -3.548  17.240  21.525  0.00  0.00    +0.000 C 
ENDROOT
BRANCH   8  13
ATOM     13  C   UNL     1      -0.872  11.508  21.854  0.00  0.00    +0.000 A 
ATOM     14  C   UNL     1      -0.943  10.750  23.044  0.00  0.00    +0.000 A 
ATOM     15  C   UNL     1      -0.310   9.513  23.173  0.00  0.00    +0.000 A 
ATOM     16  C   UNL     1       0.401   8.990  22.104  0.00  0.00    +0.000 A 
ATOM     17  C   UNL     1       0.476   9.703  20.910  0.00  0.00    +0.000 A 
ATOM     18  C   UNL     1      -0.147  10.961  20.767  0.00  0.00    +0.000 A 
ATOM     19  C   UNL     1      -0.027  11.654  19.434  0.00  0.00    +0.000 C 
ENDBRANCH   8  13
BRANCH   1  23
ATOM     20  C   UNL     1      -6.800  10.427  19.441  0.00  0.00    +0.000 A 
ATOM     21  C   UNL     1      -7.254  11.078  20.589  0.00  0.00    +0.000 A 
ATOM     22  C   UNL     1      -6.872  12.395  20.858  0.00  0.00    +0.000 A 
ATOM     23  C   UNL     1      -6.011  13.077  19.988  0.00  0.00    +0.000 A 
ATOM     24  C   UNL     1      -5.546  12.409  18.849  0.00  0.00    +0.000 A 
ATOM     25  C   UNL     1      -5.944  11.097  18.570  0.00  0.00    +0.000 A 
BRANCH  20  27
ATOM     26  C   UNL     1      -7.547   8.449  20.504  0.00  0.00    +0.000 C 
ATOM     27  O   UNL     1      -7.220   9.133  19.300  0.00  0.00    +0.000 OA
ENDBRANCH  20  27
ENDBRANCH   1  23
TORSDOF 3
ENDMDL
MODEL 8
REMARK VINA RESULT:      -6.8      7.685     11.362
REMARK  Name = 
REMARK  5 active torsions:
REMARK  status: ('A' for Active; 'I' for Inactive)
REMARK    1  A    between atoms: C_1  and  O_2
REMARK    2  A    between atoms: O_2  and  C_3
REMARK    3  A    between atoms: C_6  and  C_7
REMARK    4  A    between atoms: C_14  and  C_15
REMARK    5  A    between atoms: C_20  and  C_21
REMARK                            x       y       z     vdW  Elec       q    Type
REMARK                         _______ _______ _______ _____ _____    ______ ____
ROOT
ATOM      1  C   UNL     1      -5.935  12.761  21.782  0.00  0.00    +0.000 A 
ATOM      2  N   UNL     1      -7.249  12.536  22.022  0.00  0.00    +0.000 NA
ATOM      3  O   UNL     1      -7.760  11.880  20.911  0.00  0.00    +0.000 OA
ATOM      4  C   UNL     1      -6.762  11.711  20.021  0.00  0.00    +0.000 A 
ATOM      5  C   UNL     1      -5.596  12.232  20.521  0.00  0.00    +0.000 A 
ATOM      6  C   UNL     1      -4.402  12.127  19.706  0.00  0.00    +0.000 A 
ATOM      7  N   UNL     1      -3.133  12.413  20.122  0.00  0.00    +0.000 NA
ATOM      8  C   UNL     1      -2.284  12.202  19.128  0.00  0.00    +0.000 A 
ATOM      9  S   UNL     1      -3.019  11.541  17.689  0.00  0.00    +0.000 S 
ATOM     10  C   UNL     1      -4.542  11.681  18.406  0.00  0.00    +0.000 A 
ATOM     11  C   UNL     1      -5.859  11.408  17.717  0.00  0.00    +0.000 C 
ATOM     12  C   UNL     1      -6.971  11.007  18.730  0.00  0.00    +0.000 C 
ENDROOT
BRANCH   8  13
ATOM     13  C   UNL     1      -0.828  12.491  19.162  0.00  0.00    +0.000 A 
ATOM     14  C   UNL     1      -0.357  13.770  18.790  0.00  0.00    +0.000 A 
ATOM     15  C   UNL     1       0.999  14.097  18.821  0.00  0.00    +0.000 A 
ATOM     16  C   UNL     1       1.925  13.154  19.240  0.00  0.00    +0.000 A 
ATOM     17  C   UNL     1       1.492  11.888  19.630  0.00  0.00    +0.000 A 
ATOM     18  C   UNL     1       0.126  11.537  19.594  0.00  0.00    +0.000 A 
ATOM     19  C   UNL     1      -0.253  10.151  20.048  0.00  0.00    +0.000 C 
ENDBRANCH   8  13
BRANCH   1  23
ATOM     20  C   UNL     1      -3.485  14.879  24.578  0.00  0.00    +0.000 A 
ATOM     21  C   UNL     1      -4.195  15.568  23.594  0.00  0.00    +0.000 A 
ATOM     22  C   UNL     1      -5.015  14.880  22.695  0.00  0.00    +0.000 A 
ATOM     23  C   UNL     1      -5.122  13.485  22.756  0.00  0.00    +0.000 A 
ATOM     24  C   UNL     1      -4.392  12.801  23.734  0.00  0.00    +0.000 A 
ATOM     25  C   UNL     1      -3.586  13.491  24.646  0.00  0.00    +0.000 A 
BRANCH  20  27
ATOM     26  C   UNL     1      -1.300  15.612  25.114  0.00  0.00    +0.000 C 
ATOM     27  O   UNL     1      -2.696  15.657  25.380  0.00  0.00    +0.000 OA
ENDBRANCH  20  27
ENDBRANCH   1  23
TORSDOF 3
ENDMDL
MODEL 9
REMARK VINA RESULT:      -6.7      7.113      9.889
REMARK  Name = 
REMARK  5 active torsions:
REMARK  status: ('A' for Active; 'I' for Inactive)
REMARK    1  A    between atoms: C_1  and  O_2
REMARK    2  A    between atoms: O_2  and  C_3
REMARK    3  A    between atoms: C_6  and  C_7
REMARK    4  A    between atoms: C_14  and  C_15
REMARK    5  A    between atoms: C_20  and  C_21
REMARK                            x       y       z     vdW  Elec       q    Type
REMARK                         _______ _______ _______ _____ _____    ______ ____
ROOT
ATOM      1  C   UNL     1      -3.024  11.523  18.088  0.00  0.00    +0.000 A 
ATOM      2  N   UNL     1      -3.287  10.870  16.932  0.00  0.00    +0.000 NA
ATOM      3  O   UNL     1      -4.667  10.756  16.832  0.00  0.00    +0.000 OA
ATOM      4  C   UNL     1      -5.220  11.339  17.914  0.00  0.00    +0.000 A 
ATOM      5  C   UNL     1      -4.238  11.848  18.725  0.00  0.00    +0.000 A 
ATOM      6  C   UNL     1      -4.646  12.532  19.936  0.00  0.00    +0.000 A 
ATOM      7  N   UNL     1      -3.823  13.257  20.750  0.00  0.00    +0.000 NA
ATOM      8  C   UNL     1      -4.524  13.749  21.761  0.00  0.00    +0.000 A 
ATOM      9  S   UNL     1      -6.236  13.418  21.672  0.00  0.00    +0.000 S 
ATOM     10  C   UNL     1      -5.978  12.469  20.298  0.00  0.00    +0.000 A 
ATOM     11  C   UNL     1      -7.032  11.642  19.599  0.00  0.00    +0.000 C 
ATOM     12  C   UNL     1      -6.692  11.419  18.097  0.00  0.00    +0.000 C 
ENDROOT
BRANCH   8  13
ATOM     13  C   UNL     1      -3.965  14.512  22.906  0.00  0.00    +0.000 A 
ATOM     14  C   UNL     1      -3.696  15.892  22.766  0.00  0.00    +0.000 A 
ATOM     15  C   UNL     1      -3.187  16.656  23.817  0.00  0.00    +0.000 A 
ATOM     16  C   UNL     1      -2.947  16.062  25.046  0.00  0.00    +0.000 A 
ATOM     17  C   UNL     1      -3.218  14.707  25.222  0.00  0.00    +0.000 A 
ATOM     18  C   UNL     1      -3.721  13.917  24.167  0.00  0.00    +0.000 A 
ATOM     19  C   UNL     1      -3.999  12.464  24.453  0.00  0.00    +0.000 C 
ENDBRANCH   8  13
BRANCH   1  23
ATOM     20  C   UNL     1       1.048  12.186  19.225  0.00  0.00    +0.000 A 
ATOM     21  C   UNL     1       0.322  13.185  18.573  0.00  0.00    +0.000 A 
ATOM     22  C   UNL     1      -1.015  12.979  18.222  0.00  0.00    +0.000 A 
ATOM     23  C   UNL     1      -1.644  11.758  18.504  0.00  0.00    +0.000 A 
ATOM     24  C   UNL     1      -0.903  10.757  19.142  0.00  0.00    +0.000 A 
ATOM     25  C   UNL     1       0.430  10.970  19.509  0.00  0.00    +0.000 A 
BRANCH  20  27
ATOM     26  C   UNL     1       2.567  13.575  20.391  0.00  0.00    +0.000 C 
ATOM     27  O   UNL     1       2.353  12.494  19.492  0.00  0.00    +0.000 OA
ENDBRANCH  20  27
ENDBRANCH   1  23
TORSDOF 3
ENDMDL
