MODEL 1
REMARK VINA RESULT:      -6.2      0.000      0.000
REMARK  Name = 
REMARK  6 active torsions:
REMARK  status: ('A' for Active; 'I' for Inactive)
REMARK    1  A    between atoms: C_1  and  C_2
REMARK    2  A    between atoms: C_2  and  C_3
REMARK    3  A    between atoms: C_2  and  C_4
REMARK    4  A    between atoms: C_2  and  C_5
REMARK    5  A    between atoms: C_5  and  N_6
REMARK    6  A    between atoms: C_10  and  C_11
REMARK                            x       y       z     vdW  Elec       q    Type
REMARK                         _______ _______ _______ _____ _____    ______ ____
ROOT
ATOM      1  N   UNL     1       8.305   9.647  17.938  0.00  0.00    +0.000 N 
ATOM      2  C   UNL     1       8.031   8.334  17.987  0.00  0.00    +0.000 A 
ATOM      3  N   UNL     1       8.430   7.435  18.890  0.00  0.00    +0.000 NA
ATOM      4  O   UNL     1       7.874   6.246  18.427  0.00  0.00    +0.000 OA
ATOM      5  C   UNL     1       7.174   6.550  17.283  0.00  0.00    +0.000 A 
ATOM      6  N   UNL     1       7.265   7.828  16.982  0.00  0.00    +0.000 NA
ATOM      7  H   UNL     1       8.164  10.081  17.035  0.00  0.00    +0.000 HD
ENDROOT
BRANCH   5   8
ATOM      8  C   UNL     1       6.454   5.571  16.514  0.00  0.00    +0.000 A 
ATOM      9  S   UNL     1       7.164   4.905  15.092  0.00  0.00    +0.000 S 
ATOM     10  C   UNL     1       5.798   3.929  14.769  0.00  0.00    +0.000 A 
ATOM     11  C   UNL     1       4.818   4.087  15.723  0.00  0.00    +0.000 A 
ATOM     12  C   UNL     1       5.200   5.027  16.722  0.00  0.00    +0.000 A 
ATOM     13 BR   UNL     1       4.011   5.397  18.147  0.00  0.00    +0.000 Br
ENDBRANCH   5   8
BRANCH   1  14
ATOM     14  C   UNL     1       9.325  10.215  18.802  0.00  0.00    +0.000 C 
BRANCH  14  16
ATOM     15  C   UNL     1       8.509  12.305  17.605  0.00  0.00    +0.000 C 
ATOM     16  C   UNL     1       9.626  11.698  18.469  0.00  0.00    +0.000 C 
ATOM     17  C   UNL     1      10.979  11.840  17.748  0.00  0.00    +0.000 C 
ATOM     18  C   UNL     1       9.701  12.485  19.792  0.00  0.00    +0.000 C 
ENDBRANCH  14  16
ENDBRANCH   1  14
TORSDOF 3
ENDMDL
MODEL 2
REMARK VINA RESULT:      -6.2      0.388      1.118
REMARK  Name = 
REMARK  6 active torsions:
REMARK  status: ('A' for Active; 'I' for Inactive)
REMARK    1  A    between atoms: C_1  and  C_2
REMARK    2  A    between atoms: C_2  and  C_3
REMARK    3  A    between atoms: C_2  and  C_4
REMARK    4  A    between atoms: C_2  and  C_5
REMARK    5  A    between atoms: C_5  and  N_6
REMARK    6  A    between atoms: C_10  and  C_11
REMARK                            x       y       z     vdW  Elec       q    Type
REMARK                         _______ _______ _______ _____ _____    ______ ____
ROOT
ATOM      1  N   UNL     1       8.231   9.489  17.949  0.00  0.00    +0.000 N 
ATOM      2  C   UNL     1       7.980   8.170  17.951  0.00  0.00    +0.000 A 
ATOM      3  N   UNL     1       8.329   7.258  18.862  0.00  0.00    +0.000 NA
ATOM      4  O   UNL     1       7.831   6.071  18.336  0.00  0.00    +0.000 OA
ATOM      5  C   UNL     1       7.211   6.386  17.150  0.00  0.00    +0.000 A 
ATOM      6  N   UNL     1       7.300   7.672  16.882  0.00  0.00    +0.000 NA
ATOM      7  H   UNL     1       8.149   9.939  17.047  0.00  0.00    +0.000 HD
ENDROOT
BRANCH   5   8
ATOM      8  C   UNL     1       6.569   5.412  16.310  0.00  0.00    +0.000 A 
ATOM      9  S   UNL     1       7.153   5.138  14.712  0.00  0.00    +0.000 S 
ATOM     10  C   UNL     1       5.955   3.962  14.388  0.00  0.00    +0.000 A 
ATOM     11  C   UNL     1       5.127   3.763  15.470  0.00  0.00    +0.000 A 
ATOM     12  C   UNL     1       5.486   4.594  16.569  0.00  0.00    +0.000 A 
ATOM     13 BR   UNL     1       4.491   4.482  18.176  0.00  0.00    +0.000 Br
ENDBRANCH   5   8
BRANCH   1  14
ATOM     14  C   UNL     1       9.174  10.055  18.897  0.00  0.00    +0.000 C 
BRANCH  14  16
ATOM     15  C   UNL     1       9.661  12.360  19.855  0.00  0.00    +0.000 C 
ATOM     16  C   UNL     1       9.535  11.526  18.569  0.00  0.00    +0.000 C 
ATOM     17  C   UNL     1       8.485  12.160  17.638  0.00  0.00    +0.000 C 
ATOM     18  C   UNL     1      10.894  11.540  17.843  0.00  0.00    +0.000 C 
ENDBRANCH  14  16
ENDBRANCH   1  14
TORSDOF 3
ENDMDL
MODEL 3
REMARK VINA RESULT:      -5.9      5.826      6.759
REMARK  Name = 
REMARK  6 active torsions:
REMARK  status: ('A' for Active; 'I' for Inactive)
REMARK    1  A    between atoms: C_1  and  C_2
REMARK    2  A    between atoms: C_2  and  C_3
REMARK    3  A    between atoms: C_2  and  C_4
REMARK    4  A    between atoms: C_2  and  C_5
REMARK    5  A    between atoms: C_5  and  N_6
REMARK    6  A    between atoms: C_10  and  C_11
REMARK                            x       y       z     vdW  Elec       q    Type
REMARK                         _______ _______ _______ _____ _____    ______ ____
ROOT
ATOM      1  N   UNL     1       1.515  10.192  17.800  0.00  0.00    +0.000 N 
ATOM      2  C   UNL     1       1.943   9.007  18.265  0.00  0.00    +0.000 A 
ATOM      3  N   UNL     1       1.812   8.499  19.492  0.00  0.00    +0.000 NA
ATOM      4  O   UNL     1       2.461   7.272  19.404  0.00  0.00    +0.000 OA
ATOM      5  C   UNL     1       2.914   7.150  18.111  0.00  0.00    +0.000 A 
ATOM      6  N   UNL     1       2.619   8.212  17.391  0.00  0.00    +0.000 NA
ATOM      7  H   UNL     1       1.966  10.507  16.951  0.00  0.00    +0.000 HD
ENDROOT
BRANCH   5   8
ATOM      8  C   UNL     1       3.637   6.004  17.632  0.00  0.00    +0.000 A 
ATOM      9  S   UNL     1       5.242   6.190  17.033  0.00  0.00    +0.000 S 
ATOM     10  C   UNL     1       5.387   4.526  16.669  0.00  0.00    +0.000 A 
ATOM     11  C   UNL     1       4.248   3.828  17.002  0.00  0.00    +0.000 A 
ATOM     12  C   UNL     1       3.250   4.679  17.556  0.00  0.00    +0.000 A 
ATOM     13 BR   UNL     1       1.597   3.934  18.101  0.00  0.00    +0.000 Br
ENDBRANCH   5   8
BRANCH   1  14
ATOM     14  C   UNL     1       1.032  11.207  18.719  0.00  0.00    +0.000 C 
BRANCH  14  16
ATOM     15  C   UNL     1      -1.008  10.999  20.223  0.00  0.00    +0.000 C 
ATOM     16  C   UNL     1      -0.515  11.257  18.789  0.00  0.00    +0.000 C 
ATOM     17  C   UNL     1      -1.147  10.232  17.830  0.00  0.00    +0.000 C 
ATOM     18  C   UNL     1      -0.974  12.664  18.361  0.00  0.00    +0.000 C 
ENDBRANCH  14  16
ENDBRANCH   1  14
TORSDOF 3
ENDMDL
MODEL 4
REMARK VINA RESULT:      -5.9      5.831      6.753
REMARK  Name = 
REMARK  6 active torsions:
REMARK  status: ('A' for Active; 'I' for Inactive)
REMARK    1  A    between atoms: C_1  and  C_2
REMARK    2  A    between atoms: C_2  and  C_3
REMARK    3  A    between atoms: C_2  and  C_4
REMARK    4  A    between atoms: C_2  and  C_5
REMARK    5  A    between atoms: C_5  and  N_6
REMARK    6  A    between atoms: C_10  and  C_11
REMARK                            x       y       z     vdW  Elec       q    Type
REMARK                         _______ _______ _______ _____ _____    ______ ____
ROOT
ATOM      1  N   UNL     1       1.486  10.165  17.787  0.00  0.00    +0.000 N 
ATOM      2  C   UNL     1       1.925   8.988  18.260  0.00  0.00    +0.000 A 
ATOM      3  N   UNL     1       1.805   8.489  19.492  0.00  0.00    +0.000 NA
ATOM      4  O   UNL     1       2.462   7.266  19.410  0.00  0.00    +0.000 OA
ATOM      5  C   UNL     1       2.910   7.137  18.117  0.00  0.00    +0.000 A 
ATOM      6  N   UNL     1       2.604   8.190  17.389  0.00  0.00    +0.000 NA
ATOM      7  H   UNL     1       1.931  10.477  16.933  0.00  0.00    +0.000 HD
ENDROOT
BRANCH   5   8
ATOM      8  C   UNL     1       3.639   5.992  17.643  0.00  0.00    +0.000 A 
ATOM      9  S   UNL     1       5.249   6.181  17.059  0.00  0.00    +0.000 S 
ATOM     10  C   UNL     1       5.400   4.518  16.695  0.00  0.00    +0.000 A 
ATOM     11  C   UNL     1       4.259   3.818  17.018  0.00  0.00    +0.000 A 
ATOM     12  C   UNL     1       3.255   4.666  17.564  0.00  0.00    +0.000 A 
ATOM     13 BR   UNL     1       1.600   3.918  18.095  0.00  0.00    +0.000 Br
ENDBRANCH   5   8
BRANCH   1  14
ATOM     14  C   UNL     1       1.000  11.184  18.699  0.00  0.00    +0.000 C 
BRANCH  14  16
ATOM     15  C   UNL     1      -1.170  10.204  17.807  0.00  0.00    +0.000 C 
ATOM     16  C   UNL     1      -0.547  11.240  18.758  0.00  0.00    +0.000 C 
ATOM     17  C   UNL     1      -1.065  12.647  18.407  0.00  0.00    +0.000 C 
ATOM     18  C   UNL     1      -0.990  10.909  20.196  0.00  0.00    +0.000 C 
ENDBRANCH  14  16
ENDBRANCH   1  14
TORSDOF 3
ENDMDL
MODEL 5
REMARK VINA RESULT:      -5.9      5.798      7.236
REMARK  Name = 
REMARK  6 active torsions:
REMARK  status: ('A' for Active; 'I' for Inactive)
REMARK    1  A    between atoms: C_1  and  C_2
REMARK    2  A    between atoms: C_2  and  C_3
REMARK    3  A    between atoms: C_2  and  C_4
REMARK    4  A    between atoms: C_2  and  C_5
REMARK    5  A    between atoms: C_5  and  N_6
REMARK    6  A    between atoms: C_10  and  C_11
REMARK                            x       y       z     vdW  Elec       q    Type
REMARK                         _______ _______ _______ _____ _____    ______ ____
ROOT
ATOM      1  N   UNL     1       5.356   3.995  14.521  0.00  0.00    +0.000 N 
ATOM      2  C   UNL     1       5.403   4.166  15.852  0.00  0.00    +0.000 A 
ATOM      3  N   UNL     1       6.475   4.314  16.634  0.00  0.00    +0.000 NA
ATOM      4  O   UNL     1       5.930   4.424  17.909  0.00  0.00    +0.000 OA
ATOM      5  C   UNL     1       4.564   4.345  17.769  0.00  0.00    +0.000 A 
ATOM      6  N   UNL     1       4.213   4.173  16.513  0.00  0.00    +0.000 NA
ATOM      7  H   UNL     1       4.489   3.610  14.169  0.00  0.00    +0.000 HD
ENDROOT
BRANCH   5   8
ATOM      8  C   UNL     1       3.651   4.422  18.877  0.00  0.00    +0.000 A 
ATOM      9  S   UNL     1       3.476   3.079  19.942  0.00  0.00    +0.000 S 
ATOM     10  C   UNL     1       2.301   3.878  20.891  0.00  0.00    +0.000 A 
ATOM     11  C   UNL     1       2.044   5.149  20.425  0.00  0.00    +0.000 A 
ATOM     12  C   UNL     1       2.823   5.456  19.274  0.00  0.00    +0.000 A 
ATOM     13 BR   UNL     1       2.647   7.159  18.466  0.00  0.00    +0.000 Br
ENDBRANCH   5   8
BRANCH   1  14
ATOM     14  C   UNL     1       6.569   3.704  13.778  0.00  0.00    +0.000 C 
BRANCH  14  16
ATOM     15  C   UNL     1       4.811   3.674  11.940  0.00  0.00    +0.000 C 
ATOM     16  C   UNL     1       6.309   3.538  12.259  0.00  0.00    +0.000 C 
ATOM     17  C   UNL     1       6.829   2.181  11.753  0.00  0.00    +0.000 C 
ATOM     18  C   UNL     1       7.069   4.653  11.514  0.00  0.00    +0.000 C 
ENDBRANCH  14  16
ENDBRANCH   1  14
TORSDOF 3
ENDMDL
MODEL 6
REMARK VINA RESULT:      -5.8      5.830      7.302
REMARK  Name = 
REMARK  6 active torsions:
REMARK  status: ('A' for Active; 'I' for Inactive)
REMARK    1  A    between atoms: C_1  and  C_2
REMARK    2  A    between atoms: C_2  and  C_3
REMARK    3  A    between atoms: C_2  and  C_4
REMARK    4  A    between atoms: C_2  and  C_5
REMARK    5  A    between atoms: C_5  and  N_6
REMARK    6  A    between atoms: C_10  and  C_11
REMARK                            x       y       z     vdW  Elec       q    Type
REMARK                         _______ _______ _______ _____ _____    ______ ____
ROOT
ATOM      1  N   UNL     1       5.301   4.020  14.580  0.00  0.00    +0.000 N 
ATOM      2  C   UNL     1       5.344   4.161  15.915  0.00  0.00    +0.000 A 
ATOM      3  N   UNL     1       6.415   4.226  16.709  0.00  0.00    +0.000 NA
ATOM      4  O   UNL     1       5.864   4.343  17.982  0.00  0.00    +0.000 OA
ATOM      5  C   UNL     1       4.498   4.350  17.828  0.00  0.00    +0.000 A 
ATOM      6  N   UNL     1       4.150   4.226  16.564  0.00  0.00    +0.000 NA
ATOM      7  H   UNL     1       4.416   3.696  14.212  0.00  0.00    +0.000 HD
ENDROOT
BRANCH   5   8
ATOM      8  C   UNL     1       3.579   4.460  18.929  0.00  0.00    +0.000 A 
ATOM      9  S   UNL     1       3.383   3.140  20.018  0.00  0.00    +0.000 S 
ATOM     10  C   UNL     1       2.211   3.972  20.944  0.00  0.00    +0.000 A 
ATOM     11  C   UNL     1       1.973   5.236  20.453  0.00  0.00    +0.000 A 
ATOM     12  C   UNL     1       2.762   5.512  19.300  0.00  0.00    +0.000 A 
ATOM     13 BR   UNL     1       2.611   7.200  18.458  0.00  0.00    +0.000 Br
ENDBRANCH   5   8
BRANCH   1  14
ATOM     14  C   UNL     1       6.501   3.671  13.842  0.00  0.00    +0.000 C 
BRANCH  14  16
ATOM     15  C   UNL     1       7.073   4.602  11.545  0.00  0.00    +0.000 C 
ATOM     16  C   UNL     1       6.249   3.558  12.318  0.00  0.00    +0.000 C 
ATOM     17  C   UNL     1       4.755   3.727  11.989  0.00  0.00    +0.000 C 
ATOM     18  C   UNL     1       6.687   2.154  11.858  0.00  0.00    +0.000 C 
ENDBRANCH  14  16
ENDBRANCH   1  14
TORSDOF 3
ENDMDL
MODEL 7
REMARK VINA RESULT:      -5.8      6.995      9.084
REMARK  Name = 
REMARK  6 active torsions:
REMARK  status: ('A' for Active; 'I' for Inactive)
REMARK    1  A    between atoms: C_1  and  C_2
REMARK    2  A    between atoms: C_2  and  C_3
REMARK    3  A    between atoms: C_2  and  C_4
REMARK    4  A    between atoms: C_2  and  C_5
REMARK    5  A    between atoms: C_5  and  N_6
REMARK    6  A    between atoms: C_10  and  C_11
REMARK                            x       y       z     vdW  Elec       q    Type
REMARK                         _______ _______ _______ _____ _____    ______ ____
ROOT
ATOM      1  N   UNL     1       2.322   6.718  20.204  0.00  0.00    +0.000 N 
ATOM      2  C   UNL     1       1.983   7.723  19.380  0.00  0.00    +0.000 A 
ATOM      3  N   UNL     1       2.192   7.827  18.066  0.00  0.00    +0.000 NA
ATOM      4  O   UNL     1       1.660   9.074  17.754  0.00  0.00    +0.000 OA
ATOM      5  C   UNL     1       1.163   9.602  18.921  0.00  0.00    +0.000 A 
ATOM      6  N   UNL     1       1.360   8.795  19.943  0.00  0.00    +0.000 NA
ATOM      7  H   UNL     1       2.345   6.959  21.186  0.00  0.00    +0.000 HD
ENDROOT
BRANCH   5   8
ATOM      8  C   UNL     1       0.527  10.889  18.999  0.00  0.00    +0.000 A 
ATOM      9  S   UNL     1       1.312  12.187  19.817  0.00  0.00    +0.000 S 
ATOM     10  C   UNL     1       0.022  13.266  19.515  0.00  0.00    +0.000 A 
ATOM     11  C   UNL     1      -0.989  12.668  18.797  0.00  0.00    +0.000 A 
ATOM     12  C   UNL     1      -0.693  11.307  18.501  0.00  0.00    +0.000 A 
ATOM     13 BR   UNL     1      -1.938  10.284  17.507  0.00  0.00    +0.000 Br
ENDBRANCH   5   8
BRANCH   1  14
ATOM     14  C   UNL     1       3.220   5.672  19.750  0.00  0.00    +0.000 C 
BRANCH  14  16
ATOM     15  C   UNL     1       3.425   3.140  19.888  0.00  0.00    +0.000 C 
ATOM     16  C   UNL     1       2.496   4.317  19.543  0.00  0.00    +0.000 C 
ATOM     17  C   UNL     1       1.990   4.175  18.096  0.00  0.00    +0.000 C 
ATOM     18  C   UNL     1       1.279   4.270  20.487  0.00  0.00    +0.000 C 
ENDBRANCH  14  16
ENDBRANCH   1  14
TORSDOF 3
ENDMDL
MODEL 8
REMARK VINA RESULT:      -5.8      5.797      6.768
REMARK  Name = 
REMARK  6 active torsions:
REMARK  status: ('A' for Active; 'I' for Inactive)
REMARK    1  A    between atoms: C_1  and  C_2
REMARK    2  A    between atoms: C_2  and  C_3
REMARK    3  A    between atoms: C_2  and  C_4
REMARK    4  A    between atoms: C_2  and  C_5
REMARK    5  A    between atoms: C_5  and  N_6
REMARK    6  A    between atoms: C_10  and  C_11
REMARK                            x       y       z     vdW  Elec       q    Type
REMARK                         _______ _______ _______ _____ _____    ______ ____
ROOT
ATOM      1  N   UNL     1       1.502  10.113  17.765  0.00  0.00    +0.000 N 
ATOM      2  C   UNL     1       1.952   8.946  18.251  0.00  0.00    +0.000 A 
ATOM      3  N   UNL     1       1.855   8.470  19.495  0.00  0.00    +0.000 NA
ATOM      4  O   UNL     1       2.515   7.247  19.424  0.00  0.00    +0.000 OA
ATOM      5  C   UNL     1       2.939   7.095  18.125  0.00  0.00    +0.000 A 
ATOM      6  N   UNL     1       2.617   8.134  17.383  0.00  0.00    +0.000 NA
ATOM      7  H   UNL     1       1.930  10.410  16.898  0.00  0.00    +0.000 HD
ENDROOT
BRANCH   5   8
ATOM      8  C   UNL     1       3.663   5.943  17.660  0.00  0.00    +0.000 A 
ATOM      9  S   UNL     1       5.285   6.115  17.105  0.00  0.00    +0.000 S 
ATOM     10  C   UNL     1       5.423   4.452  16.737  0.00  0.00    +0.000 A 
ATOM     11  C   UNL     1       4.268   3.764  17.037  0.00  0.00    +0.000 A 
ATOM     12  C   UNL     1       3.265   4.623  17.568  0.00  0.00    +0.000 A 
ATOM     13 BR   UNL     1       1.591   3.893  18.067  0.00  0.00    +0.000 Br
ENDBRANCH   5   8
BRANCH   1  14
ATOM     14  C   UNL     1       1.030  11.148  18.667  0.00  0.00    +0.000 C 
BRANCH  14  16
ATOM     15  C   UNL     1      -1.009  12.638  18.363  0.00  0.00    +0.000 C 
ATOM     16  C   UNL     1      -0.517  11.226  18.724  0.00  0.00    +0.000 C 
ATOM     17  C   UNL     1      -1.041  10.832  20.117  0.00  0.00    +0.000 C 
ATOM     18  C   UNL     1      -1.090  10.232  17.695  0.00  0.00    +0.000 C 
ENDBRANCH  14  16
ENDBRANCH   1  14
TORSDOF 3
ENDMDL
MODEL 9
REMARK VINA RESULT:      -5.8      6.529      8.730
REMARK  Name = 
REMARK  6 active torsions:
REMARK  status: ('A' for Active; 'I' for Inactive)
REMARK    1  A    between atoms: C_1  and  C_2
REMARK    2  A    between atoms: C_2  and  C_3
REMARK    3  A    between atoms: C_2  and  C_4
REMARK    4  A    between atoms: C_2  and  C_5
REMARK    5  A    between atoms: C_5  and  N_6
REMARK    6  A    between atoms: C_10  and  C_11
REMARK                            x       y       z     vdW  Elec       q    Type
REMARK                         _______ _______ _______ _____ _____    ______ ____
ROOT
ATOM      1  N   UNL     1       2.805   6.678  18.973  0.00  0.00    +0.000 N 
ATOM      2  C   UNL     1       2.363   7.863  18.524  0.00  0.00    +0.000 A 
ATOM      3  N   UNL     1       2.647   8.475  17.372  0.00  0.00    +0.000 NA
ATOM      4  O   UNL     1       1.939   9.669  17.459  0.00  0.00    +0.000 OA
ATOM      5  C   UNL     1       1.276   9.656  18.663  0.00  0.00    +0.000 A 
ATOM      6  N   UNL     1       1.531   8.560  19.347  0.00  0.00    +0.000 NA
ATOM      7  H   UNL     1       2.715   6.537  19.970  0.00  0.00    +0.000 HD
ENDROOT
BRANCH   5   8
ATOM      8  C   UNL     1       0.430  10.729  19.112  0.00  0.00    +0.000 A 
ATOM      9  S   UNL     1       1.005  11.836  20.301  0.00  0.00    +0.000 S 
ATOM     10  C   UNL     1      -0.461  12.714  20.310  0.00  0.00    +0.000 A 
ATOM     11  C   UNL     1      -1.376  12.194  19.422  0.00  0.00    +0.000 A 
ATOM     12  C   UNL     1      -0.859  11.059  18.736  0.00  0.00    +0.000 A 
ATOM     13 BR   UNL     1      -1.938  10.182  17.452  0.00  0.00    +0.000 Br
ENDBRANCH   5   8
BRANCH   1  14
ATOM     14  C   UNL     1       3.895   6.000  18.296  0.00  0.00    +0.000 C 
BRANCH  14  16
ATOM     15  C   UNL     1       4.349   4.032  16.750  0.00  0.00    +0.000 C 
ATOM     16  C   UNL     1       3.571   4.517  17.984  0.00  0.00    +0.000 C 
ATOM     17  C   UNL     1       2.061   4.315  17.760  0.00  0.00    +0.000 C 
ATOM     18  C   UNL     1       3.996   3.664  19.195  0.00  0.00    +0.000 C 
ENDBRANCH  14  16
ENDBRANCH   1  14
TORSDOF 3
ENDMDL
