MODEL 1
REMARK VINA RESULT:      -8.0      0.000      0.000
REMARK  Name = 
REMARK  6 active torsions:
REMARK  status: ('A' for Active; 'I' for Inactive)
REMARK    1  A    between atoms: C_1  and  C_2
REMARK    2  A    between atoms: C_13  and  N_14
REMARK    3  A    between atoms: C_18  and  O_19
REMARK    4  A    between atoms: O_19  and  C_20
REMARK    5  A    between atoms: C_20  and  C_21
REMARK    6  A    between atoms: C_20  and  C_22
REMARK                            x       y       z     vdW  Elec       q    Type
REMARK                         _______ _______ _______ _____ _____    ______ ____
ROOT
ATOM      1  N   UNL     1       1.601   9.235  18.986  0.00  0.00    +0.000 N 
ATOM      2  C   UNL     1       1.986   7.989  19.313  0.00  0.00    +0.000 A 
ATOM      3  N   UNL     1       3.021   7.472  18.596  0.00  0.00    +0.000 NA
ATOM      4  C   UNL     1       3.128   6.242  19.053  0.00  0.00    +0.000 A 
ATOM      5  C   UNL     1       3.965   5.138  18.687  0.00  0.00    +0.000 A 
ATOM      6  C   UNL     1       3.893   3.993  19.407  0.00  0.00    +0.000 A 
ATOM      7  C   UNL     1       2.937   3.831  20.487  0.00  0.00    +0.000 A 
ATOM      8  C   UNL     1       2.119   4.856  20.796  0.00  0.00    +0.000 A 
ATOM      9  N   UNL     1       2.215   6.057  20.088  0.00  0.00    +0.000 N 
ATOM     10  N   UNL     1       1.485   7.189  20.249  0.00  0.00    +0.000 NA
ATOM     11  H   UNL     1       2.264   9.729  18.398  0.00  0.00    +0.000 HD
ENDROOT
BRANCH   1  24
ATOM     12  C   UNL     1      -4.199  12.658  24.600  0.00  0.00    +0.000 C 
ATOM     13  C   UNL     1      -3.007  12.996  23.789  0.00  0.00    +0.000 A 
ATOM     14  N   UNL     1      -2.289  14.082  24.070  0.00  0.00    +0.000 NA
ATOM     15  S   UNL     1      -1.031  14.102  22.984  0.00  0.00    +0.000 S 
ATOM     16  C   UNL     1      -1.511  12.619  22.205  0.00  0.00    +0.000 A 
ATOM     17  N   UNL     1      -0.838  12.022  21.168  0.00  0.00    +0.000 N 
ATOM     18  C   UNL     1       0.624  12.183  21.113  0.00  0.00    +0.000 C 
ATOM     19  C   UNL     1       1.218  11.527  19.861  0.00  0.00    +0.000 C 
ATOM     20  C   UNL     1       0.554  12.129  18.608  0.00  0.00    +0.000 C 
ATOM     21  C   UNL     1      -0.588  11.173  18.271  0.00  0.00    +0.000 C 
ATOM     22  C   UNL     1      -0.647  10.192  19.452  0.00  0.00    +0.000 C 
ATOM     23  C   UNL     1      -1.437  10.779  20.637  0.00  0.00    +0.000 C 
ATOM     24  C   UNL     1       0.809  10.048  19.892  0.00  0.00    +0.000 C 
ATOM     25  N   UNL     1      -2.622  12.163  22.748  0.00  0.00    +0.000 NA
ENDBRANCH   1  24
BRANCH   5  26
ATOM     26  O   UNL     1       4.722   5.379  17.570  0.00  0.00    +0.000 OA
BRANCH  26  27
ATOM     27  C   UNL     1       5.785   4.499  17.169  0.00  0.00    +0.000 C 
ATOM     28  C   UNL     1       5.796   4.294  15.653  0.00  0.00    +0.000 C 
BRANCH  27  29
ATOM     29  C   UNL     1       7.133   5.103  17.622  0.00  0.00    +0.000 C 
ATOM     30  F   UNL     1       7.126   5.504  18.913  0.00  0.00    +0.000 F 
ATOM     31  F   UNL     1       8.127   4.185  17.499  0.00  0.00    +0.000 F 
ATOM     32  F   UNL     1       7.499   6.174  16.878  0.00  0.00    +0.000 F 
ENDBRANCH  27  29
ENDBRANCH  26  27
ENDBRANCH   5  26
TORSDOF 4
ENDMDL
MODEL 2
REMARK VINA RESULT:      -7.8      1.109      1.432
REMARK  Name = 
REMARK  6 active torsions:
REMARK  status: ('A' for Active; 'I' for Inactive)
REMARK    1  A    between atoms: C_1  and  C_2
REMARK    2  A    between atoms: C_13  and  N_14
REMARK    3  A    between atoms: C_18  and  O_19
REMARK    4  A    between atoms: O_19  and  C_20
REMARK    5  A    between atoms: C_20  and  C_21
REMARK    6  A    between atoms: C_20  and  C_22
REMARK                            x       y       z     vdW  Elec       q    Type
REMARK                         _______ _______ _______ _____ _____    ______ ____
ROOT
ATOM      1  N   UNL     1       1.409   9.745  18.418  0.00  0.00    +0.000 N 
ATOM      2  C   UNL     1       1.974   8.551  18.667  0.00  0.00    +0.000 A 
ATOM      3  N   UNL     1       2.952   8.157  17.807  0.00  0.00    +0.000 NA
ATOM      4  C   UNL     1       3.260   6.947  18.222  0.00  0.00    +0.000 A 
ATOM      5  C   UNL     1       4.159   5.947  17.727  0.00  0.00    +0.000 A 
ATOM      6  C   UNL     1       4.317   4.799  18.429  0.00  0.00    +0.000 A 
ATOM      7  C   UNL     1       3.542   4.526  19.626  0.00  0.00    +0.000 A 
ATOM      8  C   UNL     1       2.662   5.450  20.061  0.00  0.00    +0.000 A 
ATOM      9  N   UNL     1       2.524   6.655  19.369  0.00  0.00    +0.000 N 
ATOM     10  N   UNL     1       1.699   7.696  19.647  0.00  0.00    +0.000 NA
ATOM     11  H   UNL     1       1.924  10.313  17.755  0.00  0.00    +0.000 HD
ENDROOT
BRANCH   1  24
ATOM     12  C   UNL     1      -4.195  12.617  24.519  0.00  0.00    +0.000 C 
ATOM     13  C   UNL     1      -2.991  13.008  23.751  0.00  0.00    +0.000 A 
ATOM     14  N   UNL     1      -2.220  14.008  24.173  0.00  0.00    +0.000 NA
ATOM     15  S   UNL     1      -0.966  14.121  23.087  0.00  0.00    +0.000 S 
ATOM     16  C   UNL     1      -1.521  12.787  22.113  0.00  0.00    +0.000 A 
ATOM     17  N   UNL     1      -0.882  12.310  20.995  0.00  0.00    +0.000 N 
ATOM     18  C   UNL     1       0.585  12.407  20.948  0.00  0.00    +0.000 C 
ATOM     19  C   UNL     1       1.141  11.906  19.610  0.00  0.00    +0.000 C 
ATOM     20  C   UNL     1       0.503  12.709  18.461  0.00  0.00    +0.000 C 
ATOM     21  C   UNL     1      -0.686  11.866  18.005  0.00  0.00    +0.000 C 
ATOM     22  C   UNL     1      -0.788  10.732  19.038  0.00  0.00    +0.000 C 
ATOM     23  C   UNL     1      -1.543  11.184  20.302  0.00  0.00    +0.000 C 
ATOM     24  C   UNL     1       0.660  10.459  19.437  0.00  0.00    +0.000 C 
ATOM     25  N   UNL     1      -2.651  12.312  22.598  0.00  0.00    +0.000 NA
ENDBRANCH   1  24
BRANCH   5  26
ATOM     26  O   UNL     1       4.724   6.276  16.522  0.00  0.00    +0.000 OA
BRANCH  26  27
ATOM     27  C   UNL     1       6.149   6.312  16.336  0.00  0.00    +0.000 C 
ATOM     28  C   UNL     1       6.875   6.590  17.653  0.00  0.00    +0.000 C 
BRANCH  27  29
ATOM     29  C   UNL     1       6.613   4.954  15.763  0.00  0.00    +0.000 C 
ATOM     30  F   UNL     1       7.442   5.083  14.704  0.00  0.00    +0.000 F 
ATOM     31  F   UNL     1       7.285   4.247  16.707  0.00  0.00    +0.000 F 
ATOM     32  F   UNL     1       5.577   4.179  15.361  0.00  0.00    +0.000 F 
ENDBRANCH  27  29
ENDBRANCH  26  27
ENDBRANCH   5  26
TORSDOF 4
ENDMDL
MODEL 3
REMARK VINA RESULT:      -7.7      0.856      1.151
REMARK  Name = 
REMARK  6 active torsions:
REMARK  status: ('A' for Active; 'I' for Inactive)
REMARK    1  A    between atoms: C_1  and  C_2
REMARK    2  A    between atoms: C_13  and  N_14
REMARK    3  A    between atoms: C_18  and  O_19
REMARK    4  A    between atoms: O_19  and  C_20
REMARK    5  A    between atoms: C_20  and  C_21
REMARK    6  A    between atoms: C_20  and  C_22
REMARK                            x       y       z     vdW  Elec       q    Type
REMARK                         _______ _______ _______ _____ _____    ______ ____
ROOT
ATOM      1  N   UNL     1       1.331   9.327  18.821  0.00  0.00    +0.000 N 
ATOM      2  C   UNL     1       1.769   8.119  19.217  0.00  0.00    +0.000 A 
ATOM      3  N   UNL     1       2.914   7.673  18.631  0.00  0.00    +0.000 NA
ATOM      4  C   UNL     1       3.060   6.461  19.124  0.00  0.00    +0.000 A 
ATOM      5  C   UNL     1       4.013   5.419  18.879  0.00  0.00    +0.000 A 
ATOM      6  C   UNL     1       3.946   4.282  19.611  0.00  0.00    +0.000 A 
ATOM      7  C   UNL     1       2.889   4.062  20.581  0.00  0.00    +0.000 A 
ATOM      8  C   UNL     1       1.966   5.026  20.773  0.00  0.00    +0.000 A 
ATOM      9  N   UNL     1       2.052   6.220  20.055  0.00  0.00    +0.000 N 
ATOM     10  N   UNL     1       1.226   7.295  20.107  0.00  0.00    +0.000 NA
ATOM     11  H   UNL     1       2.017   9.862  18.300  0.00  0.00    +0.000 HD
ENDROOT
BRANCH   1  24
ATOM     12  C   UNL     1      -5.614  13.242  22.470  0.00  0.00    +0.000 C 
ATOM     13  C   UNL     1      -4.139  13.146  22.555  0.00  0.00    +0.000 A 
ATOM     14  N   UNL     1      -3.502  13.534  23.659  0.00  0.00    +0.000 NA
ATOM     15  S   UNL     1      -1.887  13.242  23.394  0.00  0.00    +0.000 S 
ATOM     16  C   UNL     1      -2.138  12.578  21.801  0.00  0.00    +0.000 A 
ATOM     17  N   UNL     1      -1.146  12.092  20.987  0.00  0.00    +0.000 N 
ATOM     18  C   UNL     1       0.025  11.470  21.626  0.00  0.00    +0.000 C 
ATOM     19  C   UNL     1       1.075  11.048  20.592  0.00  0.00    +0.000 C 
ATOM     20  C   UNL     1       1.493  12.277  19.762  0.00  0.00    +0.000 C 
ATOM     21  C   UNL     1       0.606  12.233  18.520  0.00  0.00    +0.000 C 
ATOM     22  C   UNL     1      -0.405  11.107  18.794  0.00  0.00    +0.000 C 
ATOM     23  C   UNL     1      -1.578  11.600  19.662  0.00  0.00    +0.000 C 
ATOM     24  C   UNL     1       0.383  10.088  19.614  0.00  0.00    +0.000 C 
ATOM     25  N   UNL     1      -3.418  12.626  21.489  0.00  0.00    +0.000 NA
ENDBRANCH   1  24
BRANCH   5  26
ATOM     26  O   UNL     1       4.872   5.703  17.849  0.00  0.00    +0.000 OA
BRANCH  26  27
ATOM     27  C   UNL     1       5.816   4.736  17.359  0.00  0.00    +0.000 C 
ATOM     28  C   UNL     1       5.753   4.619  15.836  0.00  0.00    +0.000 C 
BRANCH  27  29
ATOM     29  C   UNL     1       7.237   5.162  17.790  0.00  0.00    +0.000 C 
ATOM     30  F   UNL     1       7.651   6.302  17.195  0.00  0.00    +0.000 F 
ATOM     31  F   UNL     1       7.280   5.377  19.130  0.00  0.00    +0.000 F 
ATOM     32  F   UNL     1       8.167   4.215  17.519  0.00  0.00    +0.000 F 
ENDBRANCH  27  29
ENDBRANCH  26  27
ENDBRANCH   5  26
TORSDOF 4
ENDMDL
MODEL 4
REMARK VINA RESULT:      -7.7      1.138      1.229
REMARK  Name = 
REMARK  6 active torsions:
REMARK  status: ('A' for Active; 'I' for Inactive)
REMARK    1  A    between atoms: C_1  and  C_2
REMARK    2  A    between atoms: C_13  and  N_14
REMARK    3  A    between atoms: C_18  and  O_19
REMARK    4  A    between atoms: O_19  and  C_20
REMARK    5  A    between atoms: C_20  and  C_21
REMARK    6  A    between atoms: C_20  and  C_22
REMARK                            x       y       z     vdW  Elec       q    Type
REMARK                         _______ _______ _______ _____ _____    ______ ____
ROOT
ATOM      1  N   UNL     1       1.345  10.081  18.752  0.00  0.00    +0.000 N 
ATOM      2  C   UNL     1       1.729   8.836  19.087  0.00  0.00    +0.000 A 
ATOM      3  N   UNL     1       2.606   8.230  18.241  0.00  0.00    +0.000 NA
ATOM      4  C   UNL     1       2.739   7.023  18.748  0.00  0.00    +0.000 A 
ATOM      5  C   UNL     1       3.457   5.860  18.317  0.00  0.00    +0.000 A 
ATOM      6  C   UNL     1       3.461   4.760  19.107  0.00  0.00    +0.000 A 
ATOM      7  C   UNL     1       2.695   4.704  20.339  0.00  0.00    +0.000 A 
ATOM      8  C   UNL     1       1.982   5.784  20.715  0.00  0.00    +0.000 A 
ATOM      9  N   UNL     1       2.006   6.939  19.930  0.00  0.00    +0.000 N 
ATOM     10  N   UNL     1       1.360   8.114  20.139  0.00  0.00    +0.000 NA
ATOM     11  H   UNL     1       1.918  10.508  18.034  0.00  0.00    +0.000 HD
ENDROOT
BRANCH   1  24
ATOM     12  C   UNL     1      -3.370  14.129  24.937  0.00  0.00    +0.000 C 
ATOM     13  C   UNL     1      -2.262  14.339  23.978  0.00  0.00    +0.000 A 
ATOM     14  N   UNL     1      -1.417  15.356  24.139  0.00  0.00    +0.000 NA
ATOM     15  S   UNL     1      -0.307  15.239  22.907  0.00  0.00    +0.000 S 
ATOM     16  C   UNL     1      -1.016  13.796  22.233  0.00  0.00    +0.000 A 
ATOM     17  N   UNL     1      -0.535  13.121  21.138  0.00  0.00    +0.000 N 
ATOM     18  C   UNL     1       0.918  13.141  20.902  0.00  0.00    +0.000 C 
ATOM     19  C   UNL     1       1.288  12.412  19.605  0.00  0.00    +0.000 C 
ATOM     20  C   UNL     1       0.532  13.055  18.426  0.00  0.00    +0.000 C 
ATOM     21  C   UNL     1      -0.727  12.207  18.257  0.00  0.00    +0.000 C 
ATOM     22  C   UNL     1      -0.729  11.254  19.463  0.00  0.00    +0.000 C 
ATOM     23  C   UNL     1      -1.308  11.933  20.719  0.00  0.00    +0.000 C 
ATOM     24  C   UNL     1       0.750  10.979  19.725  0.00  0.00    +0.000 C 
ATOM     25  N   UNL     1      -2.088  13.456  22.920  0.00  0.00    +0.000 NA
ENDBRANCH   1  24
BRANCH   5  26
ATOM     26  O   UNL     1       4.025   6.003  17.077  0.00  0.00    +0.000 OA
BRANCH  26  27
ATOM     27  C   UNL     1       5.314   5.451  16.764  0.00  0.00    +0.000 C 
ATOM     28  C   UNL     1       5.520   5.340  15.253  0.00  0.00    +0.000 C 
BRANCH  27  29
ATOM     29  C   UNL     1       6.407   6.357  17.373  0.00  0.00    +0.000 C 
ATOM     30  F   UNL     1       6.727   6.021  18.643  0.00  0.00    +0.000 F 
ATOM     31  F   UNL     1       7.550   6.275  16.644  0.00  0.00    +0.000 F 
ATOM     32  F   UNL     1       6.050   7.664  17.389  0.00  0.00    +0.000 F 
ENDBRANCH  27  29
ENDBRANCH  26  27
ENDBRANCH   5  26
TORSDOF 4
ENDMDL
MODEL 5
REMARK VINA RESULT:      -7.6      3.486      4.474
REMARK  Name = 
REMARK  6 active torsions:
REMARK  status: ('A' for Active; 'I' for Inactive)
REMARK    1  A    between atoms: C_1  and  C_2
REMARK    2  A    between atoms: C_13  and  N_14
REMARK    3  A    between atoms: C_18  and  O_19
REMARK    4  A    between atoms: O_19  and  C_20
REMARK    5  A    between atoms: C_20  and  C_21
REMARK    6  A    between atoms: C_20  and  C_22
REMARK                            x       y       z     vdW  Elec       q    Type
REMARK                         _______ _______ _______ _____ _____    ______ ____
ROOT
ATOM      1  N   UNL     1       1.675   7.820  19.354  0.00  0.00    +0.000 N 
ATOM      2  C   UNL     1       2.567   7.133  18.619  0.00  0.00    +0.000 A 
ATOM      3  N   UNL     1       2.186   5.890  18.217  0.00  0.00    +0.000 NA
ATOM      4  C   UNL     1       3.254   5.421  17.608  0.00  0.00    +0.000 A 
ATOM      5  C   UNL     1       3.557   4.154  17.012  0.00  0.00    +0.000 A 
ATOM      6  C   UNL     1       4.746   3.991  16.383  0.00  0.00    +0.000 A 
ATOM      7  C   UNL     1       5.747   5.041  16.363  0.00  0.00    +0.000 A 
ATOM      8  C   UNL     1       5.476   6.216  16.967  0.00  0.00    +0.000 A 
ATOM      9  N   UNL     1       4.237   6.409  17.581  0.00  0.00    +0.000 N 
ATOM     10  N   UNL     1       3.783   7.508  18.235  0.00  0.00    +0.000 NA
ATOM     11  H   UNL     1       0.740   7.427  19.337  0.00  0.00    +0.000 HD
ENDROOT
BRANCH   1  24
ATOM     12  C   UNL     1       2.435  16.125  22.060  0.00  0.00    +0.000 C 
ATOM     13  C   UNL     1       2.189  15.298  20.857  0.00  0.00    +0.000 A 
ATOM     14  N   UNL     1       2.356  15.815  19.641  0.00  0.00    +0.000 NA
ATOM     15  S   UNL     1       2.027  14.591  18.565  0.00  0.00    +0.000 S 
ATOM     16  C   UNL     1       1.701  13.413  19.808  0.00  0.00    +0.000 A 
ATOM     17  N   UNL     1       1.368  12.101  19.579  0.00  0.00    +0.000 N 
ATOM     18  C   UNL     1       1.926  11.448  18.384  0.00  0.00    +0.000 C 
ATOM     19  C   UNL     1       1.402  10.016  18.227  0.00  0.00    +0.000 C 
ATOM     20  C   UNL     1      -0.137  10.040  18.170  0.00  0.00    +0.000 C 
ATOM     21  C   UNL     1      -0.588   9.789  19.607  0.00  0.00    +0.000 C 
ATOM     22  C   UNL     1       0.702   9.833  20.442  0.00  0.00    +0.000 C 
ATOM     23  C   UNL     1       1.106  11.281  20.781  0.00  0.00    +0.000 C 
ATOM     24  C   UNL     1       1.769   9.260  19.512  0.00  0.00    +0.000 C 
ATOM     25  N   UNL     1       1.807  13.970  20.997  0.00  0.00    +0.000 NA
ENDBRANCH   1  24
BRANCH   5  26
ATOM     26  O   UNL     1       2.582   3.212  17.218  0.00  0.00    +0.000 OA
BRANCH  26  27
ATOM     27  C   UNL     1       2.646   2.280  18.310  0.00  0.00    +0.000 C 
ATOM     28  C   UNL     1       3.851   2.557  19.209  0.00  0.00    +0.000 C 
BRANCH  27  29
ATOM     29  C   UNL     1       1.344   2.387  19.136  0.00  0.00    +0.000 C 
ATOM     30  F   UNL     1       0.302   1.741  18.567  0.00  0.00    +0.000 F 
ATOM     31  F   UNL     1       1.521   1.846  20.368  0.00  0.00    +0.000 F 
ATOM     32  F   UNL     1       0.955   3.671  19.327  0.00  0.00    +0.000 F 
ENDBRANCH  27  29
ENDBRANCH  26  27
ENDBRANCH   5  26
TORSDOF 4
ENDMDL
MODEL 6
REMARK VINA RESULT:      -7.5      0.785      1.200
REMARK  Name = 
REMARK  6 active torsions:
REMARK  status: ('A' for Active; 'I' for Inactive)
REMARK    1  A    between atoms: C_1  and  C_2
REMARK    2  A    between atoms: C_13  and  N_14
REMARK    3  A    between atoms: C_18  and  O_19
REMARK    4  A    between atoms: O_19  and  C_20
REMARK    5  A    between atoms: C_20  and  C_21
REMARK    6  A    between atoms: C_20  and  C_22
REMARK                            x       y       z     vdW  Elec       q    Type
REMARK                         _______ _______ _______ _____ _____    ______ ____
ROOT
ATOM      1  N   UNL     1       1.691   8.927  19.224  0.00  0.00    +0.000 N 
ATOM      2  C   UNL     1       1.993   7.665  19.575  0.00  0.00    +0.000 A 
ATOM      3  N   UNL     1       3.045   7.096  18.926  0.00  0.00    +0.000 NA
ATOM      4  C   UNL     1       3.063   5.863  19.388  0.00  0.00    +0.000 A 
ATOM      5  C   UNL     1       3.867   4.719  19.077  0.00  0.00    +0.000 A 
ATOM      6  C   UNL     1       3.693   3.580  19.789  0.00  0.00    +0.000 A 
ATOM      7  C   UNL     1       2.663   3.468  20.806  0.00  0.00    +0.000 A 
ATOM      8  C   UNL     1       1.877   4.533  21.061  0.00  0.00    +0.000 A 
ATOM      9  N   UNL     1       2.077   5.725  20.362  0.00  0.00    +0.000 N 
ATOM     10  N   UNL     1       1.394   6.892  20.476  0.00  0.00    +0.000 NA
ATOM     11  H   UNL     1       2.413   9.386  18.681  0.00  0.00    +0.000 HD
ENDROOT
BRANCH   1  24
ATOM     12  C   UNL     1      -4.192  12.590  24.596  0.00  0.00    +0.000 C 
ATOM     13  C   UNL     1      -2.998  12.896  23.776  0.00  0.00    +0.000 A 
ATOM     14  N   UNL     1      -2.294  14.004  24.001  0.00  0.00    +0.000 NA
ATOM     15  S   UNL     1      -1.027  13.978  22.925  0.00  0.00    +0.000 S 
ATOM     16  C   UNL     1      -1.484  12.448  22.226  0.00  0.00    +0.000 A 
ATOM     17  N   UNL     1      -0.797  11.802  21.229  0.00  0.00    +0.000 N 
ATOM     18  C   UNL     1       0.664  11.977  21.177  0.00  0.00    +0.000 C 
ATOM     19  C   UNL     1       1.275  11.259  19.968  0.00  0.00    +0.000 C 
ATOM     20  C   UNL     1       0.614  11.783  18.678  0.00  0.00    +0.000 C 
ATOM     21  C   UNL     1      -0.514  10.797  18.386  0.00  0.00    +0.000 C 
ATOM     22  C   UNL     1      -0.571   9.882  19.620  0.00  0.00    +0.000 C 
ATOM     23  C   UNL     1      -1.377  10.525  20.764  0.00  0.00    +0.000 C 
ATOM     24  C   UNL     1       0.882   9.779  20.077  0.00  0.00    +0.000 C 
ATOM     25  N   UNL     1      -2.595  12.010  22.785  0.00  0.00    +0.000 NA
ENDBRANCH   1  24
BRANCH   5  26
ATOM     26  O   UNL     1       4.705   4.920  18.011  0.00  0.00    +0.000 OA
BRANCH  26  27
ATOM     27  C   UNL     1       5.848   5.788  18.097  0.00  0.00    +0.000 C 
ATOM     28  C   UNL     1       6.736   5.421  19.287  0.00  0.00    +0.000 C 
BRANCH  27  29
ATOM     29  C   UNL     1       6.660   5.677  16.787  0.00  0.00    +0.000 C 
ATOM     30  F   UNL     1       5.903   5.838  15.680  0.00  0.00    +0.000 F 
ATOM     31  F   UNL     1       7.626   6.630  16.748  0.00  0.00    +0.000 F 
ATOM     32  F   UNL     1       7.288   4.483  16.665  0.00  0.00    +0.000 F 
ENDBRANCH  27  29
ENDBRANCH  26  27
ENDBRANCH   5  26
TORSDOF 4
ENDMDL
MODEL 7
REMARK VINA RESULT:      -7.5      3.388      4.561
REMARK  Name = 
REMARK  6 active torsions:
REMARK  status: ('A' for Active; 'I' for Inactive)
REMARK    1  A    between atoms: C_1  and  C_2
REMARK    2  A    between atoms: C_13  and  N_14
REMARK    3  A    between atoms: C_18  and  O_19
REMARK    4  A    between atoms: O_19  and  C_20
REMARK    5  A    between atoms: C_20  and  C_21
REMARK    6  A    between atoms: C_20  and  C_22
REMARK                            x       y       z     vdW  Elec       q    Type
REMARK                         _______ _______ _______ _____ _____    ______ ____
ROOT
ATOM      1  N   UNL     1       1.646   8.045  19.945  0.00  0.00    +0.000 N 
ATOM      2  C   UNL     1       2.341   7.246  19.117  0.00  0.00    +0.000 A 
ATOM      3  N   UNL     1       1.901   5.963  19.010  0.00  0.00    +0.000 NA
ATOM      4  C   UNL     1       2.793   5.395  18.225  0.00  0.00    +0.000 A 
ATOM      5  C   UNL     1       2.968   4.050  17.764  0.00  0.00    +0.000 A 
ATOM      6  C   UNL     1       3.962   3.781  16.885  0.00  0.00    +0.000 A 
ATOM      7  C   UNL     1       4.899   4.804  16.458  0.00  0.00    +0.000 A 
ATOM      8  C   UNL     1       4.759   6.058  16.933  0.00  0.00    +0.000 A 
ATOM      9  N   UNL     1       3.711   6.356  17.807  0.00  0.00    +0.000 N 
ATOM     10  N   UNL     1       3.410   7.545  18.386  0.00  0.00    +0.000 NA
ATOM     11  H   UNL     1       0.747   7.667  20.223  0.00  0.00    +0.000 HD
ENDROOT
BRANCH   1  24
ATOM     12  C   UNL     1       2.316  16.691  21.244  0.00  0.00    +0.000 C 
ATOM     13  C   UNL     1       2.127  15.672  20.187  0.00  0.00    +0.000 A 
ATOM     14  N   UNL     1       2.360  15.975  18.911  0.00  0.00    +0.000 NA
ATOM     15  S   UNL     1       2.080  14.586  18.042  0.00  0.00    +0.000 S 
ATOM     16  C   UNL     1       1.683  13.635  19.448  0.00  0.00    +0.000 A 
ATOM     17  N   UNL     1       1.354  12.302  19.428  0.00  0.00    +0.000 N 
ATOM     18  C   UNL     1       1.969  11.457  18.391  0.00  0.00    +0.000 C 
ATOM     19  C   UNL     1       1.446  10.018  18.451  0.00  0.00    +0.000 C 
ATOM     20  C   UNL     1      -0.088  10.028  18.310  0.00  0.00    +0.000 C 
ATOM     21  C   UNL     1      -0.615  10.022  19.744  0.00  0.00    +0.000 C 
ATOM     22  C   UNL     1       0.630  10.211  20.625  0.00  0.00    +0.000 C 
ATOM     23  C   UNL     1       1.025  11.696  20.735  0.00  0.00    +0.000 C 
ATOM     24  C   UNL     1       1.741   9.492  19.863  0.00  0.00    +0.000 C 
ATOM     25  N   UNL     1       1.730  14.386  20.530  0.00  0.00    +0.000 NA
ENDBRANCH   1  24
BRANCH   5  26
ATOM     26  O   UNL     1       2.100   3.162  18.345  0.00  0.00    +0.000 OA
BRANCH  26  27
ATOM     27  C   UNL     1       2.454   2.413  19.520  0.00  0.00    +0.000 C 
ATOM     28  C   UNL     1       3.958   2.482  19.791  0.00  0.00    +0.000 C 
BRANCH  27  29
ATOM     29  C   UNL     1       1.681   2.985  20.729  0.00  0.00    +0.000 C 
ATOM     30  F   UNL     1       2.333   3.997  21.344  0.00  0.00    +0.000 F 
ATOM     31  F   UNL     1       0.477   3.473  20.333  0.00  0.00    +0.000 F 
ATOM     32  F   UNL     1       1.428   2.047  21.674  0.00  0.00    +0.000 F 
ENDBRANCH  27  29
ENDBRANCH  26  27
ENDBRANCH   5  26
TORSDOF 4
ENDMDL
MODEL 8
REMARK VINA RESULT:      -7.5      1.082      1.409
REMARK  Name = 
REMARK  6 active torsions:
REMARK  status: ('A' for Active; 'I' for Inactive)
REMARK    1  A    between atoms: C_1  and  C_2
REMARK    2  A    between atoms: C_13  and  N_14
REMARK    3  A    between atoms: C_18  and  O_19
REMARK    4  A    between atoms: O_19  and  C_20
REMARK    5  A    between atoms: C_20  and  C_21
REMARK    6  A    between atoms: C_20  and  C_22
REMARK                            x       y       z     vdW  Elec       q    Type
REMARK                         _______ _______ _______ _____ _____    ______ ____
ROOT
ATOM      1  N   UNL     1       1.003  10.064  18.754  0.00  0.00    +0.000 N 
ATOM      2  C   UNL     1       1.511   8.862  19.076  0.00  0.00    +0.000 A 
ATOM      3  N   UNL     1       2.523   8.406  18.288  0.00  0.00    +0.000 NA
ATOM      4  C   UNL     1       2.765   7.202  18.762  0.00  0.00    +0.000 A 
ATOM      5  C   UNL     1       3.656   6.157  18.354  0.00  0.00    +0.000 A 
ATOM      6  C   UNL     1       3.733   5.030  19.102  0.00  0.00    +0.000 A 
ATOM      7  C   UNL     1       2.882   4.825  20.260  0.00  0.00    +0.000 A 
ATOM      8  C   UNL     1       2.011   5.792  20.611  0.00  0.00    +0.000 A 
ATOM      9  N   UNL     1       1.955   6.976  19.872  0.00  0.00    +0.000 N 
ATOM     10  N   UNL     1       1.151   8.052  20.066  0.00  0.00    +0.000 NA
ATOM     11  H   UNL     1       1.575  10.591  18.103  0.00  0.00    +0.000 HD
ENDROOT
BRANCH   1  24
ATOM     12  C   UNL     1      -5.090  13.750  23.870  0.00  0.00    +0.000 C 
ATOM     13  C   UNL     1      -3.657  13.828  23.505  0.00  0.00    +0.000 A 
ATOM     14  N   UNL     1      -2.793  14.455  24.302  0.00  0.00    +0.000 NA
ATOM     15  S   UNL     1      -1.301  14.300  23.586  0.00  0.00    +0.000 S 
ATOM     16  C   UNL     1      -1.900  13.364  22.243  0.00  0.00    +0.000 A 
ATOM     17  N   UNL     1      -1.126  12.861  21.227  0.00  0.00    +0.000 N 
ATOM     18  C   UNL     1       0.260  12.480  21.543  0.00  0.00    +0.000 C 
ATOM     19  C   UNL     1       1.015  12.012  20.294  0.00  0.00    +0.000 C 
ATOM     20  C   UNL     1       0.983  13.127  19.231  0.00  0.00    +0.000 C 
ATOM     21  C   UNL     1      -0.210  12.788  18.341  0.00  0.00    +0.000 C 
ATOM     22  C   UNL     1      -0.915  11.620  19.049  0.00  0.00    +0.000 C 
ATOM     23  C   UNL     1      -1.845  12.118  20.172  0.00  0.00    +0.000 C 
ATOM     24  C   UNL     1       0.222  10.838  19.703  0.00  0.00    +0.000 C 
ATOM     25  N   UNL     1      -3.207  13.222  22.339  0.00  0.00    +0.000 NA
ENDBRANCH   1  24
BRANCH   5  26
ATOM     26  O   UNL     1       4.300   6.425  17.174  0.00  0.00    +0.000 OA
BRANCH  26  27
ATOM     27  C   UNL     1       5.461   5.686  16.758  0.00  0.00    +0.000 C 
ATOM     28  C   UNL     1       5.519   5.552  15.236  0.00  0.00    +0.000 C 
BRANCH  27  29
ATOM     29  C   UNL     1       6.726   6.415  17.265  0.00  0.00    +0.000 C 
ATOM     30  F   UNL     1       7.752   6.367  16.386  0.00  0.00    +0.000 F 
ATOM     31  F   UNL     1       6.458   7.727  17.488  0.00  0.00    +0.000 F 
ATOM     32  F   UNL     1       7.184   5.908  18.435  0.00  0.00    +0.000 F 
ENDBRANCH  27  29
ENDBRANCH  26  27
ENDBRANCH   5  26
TORSDOF 4
ENDMDL
MODEL 9
REMARK VINA RESULT:      -7.5      1.450      1.710
REMARK  Name = 
REMARK  6 active torsions:
REMARK  status: ('A' for Active; 'I' for Inactive)
REMARK    1  A    between atoms: C_1  and  C_2
REMARK    2  A    between atoms: C_13  and  N_14
REMARK    3  A    between atoms: C_18  and  O_19
REMARK    4  A    between atoms: O_19  and  C_20
REMARK    5  A    between atoms: C_20  and  C_21
REMARK    6  A    between atoms: C_20  and  C_22
REMARK                            x       y       z     vdW  Elec       q    Type
REMARK                         _______ _______ _______ _____ _____    ______ ____
ROOT
ATOM      1  N   UNL     1       1.124  10.449  18.282  0.00  0.00    +0.000 N 
ATOM      2  C   UNL     1       1.565   9.256  18.719  0.00  0.00    +0.000 A 
ATOM      3  N   UNL     1       2.516   8.651  17.956  0.00  0.00    +0.000 NA
ATOM      4  C   UNL     1       2.696   7.491  18.551  0.00  0.00    +0.000 A 
ATOM      5  C   UNL     1       3.502   6.349  18.234  0.00  0.00    +0.000 A 
ATOM      6  C   UNL     1       3.533   5.306  19.098  0.00  0.00    +0.000 A 
ATOM      7  C   UNL     1       2.714   5.286  20.297  0.00  0.00    +0.000 A 
ATOM      8  C   UNL     1       1.921   6.342  20.565  0.00  0.00    +0.000 A 
ATOM      9  N   UNL     1       1.914   7.440  19.703  0.00  0.00    +0.000 N 
ATOM     10  N   UNL     1       1.190   8.584  19.802  0.00  0.00    +0.000 NA
ATOM     11  H   UNL     1       1.705  10.863  17.561  0.00  0.00    +0.000 HD
ENDROOT
BRANCH   1  24
ATOM     12  C   UNL     1      -2.834  14.724  24.835  0.00  0.00    +0.000 C 
ATOM     13  C   UNL     1      -2.511  14.821  23.393  0.00  0.00    +0.000 A 
ATOM     14  N   UNL     1      -2.546  16.000  22.775  0.00  0.00    +0.000 NA
ATOM     15  S   UNL     1      -2.092  15.715  21.201  0.00  0.00    +0.000 S 
ATOM     16  C   UNL     1      -1.844  14.007  21.447  0.00  0.00    +0.000 A 
ATOM     17  N   UNL     1      -1.414  13.129  20.484  0.00  0.00    +0.000 N 
ATOM     18  C   UNL     1      -0.503  13.637  19.446  0.00  0.00    +0.000 C 
ATOM     19  C   UNL     1      -0.177  12.560  18.405  0.00  0.00    +0.000 C 
ATOM     20  C   UNL     1      -1.486  12.044  17.779  0.00  0.00    +0.000 C 
ATOM     21  C   UNL     1      -1.849  10.804  18.592  0.00  0.00    +0.000 C 
ATOM     22  C   UNL     1      -0.848  10.787  19.758  0.00  0.00    +0.000 C 
ATOM     23  C   UNL     1      -1.298  11.716  20.903  0.00  0.00    +0.000 C 
ATOM     24  C   UNL     1       0.431  11.372  19.163  0.00  0.00    +0.000 C 
ATOM     25  N   UNL     1      -2.143  13.682  22.689  0.00  0.00    +0.000 NA
ENDBRANCH   1  24
BRANCH   5  26
ATOM     26  O   UNL     1       4.118   6.444  17.014  0.00  0.00    +0.000 OA
BRANCH  26  27
ATOM     27  C   UNL     1       5.323   5.721  16.714  0.00  0.00    +0.000 C 
ATOM     28  C   UNL     1       5.515   5.559  15.205  0.00  0.00    +0.000 C 
BRANCH  27  29
ATOM     29  C   UNL     1       6.527   6.484  17.312  0.00  0.00    +0.000 C 
ATOM     30  F   UNL     1       6.815   6.108  18.578  0.00  0.00    +0.000 F 
ATOM     31  F   UNL     1       7.642   6.262  16.570  0.00  0.00    +0.000 F 
ATOM     32  F   UNL     1       6.334   7.824  17.332  0.00  0.00    +0.000 F 
ENDBRANCH  27  29
ENDBRANCH  26  27
ENDBRANCH   5  26
TORSDOF 4
ENDMDL
