MODEL 1
REMARK VINA RESULT:      -7.6      0.000      0.000
REMARK  Name = 
REMARK  9 active torsions:
REMARK  status: ('A' for Active; 'I' for Inactive)
REMARK    1  A    between atoms: C_1  and  C_2
REMARK    2  A    between atoms: C_2  and  N_3
REMARK    3  A    between atoms: N_3  and  C_4
REMARK    4  A    between atoms: C_8  and  N_9
REMARK    5  A    between atoms: N_9  and  C_10
REMARK    6  A    between atoms: C_10  and  C_11
REMARK    7  A    between atoms: C_12  and  C_13
REMARK    8  A    between atoms: C_18  and  O_19
REMARK    9  A    between atoms: C_20  and  O_21
REMARK                            x       y       z     vdW  Elec       q    Type
REMARK                         _______ _______ _______ _____ _____    ______ ____
ROOT
ATOM      1  C   UNL     1       4.497   4.614  17.971  0.00  0.00    +0.000 A 
ATOM      2  C   UNL     1       4.048   5.869  17.545  0.00  0.00    +0.000 A 
ATOM      3  C   UNL     1       3.200   6.650  18.329  0.00  0.00    +0.000 A 
ATOM      4  C   UNL     1       2.724   6.176  19.556  0.00  0.00    +0.000 A 
ATOM      5  C   UNL     1       3.099   4.883  20.023  0.00  0.00    +0.000 A 
ATOM      6  C   UNL     1       4.003   4.125  19.216  0.00  0.00    +0.000 A 
ATOM      7  C   UNL     1       1.793   7.056  20.349  0.00  0.00    +0.000 C 
ATOM      8  C   UNL     1       1.535   8.404  19.743  0.00  0.00    +0.000 A 
ATOM      9  C   UNL     1       0.718   9.328  20.415  0.00  0.00    +0.000 A 
ATOM     10  C   UNL     1       0.489  10.576  19.850  0.00  0.00    +0.000 A 
ATOM     11  C   UNL     1       1.066  10.908  18.627  0.00  0.00    +0.000 A 
ATOM     12  C   UNL     1       1.872  10.001  17.953  0.00  0.00    +0.000 A 
ATOM     13  C   UNL     1       2.101   8.742  18.515  0.00  0.00    +0.000 A 
ATOM     14  O   UNL     1       2.894   7.883  17.797  0.00  0.00    +0.000 OA
ENDROOT
BRANCH   1  15
ATOM     15  N   UNL     1       5.317   3.823  17.131  0.00  0.00    +0.000 N 
ATOM     16  H   UNL     1       5.504   2.891  17.501  0.00  0.00    +0.000 HD
BRANCH  15  18
ATOM     17  C   UNL     1       7.570   4.640  17.635  0.00  0.00    +0.000 C 
ATOM     18  C   UNL     1       6.520   4.429  16.555  0.00  0.00    +0.000 C 
ENDBRANCH  15  18
ENDBRANCH   1  15
BRANCH   5  19
ATOM     19  N   UNL     1       2.600   4.463  21.269  0.00  0.00    +0.000 N 
ATOM     20  H   UNL     1       2.572   5.163  22.001  0.00  0.00    +0.000 HD
BRANCH  19  21
ATOM     21  C   UNL     1       1.605   3.408  21.439  0.00  0.00    +0.000 C 
ATOM     22  C   UNL     1       0.784   3.236  20.166  0.00  0.00    +0.000 C 
ENDBRANCH  19  21
ENDBRANCH   5  19
BRANCH   6  23
ATOM     23  C   UNL     1       4.530   2.871  19.681  0.00  0.00    +0.000 C 
ATOM     24  N   UNL     1       4.932   1.832  20.019  0.00  0.00    +0.000 NA
ENDBRANCH   6  23
BRANCH  10  25
ATOM     25  O   UNL     1      -0.296  11.514  20.463  0.00  0.00    +0.000 OA
ATOM     26  H   UNL     1      -0.179  11.430  21.422  0.00  0.00    +0.000 HD
ENDBRANCH  10  25
BRANCH  11  27
ATOM     27  O   UNL     1       0.838  12.138  18.082  0.00  0.00    +0.000 OA
ATOM     28  H   UNL     1       1.383  12.750  18.619  0.00  0.00    +0.000 HD
ENDBRANCH  11  27
TORSDOF 7
ENDMDL
MODEL 2
REMARK VINA RESULT:      -7.0      1.272      1.539
REMARK  Name = 
REMARK  9 active torsions:
REMARK  status: ('A' for Active; 'I' for Inactive)
REMARK    1  A    between atoms: C_1  and  C_2
REMARK    2  A    between atoms: C_2  and  N_3
REMARK    3  A    between atoms: N_3  and  C_4
REMARK    4  A    between atoms: C_8  and  N_9
REMARK    5  A    between atoms: N_9  and  C_10
REMARK    6  A    between atoms: C_10  and  C_11
REMARK    7  A    between atoms: C_12  and  C_13
REMARK    8  A    between atoms: C_18  and  O_19
REMARK    9  A    between atoms: C_20  and  O_21
REMARK                            x       y       z     vdW  Elec       q    Type
REMARK                         _______ _______ _______ _____ _____    ______ ____
ROOT
ATOM      1  C   UNL     1       3.998   6.131  17.828  0.00  0.00    +0.000 A 
ATOM      2  C   UNL     1       3.300   7.334  17.670  0.00  0.00    +0.000 A 
ATOM      3  C   UNL     1       2.448   7.822  18.659  0.00  0.00    +0.000 A 
ATOM      4  C   UNL     1       2.219   7.091  19.830  0.00  0.00    +0.000 A 
ATOM      5  C   UNL     1       2.855   5.831  20.028  0.00  0.00    +0.000 A 
ATOM      6  C   UNL     1       3.756   5.378  19.014  0.00  0.00    +0.000 A 
ATOM      7  C   UNL     1       1.270   7.660  20.853  0.00  0.00    +0.000 C 
ATOM      8  C   UNL     1       0.722   9.015  20.516  0.00  0.00    +0.000 A 
ATOM      9  C   UNL     1      -0.138   9.665  21.417  0.00  0.00    +0.000 A 
ATOM     10  C   UNL     1      -0.636  10.922  21.100  0.00  0.00    +0.000 A 
ATOM     11  C   UNL     1      -0.285  11.533  19.899  0.00  0.00    +0.000 A 
ATOM     12  C   UNL     1       0.561  10.898  19.000  0.00  0.00    +0.000 A 
ATOM     13  C   UNL     1       1.061   9.631  19.312  0.00  0.00    +0.000 A 
ATOM     14  O   UNL     1       1.880   9.046  18.380  0.00  0.00    +0.000 OA
ENDROOT
BRANCH   1  15
ATOM     15  N   UNL     1       4.817   5.636  16.785  0.00  0.00    +0.000 N 
ATOM     16  H   UNL     1       5.040   4.645  16.876  0.00  0.00    +0.000 HD
BRANCH  15  18
ATOM     17  C   UNL     1       7.049   6.377  17.467  0.00  0.00    +0.000 C 
ATOM     18  C   UNL     1       5.986   6.420  16.380  0.00  0.00    +0.000 C 
ENDBRANCH  15  18
ENDBRANCH   1  15
BRANCH   5  19
ATOM     19  N   UNL     1       2.598   5.146  21.228  0.00  0.00    +0.000 N 
ATOM     20  H   UNL     1       2.545   5.712  22.067  0.00  0.00    +0.000 HD
BRANCH  19  21
ATOM     21  C   UNL     1       1.826   3.910  21.316  0.00  0.00    +0.000 C 
ATOM     22  C   UNL     1       0.853   3.802  20.148  0.00  0.00    +0.000 C 
ENDBRANCH  19  21
ENDBRANCH   5  19
BRANCH   6  23
ATOM     23  C   UNL     1       4.534   4.185  19.202  0.00  0.00    +0.000 C 
ATOM     24  N   UNL     1       5.207   3.246  19.349  0.00  0.00    +0.000 NA
ENDBRANCH   6  23
BRANCH  10  25
ATOM     25  O   UNL     1      -1.474  11.600  21.941  0.00  0.00    +0.000 OA
ATOM     26  H   UNL     1      -1.150  11.491  22.849  0.00  0.00    +0.000 HD
ENDBRANCH  10  25
BRANCH  11  27
ATOM     27  O   UNL     1      -0.778  12.770  19.599  0.00  0.00    +0.000 OA
ATOM     28  H   UNL     1      -0.111  13.160  18.996  0.00  0.00    +0.000 HD
ENDBRANCH  11  27
TORSDOF 7
ENDMDL
MODEL 3
REMARK VINA RESULT:      -6.9      3.932      6.051
REMARK  Name = 
REMARK  9 active torsions:
REMARK  status: ('A' for Active; 'I' for Inactive)
REMARK    1  A    between atoms: C_1  and  C_2
REMARK    2  A    between atoms: C_2  and  N_3
REMARK    3  A    between atoms: N_3  and  C_4
REMARK    4  A    between atoms: C_8  and  N_9
REMARK    5  A    between atoms: N_9  and  C_10
REMARK    6  A    between atoms: C_10  and  C_11
REMARK    7  A    between atoms: C_12  and  C_13
REMARK    8  A    between atoms: C_18  and  O_19
REMARK    9  A    between atoms: C_20  and  O_21
REMARK                            x       y       z     vdW  Elec       q    Type
REMARK                         _______ _______ _______ _____ _____    ______ ____
ROOT
ATOM      1  C   UNL     1       6.203   3.937  14.166  0.00  0.00    +0.000 A 
ATOM      2  C   UNL     1       5.135   3.492  14.954  0.00  0.00    +0.000 A 
ATOM      3  C   UNL     1       4.773   4.141  16.133  0.00  0.00    +0.000 A 
ATOM      4  C   UNL     1       5.507   5.237  16.599  0.00  0.00    +0.000 A 
ATOM      5  C   UNL     1       6.640   5.706  15.874  0.00  0.00    +0.000 A 
ATOM      6  C   UNL     1       6.960   5.045  14.647  0.00  0.00    +0.000 A 
ATOM      7  C   UNL     1       5.081   5.883  17.892  0.00  0.00    +0.000 C 
ATOM      8  C   UNL     1       3.843   5.302  18.507  0.00  0.00    +0.000 A 
ATOM      9  C   UNL     1       3.324   5.854  19.690  0.00  0.00    +0.000 A 
ATOM     10  C   UNL     1       2.173   5.313  20.249  0.00  0.00    +0.000 A 
ATOM     11  C   UNL     1       1.538   4.233  19.641  0.00  0.00    +0.000 A 
ATOM     12  C   UNL     1       2.044   3.679  18.473  0.00  0.00    +0.000 A 
ATOM     13  C   UNL     1       3.204   4.216  17.909  0.00  0.00    +0.000 A 
ATOM     14  O   UNL     1       3.665   3.618  16.764  0.00  0.00    +0.000 OA
ENDROOT
BRANCH   1  15
ATOM     15  N   UNL     1       6.578   3.226  13.000  0.00  0.00    +0.000 N 
ATOM     16  H   UNL     1       7.434   3.574  12.568  0.00  0.00    +0.000 HD
BRANCH  15  18
ATOM     17  C   UNL     1       5.850   1.603  11.317  0.00  0.00    +0.000 C 
ATOM     18  C   UNL     1       5.549   2.927  12.002  0.00  0.00    +0.000 C 
ENDBRANCH  15  18
ENDBRANCH   1  15
BRANCH   5  19
ATOM     19  N   UNL     1       7.333   6.818  16.383  0.00  0.00    +0.000 N 
ATOM     20  H   UNL     1       7.131   7.711  15.950  0.00  0.00    +0.000 HD
BRANCH  19  21
ATOM     21  C   UNL     1       7.786   6.937  17.767  0.00  0.00    +0.000 C 
ATOM     22  C   UNL     1       8.169   8.378  18.082  0.00  0.00    +0.000 C 
ENDBRANCH  19  21
ENDBRANCH   5  19
BRANCH   6  23
ATOM     23  C   UNL     1       8.004   5.542  13.795  0.00  0.00    +0.000 C 
ATOM     24  N   UNL     1       8.861   5.897  13.090  0.00  0.00    +0.000 NA
ENDBRANCH   6  23
BRANCH  10  25
ATOM     25  O   UNL     1       1.625   5.812  21.398  0.00  0.00    +0.000 OA
ATOM     26  H   UNL     1       0.660   5.815  21.301  0.00  0.00    +0.000 HD
ENDBRANCH  10  25
BRANCH  11  27
ATOM     27  O   UNL     1       0.406   3.712  20.197  0.00  0.00    +0.000 OA
ATOM     28  H   UNL     1       0.527   2.742  20.137  0.00  0.00    +0.000 HD
ENDBRANCH  11  27
TORSDOF 7
ENDMDL
MODEL 4
REMARK VINA RESULT:      -6.5      2.713      6.480
REMARK  Name = 
REMARK  9 active torsions:
REMARK  status: ('A' for Active; 'I' for Inactive)
REMARK    1  A    between atoms: C_1  and  C_2
REMARK    2  A    between atoms: C_2  and  N_3
REMARK    3  A    between atoms: N_3  and  C_4
REMARK    4  A    between atoms: C_8  and  N_9
REMARK    5  A    between atoms: N_9  and  C_10
REMARK    6  A    between atoms: C_10  and  C_11
REMARK    7  A    between atoms: C_12  and  C_13
REMARK    8  A    between atoms: C_18  and  O_19
REMARK    9  A    between atoms: C_20  and  O_21
REMARK                            x       y       z     vdW  Elec       q    Type
REMARK                         _______ _______ _______ _____ _____    ______ ____
ROOT
ATOM      1  C   UNL     1       1.485   9.164  19.335  0.00  0.00    +0.000 A 
ATOM      2  C   UNL     1       2.377   8.957  18.277  0.00  0.00    +0.000 A 
ATOM      3  C   UNL     1       3.026   7.737  18.092  0.00  0.00    +0.000 A 
ATOM      4  C   UNL     1       2.844   6.687  18.998  0.00  0.00    +0.000 A 
ATOM      5  C   UNL     1       1.992   6.851  20.129  0.00  0.00    +0.000 A 
ATOM      6  C   UNL     1       1.309   8.099  20.267  0.00  0.00    +0.000 A 
ATOM      7  C   UNL     1       3.589   5.399  18.758  0.00  0.00    +0.000 C 
ATOM      8  C   UNL     1       4.406   5.372  17.500  0.00  0.00    +0.000 A 
ATOM      9  C   UNL     1       5.108   4.207  17.148  0.00  0.00    +0.000 A 
ATOM     10  C   UNL     1       5.857   4.188  15.978  0.00  0.00    +0.000 A 
ATOM     11  C   UNL     1       5.910   5.315  15.161  0.00  0.00    +0.000 A 
ATOM     12  C   UNL     1       5.223   6.472  15.502  0.00  0.00    +0.000 A 
ATOM     13  C   UNL     1       4.472   6.498  16.680  0.00  0.00    +0.000 A 
ATOM     14  O   UNL     1       3.827   7.672  16.973  0.00  0.00    +0.000 OA
ENDROOT
BRANCH   1  15
ATOM     15  N   UNL     1       0.881  10.430  19.526  0.00  0.00    +0.000 N 
ATOM     16  H   UNL     1       0.487  10.558  20.458  0.00  0.00    +0.000 HD
BRANCH  15  18
ATOM     17  C   UNL     1      -1.443  10.511  18.758  0.00  0.00    +0.000 C 
ATOM     18  C   UNL     1      -0.011  10.944  18.484  0.00  0.00    +0.000 C 
ENDBRANCH  15  18
ENDBRANCH   1  15
BRANCH   5  19
ATOM     19  N   UNL     1       1.838   5.758  21.000  0.00  0.00    +0.000 N 
ATOM     20  H   UNL     1       1.806   5.972  21.989  0.00  0.00    +0.000 HD
BRANCH  19  21
ATOM     21  C   UNL     1       1.133   4.527  20.652  0.00  0.00    +0.000 C 
ATOM     22  C   UNL     1       1.752   3.335  21.371  0.00  0.00    +0.000 C 
ENDBRANCH  19  21
ENDBRANCH   5  19
BRANCH   6  23
ATOM     23  C   UNL     1       0.335   8.293  21.305  0.00  0.00    +0.000 C 
ATOM     24  N   UNL     1      -0.468   8.496  22.125  0.00  0.00    +0.000 NA
ENDBRANCH   6  23
BRANCH  10  25
ATOM     25  O   UNL     1       6.557   3.081  15.587  0.00  0.00    +0.000 OA
ATOM     26  H   UNL     1       7.147   3.333  14.859  0.00  0.00    +0.000 HD
ENDBRANCH  10  25
BRANCH  11  27
ATOM     27  O   UNL     1       6.646   5.284  14.013  0.00  0.00    +0.000 OA
ATOM     28  H   UNL     1       5.990   5.410  13.296  0.00  0.00    +0.000 HD
ENDBRANCH  11  27
TORSDOF 7
ENDMDL
MODEL 5
REMARK VINA RESULT:      -6.4      3.280      7.005
REMARK  Name = 
REMARK  9 active torsions:
REMARK  status: ('A' for Active; 'I' for Inactive)
REMARK    1  A    between atoms: C_1  and  C_2
REMARK    2  A    between atoms: C_2  and  N_3
REMARK    3  A    between atoms: N_3  and  C_4
REMARK    4  A    between atoms: C_8  and  N_9
REMARK    5  A    between atoms: N_9  and  C_10
REMARK    6  A    between atoms: C_10  and  C_11
REMARK    7  A    between atoms: C_12  and  C_13
REMARK    8  A    between atoms: C_18  and  O_19
REMARK    9  A    between atoms: C_20  and  O_21
REMARK                            x       y       z     vdW  Elec       q    Type
REMARK                         _______ _______ _______ _____ _____    ______ ____
ROOT
ATOM      1  C   UNL     1       1.427  10.682  18.430  0.00  0.00    +0.000 A 
ATOM      2  C   UNL     1       2.279   9.763  17.807  0.00  0.00    +0.000 A 
ATOM      3  C   UNL     1       2.487   8.486  18.327  0.00  0.00    +0.000 A 
ATOM      4  C   UNL     1       1.885   8.098  19.529  0.00  0.00    +0.000 A 
ATOM      5  C   UNL     1       1.049   9.006  20.242  0.00  0.00    +0.000 A 
ATOM      6  C   UNL     1       0.823  10.292  19.661  0.00  0.00    +0.000 A 
ATOM      7  C   UNL     1       2.163   6.713  20.052  0.00  0.00    +0.000 C 
ATOM      8  C   UNL     1       3.023   5.866  19.161  0.00  0.00    +0.000 A 
ATOM      9  C   UNL     1       3.312   4.540  19.523  0.00  0.00    +0.000 A 
ATOM     10  C   UNL     1       4.104   3.760  18.689  0.00  0.00    +0.000 A 
ATOM     11  C   UNL     1       4.605   4.290  17.502  0.00  0.00    +0.000 A 
ATOM     12  C   UNL     1       4.327   5.600  17.137  0.00  0.00    +0.000 A 
ATOM     13  C   UNL     1       3.536   6.389  17.975  0.00  0.00    +0.000 A 
ATOM     14  O   UNL     1       3.307   7.679  17.569  0.00  0.00    +0.000 OA
ENDROOT
BRANCH   1  15
ATOM     15  N   UNL     1       1.277  11.988  17.905  0.00  0.00    +0.000 N 
ATOM     16  H   UNL     1       0.935  12.006  16.944  0.00  0.00    +0.000 HD
BRANCH  15  18
ATOM     17  C   UNL     1       1.831  14.178  18.852  0.00  0.00    +0.000 C 
ATOM     18  C   UNL     1       2.356  12.955  18.115  0.00  0.00    +0.000 C 
ENDBRANCH  15  18
ENDBRANCH   1  15
BRANCH   5  19
ATOM     19  N   UNL     1       0.461   8.557  21.437  0.00  0.00    +0.000 N 
ATOM     20  H   UNL     1       0.151   7.593  21.453  0.00  0.00    +0.000 HD
BRANCH  19  21
ATOM     21  C   UNL     1       0.797   9.077  22.761  0.00  0.00    +0.000 C 
ATOM     22  C   UNL     1      -0.437   9.664  23.434  0.00  0.00    +0.000 C 
ENDBRANCH  19  21
ENDBRANCH   5  19
BRANCH   6  23
ATOM     23  C   UNL     1      -0.109  11.212  20.252  0.00  0.00    +0.000 C 
ATOM     24  N   UNL     1      -0.833  11.996  20.718  0.00  0.00    +0.000 NA
ENDBRANCH   6  23
BRANCH  10  25
ATOM     25  O   UNL     1       4.415   2.464  18.993  0.00  0.00    +0.000 OA
ATOM     26  H   UNL     1       5.373   2.347  18.890  0.00  0.00    +0.000 HD
ENDBRANCH  10  25
BRANCH  11  27
ATOM     27  O   UNL     1       5.378   3.514  16.688  0.00  0.00    +0.000 OA
ATOM     28  H   UNL     1       5.893   2.950  17.302  0.00  0.00    +0.000 HD
ENDBRANCH  11  27
TORSDOF 7
ENDMDL
MODEL 6
REMARK VINA RESULT:      -6.3      1.335      3.852
REMARK  Name = 
REMARK  9 active torsions:
REMARK  status: ('A' for Active; 'I' for Inactive)
REMARK    1  A    between atoms: C_1  and  C_2
REMARK    2  A    between atoms: C_2  and  N_3
REMARK    3  A    between atoms: N_3  and  C_4
REMARK    4  A    between atoms: C_8  and  N_9
REMARK    5  A    between atoms: N_9  and  C_10
REMARK    6  A    between atoms: C_10  and  C_11
REMARK    7  A    between atoms: C_12  and  C_13
REMARK    8  A    between atoms: C_18  and  O_19
REMARK    9  A    between atoms: C_20  and  O_21
REMARK                            x       y       z     vdW  Elec       q    Type
REMARK                         _______ _______ _______ _____ _____    ______ ____
ROOT
ATOM      1  C   UNL     1       2.562   4.793  20.233  0.00  0.00    +0.000 A 
ATOM      2  C   UNL     1       1.909   5.933  20.716  0.00  0.00    +0.000 A 
ATOM      3  C   UNL     1       1.894   7.129  20.000  0.00  0.00    +0.000 A 
ATOM      4  C   UNL     1       2.582   7.244  18.787  0.00  0.00    +0.000 A 
ATOM      5  C   UNL     1       3.313   6.137  18.266  0.00  0.00    +0.000 A 
ATOM      6  C   UNL     1       3.274   4.913  19.004  0.00  0.00    +0.000 A 
ATOM      7  C   UNL     1       2.547   8.567  18.068  0.00  0.00    +0.000 C 
ATOM      8  C   UNL     1       1.695   9.615  18.723  0.00  0.00    +0.000 A 
ATOM      9  C   UNL     1       1.549  10.875  18.120  0.00  0.00    +0.000 A 
ATOM     10  C   UNL     1       0.754  11.837  18.730  0.00  0.00    +0.000 A 
ATOM     11  C   UNL     1       0.106  11.553  19.929  0.00  0.00    +0.000 A 
ATOM     12  C   UNL     1       0.246  10.312  20.535  0.00  0.00    +0.000 A 
ATOM     13  C   UNL     1       1.049   9.342  19.928  0.00  0.00    +0.000 A 
ATOM     14  O   UNL     1       1.161   8.141  20.580  0.00  0.00    +0.000 OA
ENDROOT
BRANCH   1  15
ATOM     15  N   UNL     1       2.603   3.609  21.007  0.00  0.00    +0.000 N 
ATOM     16  H   UNL     1       3.396   3.006  20.789  0.00  0.00    +0.000 HD
BRANCH  15  18
ATOM     17  C   UNL     1       0.715   2.589  19.827  0.00  0.00    +0.000 C 
ATOM     18  C   UNL     1       1.368   2.841  21.177  0.00  0.00    +0.000 C 
ENDBRANCH  15  18
ENDBRANCH   1  15
BRANCH   5  19
ATOM     19  N   UNL     1       3.975   6.306  17.037  0.00  0.00    +0.000 N 
ATOM     20  H   UNL     1       3.437   6.727  16.290  0.00  0.00    +0.000 HD
BRANCH  19  21
ATOM     21  C   UNL     1       5.414   6.522  16.906  0.00  0.00    +0.000 C 
ATOM     22  C   UNL     1       6.016   5.525  15.923  0.00  0.00    +0.000 C 
ENDBRANCH  19  21
ENDBRANCH   5  19
BRANCH   6  23
ATOM     23  C   UNL     1       3.875   3.718  18.478  0.00  0.00    +0.000 C 
ATOM     24  N   UNL     1       4.352   2.726  18.096  0.00  0.00    +0.000 NA
ENDBRANCH   6  23
BRANCH  10  25
ATOM     25  O   UNL     1       0.576  13.079  18.185  0.00  0.00    +0.000 OA
ATOM     26  H   UNL     1       0.105  12.978  17.343  0.00  0.00    +0.000 HD
ENDBRANCH  10  25
BRANCH  11  27
ATOM     27  O   UNL     1      -0.676  12.504  20.518  0.00  0.00    +0.000 OA
ATOM     28  H   UNL     1      -0.386  12.516  21.454  0.00  0.00    +0.000 HD
ENDBRANCH  11  27
TORSDOF 7
ENDMDL
MODEL 7
REMARK VINA RESULT:      -6.2      3.653      7.761
REMARK  Name = 
REMARK  9 active torsions:
REMARK  status: ('A' for Active; 'I' for Inactive)
REMARK    1  A    between atoms: C_1  and  C_2
REMARK    2  A    between atoms: C_2  and  N_3
REMARK    3  A    between atoms: N_3  and  C_4
REMARK    4  A    between atoms: C_8  and  N_9
REMARK    5  A    between atoms: N_9  and  C_10
REMARK    6  A    between atoms: C_10  and  C_11
REMARK    7  A    between atoms: C_12  and  C_13
REMARK    8  A    between atoms: C_18  and  O_19
REMARK    9  A    between atoms: C_20  and  O_21
REMARK                            x       y       z     vdW  Elec       q    Type
REMARK                         _______ _______ _______ _____ _____    ______ ____
ROOT
ATOM      1  C   UNL     1       0.085   9.170  21.031  0.00  0.00    +0.000 A 
ATOM      2  C   UNL     1       0.790   7.961  21.009  0.00  0.00    +0.000 A 
ATOM      3  C   UNL     1       1.710   7.666  20.004  0.00  0.00    +0.000 A 
ATOM      4  C   UNL     1       1.920   8.556  18.945  0.00  0.00    +0.000 A 
ATOM      5  C   UNL     1       1.194   9.780  18.878  0.00  0.00    +0.000 A 
ATOM      6  C   UNL     1       0.289  10.072  19.946  0.00  0.00    +0.000 A 
ATOM      7  C   UNL     1       2.911   8.173  17.877  0.00  0.00    +0.000 C 
ATOM      8  C   UNL     1       3.626   6.877  18.119  0.00  0.00    +0.000 A 
ATOM      9  C   UNL     1       4.606   6.439  17.213  0.00  0.00    +0.000 A 
ATOM     10  C   UNL     1       5.267   5.240  17.449  0.00  0.00    +0.000 A 
ATOM     11  C   UNL     1       4.961   4.479  18.574  0.00  0.00    +0.000 A 
ATOM     12  C   UNL     1       3.992   4.902  19.474  0.00  0.00    +0.000 A 
ATOM     13  C   UNL     1       3.320   6.104  19.239  0.00  0.00    +0.000 A 
ATOM     14  O   UNL     1       2.364   6.463  20.154  0.00  0.00    +0.000 OA
ENDROOT
BRANCH   1  15
ATOM     15  N   UNL     1      -0.879   9.419  22.037  0.00  0.00    +0.000 N 
ATOM     16  H   UNL     1      -1.803   9.649  21.670  0.00  0.00    +0.000 HD
BRANCH  15  18
ATOM     17  C   UNL     1      -1.556  11.372  23.350  0.00  0.00    +0.000 C 
ATOM     18  C   UNL     1      -0.512  10.283  23.161  0.00  0.00    +0.000 C 
ENDBRANCH  15  18
ENDBRANCH   1  15
BRANCH   5  19
ATOM     19  N   UNL     1       1.455  10.641  17.798  0.00  0.00    +0.000 N 
ATOM     20  H   UNL     1       0.657  10.917  17.238  0.00  0.00    +0.000 HD
BRANCH  19  21
ATOM     21  C   UNL     1       2.542  11.617  17.773  0.00  0.00    +0.000 C 
ATOM     22  C   UNL     1       2.014  13.014  18.077  0.00  0.00    +0.000 C 
ENDBRANCH  19  21
ENDBRANCH   5  19
BRANCH   6  23
ATOM     23  C   UNL     1      -0.379  11.342  20.017  0.00  0.00    +0.000 C 
ATOM     24  N   UNL     1      -0.965  12.347  20.086  0.00  0.00    +0.000 NA
ENDBRANCH   6  23
BRANCH  10  25
ATOM     25  O   UNL     1       6.231   4.768  16.601  0.00  0.00    +0.000 OA
ATOM     26  H   UNL     1       6.989   4.476  17.131  0.00  0.00    +0.000 HD
ENDBRANCH  10  25
BRANCH  11  27
ATOM     27  O   UNL     1       5.620   3.305  18.798  0.00  0.00    +0.000 OA
ATOM     28  H   UNL     1       5.394   3.068  19.721  0.00  0.00    +0.000 HD
ENDBRANCH  11  27
TORSDOF 7
ENDMDL
MODEL 8
REMARK VINA RESULT:      -6.1      4.438      6.597
REMARK  Name = 
REMARK  9 active torsions:
REMARK  status: ('A' for Active; 'I' for Inactive)
REMARK    1  A    between atoms: C_1  and  C_2
REMARK    2  A    between atoms: C_2  and  N_3
REMARK    3  A    between atoms: N_3  and  C_4
REMARK    4  A    between atoms: C_8  and  N_9
REMARK    5  A    between atoms: N_9  and  C_10
REMARK    6  A    between atoms: C_10  and  C_11
REMARK    7  A    between atoms: C_12  and  C_13
REMARK    8  A    between atoms: C_18  and  O_19
REMARK    9  A    between atoms: C_20  and  O_21
REMARK                            x       y       z     vdW  Elec       q    Type
REMARK                         _______ _______ _______ _____ _____    ______ ____
ROOT
ATOM      1  C   UNL     1       6.969   6.378  16.719  0.00  0.00    +0.000 A 
ATOM      2  C   UNL     1       6.009   6.202  17.722  0.00  0.00    +0.000 A 
ATOM      3  C   UNL     1       5.063   5.180  17.663  0.00  0.00    +0.000 A 
ATOM      4  C   UNL     1       5.009   4.321  16.560  0.00  0.00    +0.000 A 
ATOM      5  C   UNL     1       5.922   4.480  15.477  0.00  0.00    +0.000 A 
ATOM      6  C   UNL     1       6.907   5.511  15.588  0.00  0.00    +0.000 A 
ATOM      7  C   UNL     1       3.951   3.248  16.542  0.00  0.00    +0.000 C 
ATOM      8  C   UNL     1       3.102   3.184  17.776  0.00  0.00    +0.000 A 
ATOM      9  C   UNL     1       2.111   2.194  17.892  0.00  0.00    +0.000 A 
ATOM     10  C   UNL     1       1.333   2.138  19.042  0.00  0.00    +0.000 A 
ATOM     11  C   UNL     1       1.534   3.054  20.071  0.00  0.00    +0.000 A 
ATOM     12  C   UNL     1       2.508   4.038  19.964  0.00  0.00    +0.000 A 
ATOM     13  C   UNL     1       3.290   4.102  18.808  0.00  0.00    +0.000 A 
ATOM     14  O   UNL     1       4.226   5.104  18.754  0.00  0.00    +0.000 OA
ENDROOT
BRANCH   1  15
ATOM     15  N   UNL     1       7.884   7.456  16.782  0.00  0.00    +0.000 N 
ATOM     16  H   UNL     1       8.720   7.316  16.216  0.00  0.00    +0.000 HD
BRANCH  15  18
ATOM     17  C   UNL     1       8.359   9.534  17.988  0.00  0.00    +0.000 C 
ATOM     18  C   UNL     1       8.205   8.025  18.093  0.00  0.00    +0.000 C 
ENDBRANCH  15  18
ENDBRANCH   1  15
BRANCH   5  19
ATOM     19  N   UNL     1       5.829   3.580  14.401  0.00  0.00    +0.000 N 
ATOM     20  H   UNL     1       5.679   2.607  14.640  0.00  0.00    +0.000 HD
BRANCH  19  21
ATOM     21  C   UNL     1       5.323   3.935  13.078  0.00  0.00    +0.000 C 
ATOM     22  C   UNL     1       6.174   3.292  11.989  0.00  0.00    +0.000 C 
ENDBRANCH  19  21
ENDBRANCH   5  19
BRANCH   6  23
ATOM     23  C   UNL     1       7.942   5.648  14.601  0.00  0.00    +0.000 C 
ATOM     24  N   UNL     1       8.751   5.793  13.776  0.00  0.00    +0.000 NA
ENDBRANCH   6  23
BRANCH  10  25
ATOM     25  O   UNL     1       0.357   1.194  19.208  0.00  0.00    +0.000 OA
ATOM     26  H   UNL     1       0.783   0.344  19.400  0.00  0.00    +0.000 HD
ENDBRANCH  10  25
BRANCH  11  27
ATOM     27  O   UNL     1       0.766   2.988  21.197  0.00  0.00    +0.000 OA
ATOM     28  H   UNL     1       0.035   3.620  21.034  0.00  0.00    +0.000 HD
ENDBRANCH  11  27
TORSDOF 7
ENDMDL
MODEL 9
REMARK VINA RESULT:      -6.0      5.958      8.998
REMARK  Name = 
REMARK  9 active torsions:
REMARK  status: ('A' for Active; 'I' for Inactive)
REMARK    1  A    between atoms: C_1  and  C_2
REMARK    2  A    between atoms: C_2  and  N_3
REMARK    3  A    between atoms: N_3  and  C_4
REMARK    4  A    between atoms: C_8  and  N_9
REMARK    5  A    between atoms: N_9  and  C_10
REMARK    6  A    between atoms: C_10  and  C_11
REMARK    7  A    between atoms: C_12  and  C_13
REMARK    8  A    between atoms: C_18  and  O_19
REMARK    9  A    between atoms: C_20  and  O_21
REMARK                            x       y       z     vdW  Elec       q    Type
REMARK                         _______ _______ _______ _____ _____    ______ ____
ROOT
ATOM      1  C   UNL     1      -1.262  10.736  18.372  0.00  0.00    +0.000 A 
ATOM      2  C   UNL     1      -1.138  11.266  19.662  0.00  0.00    +0.000 A 
ATOM      3  C   UNL     1      -2.162  12.002  20.254  0.00  0.00    +0.000 A 
ATOM      4  C   UNL     1      -3.339  12.283  19.550  0.00  0.00    +0.000 A 
ATOM      5  C   UNL     1      -3.506  11.820  18.213  0.00  0.00    +0.000 A 
ATOM      6  C   UNL     1      -2.454  11.032  17.650  0.00  0.00    +0.000 A 
ATOM      7  C   UNL     1      -4.402  13.102  20.235  0.00  0.00    +0.000 C 
ATOM      8  C   UNL     1      -4.093  13.471  21.656  0.00  0.00    +0.000 A 
ATOM      9  C   UNL     1      -5.031  14.195  22.410  0.00  0.00    +0.000 A 
ATOM     10  C   UNL     1      -4.739  14.527  23.727  0.00  0.00    +0.000 A 
ATOM     11  C   UNL     1      -3.526  14.144  24.295  0.00  0.00    +0.000 A 
ATOM     12  C   UNL     1      -2.591  13.431  23.557  0.00  0.00    +0.000 A 
ATOM     13  C   UNL     1      -2.878  13.098  22.230  0.00  0.00    +0.000 A 
ATOM     14  O   UNL     1      -1.911  12.406  21.547  0.00  0.00    +0.000 OA
ENDROOT
BRANCH   1  15
ATOM     15  N   UNL     1      -0.184  10.036  17.779  0.00  0.00    +0.000 N 
ATOM     16  H   UNL     1      -0.446   9.125  17.402  0.00  0.00    +0.000 HD
BRANCH  15  18
ATOM     17  C   UNL     1       2.005   8.940  17.861  0.00  0.00    +0.000 C 
ATOM     18  C   UNL     1       1.093   9.980  18.493  0.00  0.00    +0.000 C 
ENDBRANCH  15  18
ENDBRANCH   1  15
BRANCH   5  19
ATOM     19  N   UNL     1      -4.713  12.121  17.559  0.00  0.00    +0.000 N 
ATOM     20  H   UNL     1      -4.637  12.587  16.663  0.00  0.00    +0.000 HD
BRANCH  19  21
ATOM     21  C   UNL     1      -5.938  11.336  17.698  0.00  0.00    +0.000 C 
ATOM     22  C   UNL     1      -7.146  12.253  17.848  0.00  0.00    +0.000 C 
ENDBRANCH  19  21
ENDBRANCH   5  19
BRANCH   6  23
ATOM     23  C   UNL     1      -2.606  10.419  16.358  0.00  0.00    +0.000 C 
ATOM     24  N   UNL     1      -2.677   9.915  15.311  0.00  0.00    +0.000 NA
ENDBRANCH   6  23
BRANCH  10  25
ATOM     25  O   UNL     1      -5.616  15.229  24.506  0.00  0.00    +0.000 OA
ATOM     26  H   UNL     1      -5.155  15.503  25.315  0.00  0.00    +0.000 HD
ENDBRANCH  10  25
BRANCH  11  27
ATOM     27  O   UNL     1      -3.251  14.472  25.590  0.00  0.00    +0.000 OA
ATOM     28  H   UNL     1      -2.931  13.638  25.993  0.00  0.00    +0.000 HD
ENDBRANCH  11  27
TORSDOF 7
ENDMDL
