MODEL 1
REMARK VINA RESULT:      -8.6      0.000      0.000
REMARK  Name = 
REMARK  9 active torsions:
REMARK  status: ('A' for Active; 'I' for Inactive)
REMARK    1  A    between atoms: C_1  and  C_2
REMARK    2  A    between atoms: C_2  and  C_3
REMARK    3  A    between atoms: C_3  and  C_4
REMARK    4  A    between atoms: C_4  and  O_5
REMARK    5  A    between atoms: O_5  and  C_6
REMARK    6  A    between atoms: C_9  and  C_10
REMARK    7  A    between atoms: N_12  and  C_13
REMARK    8  A    between atoms: N_12  and  C_14
REMARK    9  A    between atoms: C_19  and  C_20
REMARK                            x       y       z     vdW  Elec       q    Type
REMARK                         _______ _______ _______ _____ _____    ______ ____
ROOT
ATOM      1  C   UNL     1       3.627   3.372  18.329  0.00  0.00    +0.000 C 
ATOM      2  O   UNL     1       3.706   2.192  17.979  0.00  0.00    +0.000 OA
ATOM      3  N   UNL     1       2.492   3.876  19.012  0.00  0.00    +0.000 N 
ATOM      4  C   UNL     1       1.432   2.927  19.336  0.00  0.00    +0.000 C 
ENDROOT
BRANCH   3   5
ATOM      5  C   UNL     1       2.116   5.283  18.888  0.00  0.00    +0.000 C 
ATOM      6  C   UNL     1       2.704   6.219  17.782  0.00  0.00    +0.000 C 
ATOM      7  C   UNL     1       2.215   7.536  18.355  0.00  0.00    +0.000 A 
ATOM      8  C   UNL     1       1.831   8.704  17.731  0.00  0.00    +0.000 A 
ATOM      9  C   UNL     1       1.078   9.632  18.478  0.00  0.00    +0.000 A 
ATOM     10  C   UNL     1       0.714   9.387  19.827  0.00  0.00    +0.000 A 
ATOM     11  C   UNL     1       1.318   8.312  20.481  0.00  0.00    +0.000 A 
ATOM     12  C   UNL     1       2.010   7.391  19.732  0.00  0.00    +0.000 A 
ATOM     13  C   UNL     1       2.410   6.037  20.190  0.00  0.00    +0.000 C 
BRANCH  10  14
ATOM     14  C   UNL     1      -0.342  10.205  20.572  0.00  0.00    +0.000 C 
ATOM     15  C   UNL     1       0.179  11.088  21.708  0.00  0.00    +0.000 C 
ATOM     16  C   UNL     1       0.796  12.282  20.987  0.00  0.00    +0.000 C 
ATOM     17  C   UNL     1       0.018  12.374  19.683  0.00  0.00    +0.000 C 
ATOM     18  N   UNL     1      -0.950  11.278  19.750  0.00  0.00    +0.000 NA
ATOM     19  H   UNL     1      -1.212  10.967  18.821  0.00  0.00    +0.000 HD
ENDBRANCH  10  14
ENDBRANCH   3   5
BRANCH   1  23
ATOM     20  C   UNL     1       6.916   6.065  17.408  0.00  0.00    +0.000 A 
ATOM     21  C   UNL     1       6.654   5.647  18.713  0.00  0.00    +0.000 A 
ATOM     22  C   UNL     1       5.602   4.748  18.975  0.00  0.00    +0.000 A 
ATOM     23  C   UNL     1       4.788   4.249  17.945  0.00  0.00    +0.000 A 
ATOM     24  C   UNL     1       5.039   4.692  16.643  0.00  0.00    +0.000 A 
ATOM     25  C   UNL     1       6.108   5.575  16.376  0.00  0.00    +0.000 A 
BRANCH  20  26
ATOM     26  O   UNL     1       7.899   6.950  17.032  0.00  0.00    +0.000 OA
BRANCH  26  27
ATOM     27  C   UNL     1       7.688   8.323  17.385  0.00  0.00    +0.000 C 
BRANCH  27  28
ATOM     28  C   UNL     1       8.606   8.744  18.540  0.00  0.00    +0.000 C 
BRANCH  28  30
ATOM     29  C   UNL     1       9.452  10.840  19.718  0.00  0.00    +0.000 C 
ATOM     30  C   UNL     1       8.976  10.227  18.410  0.00  0.00    +0.000 C 
ENDBRANCH  28  30
ENDBRANCH  27  28
ENDBRANCH  26  27
ENDBRANCH  20  26
ENDBRANCH   1  23
TORSDOF 7
ENDMDL
MODEL 2
REMARK VINA RESULT:      -8.5      1.528      2.521
REMARK  Name = 
REMARK  9 active torsions:
REMARK  status: ('A' for Active; 'I' for Inactive)
REMARK    1  A    between atoms: C_1  and  C_2
REMARK    2  A    between atoms: C_2  and  C_3
REMARK    3  A    between atoms: C_3  and  C_4
REMARK    4  A    between atoms: C_4  and  O_5
REMARK    5  A    between atoms: O_5  and  C_6
REMARK    6  A    between atoms: C_9  and  C_10
REMARK    7  A    between atoms: N_12  and  C_13
REMARK    8  A    between atoms: N_12  and  C_14
REMARK    9  A    between atoms: C_19  and  C_20
REMARK                            x       y       z     vdW  Elec       q    Type
REMARK                         _______ _______ _______ _____ _____    ______ ____
ROOT
ATOM      1  C   UNL     1       5.820   4.368  17.117  0.00  0.00    +0.000 C 
ATOM      2  O   UNL     1       6.202   3.740  16.126  0.00  0.00    +0.000 OA
ATOM      3  N   UNL     1       4.642   4.011  17.820  0.00  0.00    +0.000 N 
ATOM      4  C   UNL     1       3.918   2.832  17.356  0.00  0.00    +0.000 C 
ENDROOT
BRANCH   3   5
ATOM      5  C   UNL     1       3.878   5.023  18.547  0.00  0.00    +0.000 C 
ATOM      6  C   UNL     1       3.023   4.687  19.813  0.00  0.00    +0.000 C 
ATOM      7  C   UNL     1       2.265   5.999  19.894  0.00  0.00    +0.000 A 
ATOM      8  C   UNL     1       1.779   6.693  20.982  0.00  0.00    +0.000 A 
ATOM      9  C   UNL     1       1.444   8.050  20.799  0.00  0.00    +0.000 A 
ATOM     10  C   UNL     1       1.600   8.698  19.547  0.00  0.00    +0.000 A 
ATOM     11  C   UNL     1       1.868   7.904  18.432  0.00  0.00    +0.000 A 
ATOM     12  C   UNL     1       2.237   6.595  18.628  0.00  0.00    +0.000 A 
ATOM     13  C   UNL     1       2.882   5.721  17.615  0.00  0.00    +0.000 C 
BRANCH  10  14
ATOM     14  C   UNL     1       1.544  10.217  19.376  0.00  0.00    +0.000 C 
ATOM     15  C   UNL     1       0.662  10.725  18.233  0.00  0.00    +0.000 C 
ATOM     16  C   UNL     1      -0.755  10.595  18.781  0.00  0.00    +0.000 C 
ATOM     17  C   UNL     1      -0.586  10.723  20.288  0.00  0.00    +0.000 C 
ATOM     18  N   UNL     1       0.852  10.914  20.486  0.00  0.00    +0.000 NA
ATOM     19  H   UNL     1       1.140  10.587  21.402  0.00  0.00    +0.000 HD
ENDBRANCH  10  14
ENDBRANCH   3   5
BRANCH   1  23
ATOM     20  C   UNL     1       8.173   7.764  18.475  0.00  0.00    +0.000 A 
ATOM     21  C   UNL     1       8.267   6.515  19.089  0.00  0.00    +0.000 A 
ATOM     22  C   UNL     1       7.516   5.426  18.606  0.00  0.00    +0.000 A 
ATOM     23  C   UNL     1       6.657   5.558  17.503  0.00  0.00    +0.000 A 
ATOM     24  C   UNL     1       6.548   6.818  16.907  0.00  0.00    +0.000 A 
ATOM     25  C   UNL     1       7.318   7.905  17.376  0.00  0.00    +0.000 A 
BRANCH  20  26
ATOM     26  O   UNL     1       8.840   8.901  18.866  0.00  0.00    +0.000 OA
BRANCH  26  27
ATOM     27  C   UNL     1       8.558  10.092  18.120  0.00  0.00    +0.000 C 
BRANCH  27  28
ATOM     28  C   UNL     1       9.638  11.158  18.349  0.00  0.00    +0.000 C 
BRANCH  28  30
ATOM     29  C   UNL     1      11.306  11.894  20.131  0.00  0.00    +0.000 C 
ATOM     30  C   UNL     1       9.935  11.297  19.847  0.00  0.00    +0.000 C 
ENDBRANCH  28  30
ENDBRANCH  27  28
ENDBRANCH  26  27
ENDBRANCH  20  26
ENDBRANCH   1  23
TORSDOF 7
ENDMDL
MODEL 3
REMARK VINA RESULT:      -8.3      2.485      3.733
REMARK  Name = 
REMARK  9 active torsions:
REMARK  status: ('A' for Active; 'I' for Inactive)
REMARK    1  A    between atoms: C_1  and  C_2
REMARK    2  A    between atoms: C_2  and  C_3
REMARK    3  A    between atoms: C_3  and  C_4
REMARK    4  A    between atoms: C_4  and  O_5
REMARK    5  A    between atoms: O_5  and  C_6
REMARK    6  A    between atoms: C_9  and  C_10
REMARK    7  A    between atoms: N_12  and  C_13
REMARK    8  A    between atoms: N_12  and  C_14
REMARK    9  A    between atoms: C_19  and  C_20
REMARK                            x       y       z     vdW  Elec       q    Type
REMARK                         _______ _______ _______ _____ _____    ______ ____
ROOT
ATOM      1  C   UNL     1       3.448   3.417  19.424  0.00  0.00    +0.000 C 
ATOM      2  O   UNL     1       3.328   2.208  19.633  0.00  0.00    +0.000 OA
ATOM      3  N   UNL     1       2.741   4.382  20.184  0.00  0.00    +0.000 N 
ATOM      4  C   UNL     1       1.898   3.891  21.268  0.00  0.00    +0.000 C 
ENDROOT
BRANCH   3   5
ATOM      5  C   UNL     1       2.397   5.677  19.601  0.00  0.00    +0.000 C 
ATOM      6  C   UNL     1       3.344   6.438  18.616  0.00  0.00    +0.000 C 
ATOM      7  C   UNL     1       2.620   7.771  18.634  0.00  0.00    +0.000 A 
ATOM      8  C   UNL     1       2.476   8.733  17.656  0.00  0.00    +0.000 A 
ATOM      9  C   UNL     1       1.455   9.690  17.821  0.00  0.00    +0.000 A 
ATOM     10  C   UNL     1       0.592   9.679  18.947  0.00  0.00    +0.000 A 
ATOM     11  C   UNL     1       0.923   8.841  20.013  0.00  0.00    +0.000 A 
ATOM     12  C   UNL     1       1.889   7.883  19.822  0.00  0.00    +0.000 A 
ATOM     13  C   UNL     1       2.121   6.708  20.701  0.00  0.00    +0.000 C 
BRANCH  10  14
ATOM     14  C   UNL     1      -0.702  10.490  19.020  0.00  0.00    +0.000 C 
ATOM     15  C   UNL     1      -0.953  11.224  20.339  0.00  0.00    +0.000 C 
ATOM     16  C   UNL     1      -0.031  12.437  20.263  0.00  0.00    +0.000 C 
ATOM     17  C   UNL     1       0.110  12.706  18.772  0.00  0.00    +0.000 C 
ATOM     18  N   UNL     1      -0.709  11.676  18.130  0.00  0.00    +0.000 NA
ATOM     19  H   UNL     1      -0.372  11.473  17.195  0.00  0.00    +0.000 HD
ENDBRANCH  10  14
ENDBRANCH   3   5
BRANCH   1  23
ATOM     20  C   UNL     1       6.012   4.300  16.023  0.00  0.00    +0.000 A 
ATOM     21  C   UNL     1       4.705   3.842  15.856  0.00  0.00    +0.000 A 
ATOM     22  C   UNL     1       3.889   3.596  16.976  0.00  0.00    +0.000 A 
ATOM     23  C   UNL     1       4.356   3.799  18.285  0.00  0.00    +0.000 A 
ATOM     24  C   UNL     1       5.675   4.234  18.447  0.00  0.00    +0.000 A 
ATOM     25  C   UNL     1       6.487   4.503  17.324  0.00  0.00    +0.000 A 
BRANCH  20  26
ATOM     26  O   UNL     1       6.907   4.557  15.011  0.00  0.00    +0.000 OA
BRANCH  26  27
ATOM     27  C   UNL     1       6.346   4.868  13.730  0.00  0.00    +0.000 C 
BRANCH  27  28
ATOM     28  C   UNL     1       6.924   3.959  12.637  0.00  0.00    +0.000 C 
BRANCH  28  30
ATOM     29  C   UNL     1       4.575   3.491  11.764  0.00  0.00    +0.000 C 
ATOM     30  C   UNL     1       5.895   2.897  12.232  0.00  0.00    +0.000 C 
ENDBRANCH  28  30
ENDBRANCH  27  28
ENDBRANCH  26  27
ENDBRANCH  20  26
ENDBRANCH   1  23
TORSDOF 7
ENDMDL
MODEL 4
REMARK VINA RESULT:      -8.2      1.498      2.656
REMARK  Name = 
REMARK  9 active torsions:
REMARK  status: ('A' for Active; 'I' for Inactive)
REMARK    1  A    between atoms: C_1  and  C_2
REMARK    2  A    between atoms: C_2  and  C_3
REMARK    3  A    between atoms: C_3  and  C_4
REMARK    4  A    between atoms: C_4  and  O_5
REMARK    5  A    between atoms: O_5  and  C_6
REMARK    6  A    between atoms: C_9  and  C_10
REMARK    7  A    between atoms: N_12  and  C_13
REMARK    8  A    between atoms: N_12  and  C_14
REMARK    9  A    between atoms: C_19  and  C_20
REMARK                            x       y       z     vdW  Elec       q    Type
REMARK                         _______ _______ _______ _____ _____    ______ ____
ROOT
ATOM      1  C   UNL     1       5.773   4.550  17.608  0.00  0.00    +0.000 C 
ATOM      2  O   UNL     1       6.186   3.825  16.700  0.00  0.00    +0.000 OA
ATOM      3  N   UNL     1       4.650   4.194  18.396  0.00  0.00    +0.000 N 
ATOM      4  C   UNL     1       4.027   2.902  18.127  0.00  0.00    +0.000 C 
ENDROOT
BRANCH   3   5
ATOM      5  C   UNL     1       3.814   5.227  19.005  0.00  0.00    +0.000 C 
ATOM      6  C   UNL     1       2.845   4.935  20.198  0.00  0.00    +0.000 C 
ATOM      7  C   UNL     1       2.074   6.241  20.152  0.00  0.00    +0.000 A 
ATOM      8  C   UNL     1       1.483   6.975  21.158  0.00  0.00    +0.000 A 
ATOM      9  C   UNL     1       1.158   8.319  20.887  0.00  0.00    +0.000 A 
ATOM     10  C   UNL     1       1.425   8.915  19.627  0.00  0.00    +0.000 A 
ATOM     11  C   UNL     1       1.803   8.077  18.577  0.00  0.00    +0.000 A 
ATOM     12  C   UNL     1       2.161   6.782  18.864  0.00  0.00    +0.000 A 
ATOM     13  C   UNL     1       2.904   5.874  17.954  0.00  0.00    +0.000 C 
BRANCH  10  14
ATOM     14  C   UNL     1       1.375  10.424  19.386  0.00  0.00    +0.000 C 
ATOM     15  C   UNL     1       0.375  10.896  18.329  0.00  0.00    +0.000 C 
ATOM     16  C   UNL     1      -0.971  10.825  19.042  0.00  0.00    +0.000 C 
ATOM     17  C   UNL     1      -0.626  11.022  20.511  0.00  0.00    +0.000 C 
ATOM     18  N   UNL     1       0.828  11.190  20.532  0.00  0.00    +0.000 NA
ATOM     19  H   UNL     1       1.216  10.902  21.424  0.00  0.00    +0.000 HD
ENDBRANCH  10  14
ENDBRANCH   3   5
BRANCH   1  23
ATOM     20  C   UNL     1       7.905   8.329  17.897  0.00  0.00    +0.000 A 
ATOM     21  C   UNL     1       6.814   8.167  17.044  0.00  0.00    +0.000 A 
ATOM     22  C   UNL     1       6.123   6.941  16.997  0.00  0.00    +0.000 A 
ATOM     23  C   UNL     1       6.505   5.851  17.795  0.00  0.00    +0.000 A 
ATOM     24  C   UNL     1       7.616   6.012  18.630  0.00  0.00    +0.000 A 
ATOM     25  C   UNL     1       8.295   7.247  18.695  0.00  0.00    +0.000 A 
BRANCH  20  26
ATOM     26  O   UNL     1       8.667   9.468  18.016  0.00  0.00    +0.000 OA
BRANCH  26  27
ATOM     27  C   UNL     1       9.032   9.852  19.348  0.00  0.00    +0.000 C 
BRANCH  27  28
ATOM     28  C   UNL     1       9.473  11.321  19.399  0.00  0.00    +0.000 C 
BRANCH  28  30
ATOM     29  C   UNL     1      11.324  11.923  17.754  0.00  0.00    +0.000 C 
ATOM     30  C   UNL     1      10.982  11.431  19.152  0.00  0.00    +0.000 C 
ENDBRANCH  28  30
ENDBRANCH  27  28
ENDBRANCH  26  27
ENDBRANCH  20  26
ENDBRANCH   1  23
TORSDOF 7
ENDMDL
MODEL 5
REMARK VINA RESULT:      -8.1      2.383      3.447
REMARK  Name = 
REMARK  9 active torsions:
REMARK  status: ('A' for Active; 'I' for Inactive)
REMARK    1  A    between atoms: C_1  and  C_2
REMARK    2  A    between atoms: C_2  and  C_3
REMARK    3  A    between atoms: C_3  and  C_4
REMARK    4  A    between atoms: C_4  and  O_5
REMARK    5  A    between atoms: O_5  and  C_6
REMARK    6  A    between atoms: C_9  and  C_10
REMARK    7  A    between atoms: N_12  and  C_13
REMARK    8  A    between atoms: N_12  and  C_14
REMARK    9  A    between atoms: C_19  and  C_20
REMARK                            x       y       z     vdW  Elec       q    Type
REMARK                         _______ _______ _______ _____ _____    ______ ____
ROOT
ATOM      1  C   UNL     1       3.057   3.238  19.281  0.00  0.00    +0.000 C 
ATOM      2  O   UNL     1       2.842   2.028  19.385  0.00  0.00    +0.000 OA
ATOM      3  N   UNL     1       2.311   4.195  20.013  0.00  0.00    +0.000 N 
ATOM      4  C   UNL     1       1.305   3.690  20.942  0.00  0.00    +0.000 C 
ENDROOT
BRANCH   3   5
ATOM      5  C   UNL     1       2.119   5.546  19.487  0.00  0.00    +0.000 C 
ATOM      6  C   UNL     1       3.141   6.227  18.519  0.00  0.00    +0.000 C 
ATOM      7  C   UNL     1       2.584   7.635  18.601  0.00  0.00    +0.000 A 
ATOM      8  C   UNL     1       2.547   8.647  17.664  0.00  0.00    +0.000 A 
ATOM      9  C   UNL     1       1.651   9.712  17.882  0.00  0.00    +0.000 A 
ATOM     10  C   UNL     1       0.804   9.758  19.018  0.00  0.00    +0.000 A 
ATOM     11  C   UNL     1       1.042   8.844  20.046  0.00  0.00    +0.000 A 
ATOM     12  C   UNL     1       1.883   7.785  19.803  0.00  0.00    +0.000 A 
ATOM     13  C   UNL     1       1.980   6.556  20.631  0.00  0.00    +0.000 C 
BRANCH  10  14
ATOM     14  C   UNL     1      -0.382  10.716  19.143  0.00  0.00    +0.000 C 
ATOM     15  C   UNL     1      -0.560  11.380  20.510  0.00  0.00    +0.000 C 
ATOM     16  C   UNL     1       0.504  12.473  20.525  0.00  0.00    +0.000 C 
ATOM     17  C   UNL     1       0.697  12.826  19.057  0.00  0.00    +0.000 C 
ATOM     18  N   UNL     1      -0.232  11.952  18.339  0.00  0.00    +0.000 NA
ATOM     19  H   UNL     1       0.091  11.776  17.394  0.00  0.00    +0.000 HD
ENDBRANCH  10  14
ENDBRANCH   3   5
BRANCH   1  23
ATOM     20  C   UNL     1       6.196   4.584  16.589  0.00  0.00    +0.000 A 
ATOM     21  C   UNL     1       6.395   4.510  17.967  0.00  0.00    +0.000 A 
ATOM     22  C   UNL     1       5.370   4.040  18.810  0.00  0.00    +0.000 A 
ATOM     23  C   UNL     1       4.127   3.634  18.299  0.00  0.00    +0.000 A 
ATOM     24  C   UNL     1       3.925   3.734  16.919  0.00  0.00    +0.000 A 
ATOM     25  C   UNL     1       4.959   4.183  16.071  0.00  0.00    +0.000 A 
BRANCH  20  26
ATOM     26  O   UNL     1       7.111   5.042  15.670  0.00  0.00    +0.000 OA
BRANCH  26  27
ATOM     27  C   UNL     1       6.686   5.058  14.302  0.00  0.00    +0.000 C 
BRANCH  27  28
ATOM     28  C   UNL     1       6.479   3.634  13.770  0.00  0.00    +0.000 C 
BRANCH  28  30
ATOM     29  C   UNL     1       4.895   3.209  11.818  0.00  0.00    +0.000 C 
ATOM     30  C   UNL     1       6.283   3.658  12.249  0.00  0.00    +0.000 C 
ENDBRANCH  28  30
ENDBRANCH  27  28
ENDBRANCH  26  27
ENDBRANCH  20  26
ENDBRANCH   1  23
TORSDOF 7
ENDMDL
MODEL 6
REMARK VINA RESULT:      -8.0      0.844      1.046
REMARK  Name = 
REMARK  9 active torsions:
REMARK  status: ('A' for Active; 'I' for Inactive)
REMARK    1  A    between atoms: C_1  and  C_2
REMARK    2  A    between atoms: C_2  and  C_3
REMARK    3  A    between atoms: C_3  and  C_4
REMARK    4  A    between atoms: C_4  and  O_5
REMARK    5  A    between atoms: O_5  and  C_6
REMARK    6  A    between atoms: C_9  and  C_10
REMARK    7  A    between atoms: N_12  and  C_13
REMARK    8  A    between atoms: N_12  and  C_14
REMARK    9  A    between atoms: C_19  and  C_20
REMARK                            x       y       z     vdW  Elec       q    Type
REMARK                         _______ _______ _______ _____ _____    ______ ____
ROOT
ATOM      1  C   UNL     1       2.915   2.883  18.322  0.00  0.00    +0.000 C 
ATOM      2  O   UNL     1       2.813   1.728  17.900  0.00  0.00    +0.000 OA
ATOM      3  N   UNL     1       1.822   3.559  18.921  0.00  0.00    +0.000 N 
ATOM      4  C   UNL     1       0.576   2.815  19.068  0.00  0.00    +0.000 C 
ENDROOT
BRANCH   3   5
ATOM      5  C   UNL     1       1.729   5.016  18.860  0.00  0.00    +0.000 C 
ATOM      6  C   UNL     1       2.461   5.864  17.768  0.00  0.00    +0.000 C 
ATOM      7  C   UNL     1       2.257   7.226  18.403  0.00  0.00    +0.000 A 
ATOM      8  C   UNL     1       2.095   8.472  17.834  0.00  0.00    +0.000 A 
ATOM      9  C   UNL     1       1.561   9.498  18.640  0.00  0.00    +0.000 A 
ATOM     10  C   UNL     1       1.192   9.274  19.991  0.00  0.00    +0.000 A 
ATOM     11  C   UNL     1       1.589   8.075  20.585  0.00  0.00    +0.000 A 
ATOM     12  C   UNL     1       2.065   7.068  19.781  0.00  0.00    +0.000 A 
ATOM     13  C   UNL     1       2.201   5.643  20.177  0.00  0.00    +0.000 C 
BRANCH  10  14
ATOM     14  C   UNL     1       0.339  10.251  20.801  0.00  0.00    +0.000 C 
ATOM     15  C   UNL     1       0.803  11.710  20.787  0.00  0.00    +0.000 C 
ATOM     16  C   UNL     1       0.350  12.223  19.425  0.00  0.00    +0.000 C 
ATOM     17  C   UNL     1      -0.863  11.368  19.087  0.00  0.00    +0.000 C 
ATOM     18  N   UNL     1      -1.013  10.469  20.232  0.00  0.00    +0.000 NA
ATOM     19  H   UNL     1      -1.474   9.607  19.960  0.00  0.00    +0.000 HD
ENDBRANCH  10  14
ENDBRANCH   3   5
BRANCH   1  23
ATOM     20  C   UNL     1       6.719   4.952  17.920  0.00  0.00    +0.000 A 
ATOM     21  C   UNL     1       6.202   4.605  19.168  0.00  0.00    +0.000 A 
ATOM     22  C   UNL     1       4.983   3.906  19.264  0.00  0.00    +0.000 A 
ATOM     23  C   UNL     1       4.254   3.540  18.122  0.00  0.00    +0.000 A 
ATOM     24  C   UNL     1       4.764   3.914  16.874  0.00  0.00    +0.000 A 
ATOM     25  C   UNL     1       5.997   4.594  16.776  0.00  0.00    +0.000 A 
BRANCH  20  26
ATOM     26  O   UNL     1       7.884   5.648  17.701  0.00  0.00    +0.000 OA
BRANCH  26  27
ATOM     27  C   UNL     1       7.982   6.937  18.319  0.00  0.00    +0.000 C 
BRANCH  27  28
ATOM     28  C   UNL     1       7.783   8.060  17.293  0.00  0.00    +0.000 C 
BRANCH  28  30
ATOM     29  C   UNL     1       9.086   9.581  18.869  0.00  0.00    +0.000 C 
ATOM     30  C   UNL     1       7.861   9.428  17.981  0.00  0.00    +0.000 C 
ENDBRANCH  28  30
ENDBRANCH  27  28
ENDBRANCH  26  27
ENDBRANCH  20  26
ENDBRANCH   1  23
TORSDOF 7
ENDMDL
MODEL 7
REMARK VINA RESULT:      -7.9      0.973      1.409
REMARK  Name = 
REMARK  9 active torsions:
REMARK  status: ('A' for Active; 'I' for Inactive)
REMARK    1  A    between atoms: C_1  and  C_2
REMARK    2  A    between atoms: C_2  and  C_3
REMARK    3  A    between atoms: C_3  and  C_4
REMARK    4  A    between atoms: C_4  and  O_5
REMARK    5  A    between atoms: O_5  and  C_6
REMARK    6  A    between atoms: C_9  and  C_10
REMARK    7  A    between atoms: N_12  and  C_13
REMARK    8  A    between atoms: N_12  and  C_14
REMARK    9  A    between atoms: C_19  and  C_20
REMARK                            x       y       z     vdW  Elec       q    Type
REMARK                         _______ _______ _______ _____ _____    ______ ____
ROOT
ATOM      1  C   UNL     1       3.365   3.169  18.359  0.00  0.00    +0.000 C 
ATOM      2  O   UNL     1       3.380   1.993  17.989  0.00  0.00    +0.000 OA
ATOM      3  N   UNL     1       2.233   3.740  18.993  0.00  0.00    +0.000 N 
ATOM      4  C   UNL     1       1.095   2.863  19.243  0.00  0.00    +0.000 C 
ENDROOT
BRANCH   3   5
ATOM      5  C   UNL     1       1.964   5.172  18.881  0.00  0.00    +0.000 C 
ATOM      6  C   UNL     1       2.411   6.020  17.645  0.00  0.00    +0.000 C 
ATOM      7  C   UNL     1       2.153   7.391  18.241  0.00  0.00    +0.000 A 
ATOM      8  C   UNL     1       1.761   8.573  17.648  0.00  0.00    +0.000 A 
ATOM      9  C   UNL     1       1.245   9.586  18.482  0.00  0.00    +0.000 A 
ATOM     10  C   UNL     1       1.122   9.412  19.884  0.00  0.00    +0.000 A 
ATOM     11  C   UNL     1       1.744   8.304  20.460  0.00  0.00    +0.000 A 
ATOM     12  C   UNL     1       2.201   7.303  19.637  0.00  0.00    +0.000 A 
ATOM     13  C   UNL     1       2.562   5.930  20.071  0.00  0.00    +0.000 C 
BRANCH  10  14
ATOM     14  C   UNL     1       0.300  10.343  20.776  0.00  0.00    +0.000 C 
ATOM     15  C   UNL     1      -1.031   9.779  21.278  0.00  0.00    +0.000 C 
ATOM     16  C   UNL     1      -0.625   8.832  22.402  0.00  0.00    +0.000 C 
ATOM     17  C   UNL     1       0.683   9.410  22.922  0.00  0.00    +0.000 C 
ATOM     18  N   UNL     1       0.919  10.596  22.099  0.00  0.00    +0.000 NA
ATOM     19  H   UNL     1       1.909  10.808  22.041  0.00  0.00    +0.000 HD
ENDBRANCH  10  14
ENDBRANCH   3   5
BRANCH   1  23
ATOM     20  C   UNL     1       6.873   5.643  17.659  0.00  0.00    +0.000 A 
ATOM     21  C   UNL     1       6.496   5.253  18.944  0.00  0.00    +0.000 A 
ATOM     22  C   UNL     1       5.374   4.424  19.136  0.00  0.00    +0.000 A 
ATOM     23  C   UNL     1       4.603   3.969  18.054  0.00  0.00    +0.000 A 
ATOM     24  C   UNL     1       4.971   4.385  16.770  0.00  0.00    +0.000 A 
ATOM     25  C   UNL     1       6.109   5.196  16.575  0.00  0.00    +0.000 A 
BRANCH  20  26
ATOM     26  O   UNL     1       7.934   6.462  17.349  0.00  0.00    +0.000 OA
BRANCH  26  27
ATOM     27  C   UNL     1       8.322   7.407  18.353  0.00  0.00    +0.000 C 
BRANCH  27  28
ATOM     28  C   UNL     1       8.110   8.848  17.868  0.00  0.00    +0.000 C 
BRANCH  28  30
ATOM     29  C   UNL     1       9.614  10.896  18.064  0.00  0.00    +0.000 C 
ATOM     30  C   UNL     1       8.818   9.833  18.806  0.00  0.00    +0.000 C 
ENDBRANCH  28  30
ENDBRANCH  27  28
ENDBRANCH  26  27
ENDBRANCH  20  26
ENDBRANCH   1  23
TORSDOF 7
ENDMDL
MODEL 8
REMARK VINA RESULT:      -7.9      1.273      1.672
REMARK  Name = 
REMARK  9 active torsions:
REMARK  status: ('A' for Active; 'I' for Inactive)
REMARK    1  A    between atoms: C_1  and  C_2
REMARK    2  A    between atoms: C_2  and  C_3
REMARK    3  A    between atoms: C_3  and  C_4
REMARK    4  A    between atoms: C_4  and  O_5
REMARK    5  A    between atoms: O_5  and  C_6
REMARK    6  A    between atoms: C_9  and  C_10
REMARK    7  A    between atoms: N_12  and  C_13
REMARK    8  A    between atoms: N_12  and  C_14
REMARK    9  A    between atoms: C_19  and  C_20
REMARK                            x       y       z     vdW  Elec       q    Type
REMARK                         _______ _______ _______ _____ _____    ______ ____
ROOT
ATOM      1  C   UNL     1       4.905   4.140  17.229  0.00  0.00    +0.000 C 
ATOM      2  O   UNL     1       5.285   3.207  16.517  0.00  0.00    +0.000 OA
ATOM      3  N   UNL     1       3.569   4.227  17.696  0.00  0.00    +0.000 N 
ATOM      4  C   UNL     1       2.666   3.137  17.344  0.00  0.00    +0.000 C 
ENDROOT
BRANCH   3   5
ATOM      5  C   UNL     1       2.969   5.528  17.984  0.00  0.00    +0.000 C 
ATOM      6  C   UNL     1       3.486   6.858  17.344  0.00  0.00    +0.000 C 
ATOM      7  C   UNL     1       2.724   7.818  18.236  0.00  0.00    +0.000 A 
ATOM      8  C   UNL     1       2.204   9.069  17.978  0.00  0.00    +0.000 A 
ATOM      9  C   UNL     1       1.235   9.574  18.868  0.00  0.00    +0.000 A 
ATOM     10  C   UNL     1       0.793   8.833  19.994  0.00  0.00    +0.000 A 
ATOM     11  C   UNL     1       1.510   7.688  20.342  0.00  0.00    +0.000 A 
ATOM     12  C   UNL     1       2.419   7.182  19.445  0.00  0.00    +0.000 A 
ATOM     13  C   UNL     1       3.003   5.817  19.489  0.00  0.00    +0.000 C 
BRANCH  10  14
ATOM     14  C   UNL     1      -0.454   9.196  20.801  0.00  0.00    +0.000 C 
ATOM     15  C   UNL     1      -0.444   8.770  22.271  0.00  0.00    +0.000 C 
ATOM     16  C   UNL     1       0.461   9.797  22.942  0.00  0.00    +0.000 C 
ATOM     17  C   UNL     1       0.322  11.040  22.075  0.00  0.00    +0.000 C 
ATOM     18  N   UNL     1      -0.615  10.654  21.019  0.00  0.00    +0.000 NA
ATOM     19  H   UNL     1      -0.463  11.201  20.179  0.00  0.00    +0.000 HD
ENDBRANCH  10  14
ENDBRANCH   3   5
BRANCH   1  23
ATOM     20  C   UNL     1       7.767   7.222  18.333  0.00  0.00    +0.000 A 
ATOM     21  C   UNL     1       7.480   6.152  19.179  0.00  0.00    +0.000 A 
ATOM     22  C   UNL     1       6.573   5.152  18.780  0.00  0.00    +0.000 A 
ATOM     23  C   UNL     1       5.932   5.197  17.532  0.00  0.00    +0.000 A 
ATOM     24  C   UNL     1       6.204   6.286  16.698  0.00  0.00    +0.000 A 
ATOM     25  C   UNL     1       7.131   7.277  17.087  0.00  0.00    +0.000 A 
BRANCH  20  26
ATOM     26  O   UNL     1       8.618   8.264  18.618  0.00  0.00    +0.000 OA
BRANCH  26  27
ATOM     27  C   UNL     1       8.519   9.416  17.771  0.00  0.00    +0.000 C 
BRANCH  27  28
ATOM     28  C   UNL     1       8.797  10.705  18.555  0.00  0.00    +0.000 C 
BRANCH  28  30
ATOM     29  C   UNL     1      10.321  11.606  20.389  0.00  0.00    +0.000 C 
ATOM     30  C   UNL     1       9.599  10.393  19.824  0.00  0.00    +0.000 C 
ENDBRANCH  28  30
ENDBRANCH  27  28
ENDBRANCH  26  27
ENDBRANCH  20  26
ENDBRANCH   1  23
TORSDOF 7
ENDMDL
MODEL 9
REMARK VINA RESULT:      -7.8      1.954      5.076
REMARK  Name = 
REMARK  9 active torsions:
REMARK  status: ('A' for Active; 'I' for Inactive)
REMARK    1  A    between atoms: C_1  and  C_2
REMARK    2  A    between atoms: C_2  and  C_3
REMARK    3  A    between atoms: C_3  and  C_4
REMARK    4  A    between atoms: C_4  and  O_5
REMARK    5  A    between atoms: O_5  and  C_6
REMARK    6  A    between atoms: C_9  and  C_10
REMARK    7  A    between atoms: N_12  and  C_13
REMARK    8  A    between atoms: N_12  and  C_14
REMARK    9  A    between atoms: C_19  and  C_20
REMARK                            x       y       z     vdW  Elec       q    Type
REMARK                         _______ _______ _______ _____ _____    ______ ____
ROOT
ATOM      1  C   UNL     1       6.093   5.295  17.554  0.00  0.00    +0.000 C 
ATOM      2  O   UNL     1       7.254   4.887  17.469  0.00  0.00    +0.000 OA
ATOM      3  N   UNL     1       5.775   6.672  17.446  0.00  0.00    +0.000 N 
ATOM      4  C   UNL     1       6.874   7.592  17.177  0.00  0.00    +0.000 C 
ENDROOT
BRANCH   3   5
ATOM      5  C   UNL     1       4.596   7.214  18.118  0.00  0.00    +0.000 C 
ATOM      6  C   UNL     1       3.839   6.443  19.249  0.00  0.00    +0.000 C 
ATOM      7  C   UNL     1       2.603   7.321  19.296  0.00  0.00    +0.000 A 
ATOM      8  C   UNL     1       1.772   7.654  20.345  0.00  0.00    +0.000 A 
ATOM      9  C   UNL     1       0.926   8.770  20.185  0.00  0.00    +0.000 A 
ATOM     10  C   UNL     1       0.918   9.539  18.993  0.00  0.00    +0.000 A 
ATOM     11  C   UNL     1       1.596   9.031  17.885  0.00  0.00    +0.000 A 
ATOM     12  C   UNL     1       2.453   7.972  18.065  0.00  0.00    +0.000 A 
ATOM     13  C   UNL     1       3.494   7.533  17.102  0.00  0.00    +0.000 C 
BRANCH  10  14
ATOM     14  C   UNL     1       0.257  10.914  18.887  0.00  0.00    +0.000 C 
ATOM     15  C   UNL     1       0.202  11.728  20.182  0.00  0.00    +0.000 C 
ATOM     16  C   UNL     1       1.620  12.266  20.335  0.00  0.00    +0.000 C 
ATOM     17  C   UNL     1       2.142  12.354  18.908  0.00  0.00    +0.000 C 
ATOM     18  N   UNL     1       1.033  11.884  18.077  0.00  0.00    +0.000 NA
ATOM     19  H   UNL     1       1.372  11.492  17.205  0.00  0.00    +0.000 HD
ENDBRANCH  10  14
ENDBRANCH   3   5
BRANCH   1  23
ATOM     20  C   UNL     1       2.892   2.439  18.272  0.00  0.00    +0.000 A 
ATOM     21  C   UNL     1       2.930   3.223  17.119  0.00  0.00    +0.000 A 
ATOM     22  C   UNL     1       3.997   4.115  16.899  0.00  0.00    +0.000 A 
ATOM     23  C   UNL     1       5.047   4.247  17.822  0.00  0.00    +0.000 A 
ATOM     24  C   UNL     1       4.990   3.477  18.989  0.00  0.00    +0.000 A 
ATOM     25  C   UNL     1       3.933   2.566  19.198  0.00  0.00    +0.000 A 
BRANCH  20  26
ATOM     26  O   UNL     1       1.898   1.550  18.604  0.00  0.00    +0.000 OA
BRANCH  26  27
ATOM     27  C   UNL     1       0.602   2.109  18.855  0.00  0.00    +0.000 C 
BRANCH  27  28
ATOM     28  C   UNL     1       0.696   3.333  19.775  0.00  0.00    +0.000 C 
BRANCH  28  30
ATOM     29  C   UNL     1       2.270   3.760  21.734  0.00  0.00    +0.000 C 
ATOM     30  C   UNL     1       1.138   2.908  21.181  0.00  0.00    +0.000 C 
ENDBRANCH  28  30
ENDBRANCH  27  28
ENDBRANCH  26  27
ENDBRANCH  20  26
ENDBRANCH   1  23
TORSDOF 7
ENDMDL
