MODEL 1
REMARK VINA RESULT:      -7.6      0.000      0.000
REMARK  Name = 
REMARK  5 active torsions:
REMARK  status: ('A' for Active; 'I' for Inactive)
REMARK    1  A    between atoms: C_1  and  C_2
REMARK    2  A    between atoms: C_5  and  C_6
REMARK    3  A    between atoms: C_6  and  N_7
REMARK    4  A    between atoms: C_9  and  C_10
REMARK    5  A    between atoms: N_12  and  C_13
REMARK                            x       y       z     vdW  Elec       q    Type
REMARK                         _______ _______ _______ _____ _____    ______ ____
ROOT
ATOM      1  N   UNL     1       3.072   6.966  18.533  0.00  0.00    +0.000 NA
ATOM      2  C   UNL     1       4.400   6.682  17.988  0.00  0.00    +0.000 C 
ATOM      3  C   UNL     1       4.741   5.217  18.293  0.00  0.00    +0.000 C 
ATOM      4  C   UNL     1       3.373   4.525  18.552  0.00  0.00    +0.000 C 
ATOM      5  C   UNL     1       3.369   3.704  19.865  0.00  0.00    +0.000 C 
ATOM      6  C   UNL     1       4.165   2.418  19.748  0.00  0.00    +0.000 C 
ATOM      7  O   UNL     1       3.734   1.607  18.666  0.00  0.00    +0.000 OA
ATOM      8  C   UNL     1       3.594   2.238  17.395  0.00  0.00    +0.000 C 
ATOM      9  C   UNL     1       2.861   3.572  17.451  0.00  0.00    +0.000 C 
ATOM     10  C   UNL     1       2.366   5.697  18.698  0.00  0.00    +0.000 C 
ENDROOT
BRANCH   3  11
ATOM     11  C   UNL     1       5.625   4.700  17.142  0.00  0.00    +0.000 C 
ATOM     12  O   UNL     1       6.598   3.980  17.356  0.00  0.00    +0.000 OA
ATOM     13  N   UNL     1       5.262   5.159  15.887  0.00  0.00    +0.000 N 
ATOM     14  H   UNL     1       4.674   5.975  15.835  0.00  0.00    +0.000 HD
BRANCH  13  15
ATOM     15  C   UNL     1       5.827   4.744  14.661  0.00  0.00    +0.000 A 
ATOM     16  C   UNL     1       5.199   3.837  13.806  0.00  0.00    +0.000 A 
ATOM     17  C   UNL     1       5.794   3.477  12.593  0.00  0.00    +0.000 A 
ATOM     18  C   UNL     1       7.023   4.020  12.226  0.00  0.00    +0.000 A 
ATOM     19  C   UNL     1       7.657   4.930  13.063  0.00  0.00    +0.000 A 
ATOM     20  C   UNL     1       7.050   5.300  14.276  0.00  0.00    +0.000 A 
ENDBRANCH  13  15
ENDBRANCH   3  11
BRANCH   1  21
ATOM     21  C   UNL     1       2.314   7.874  17.639  0.00  0.00    +0.000 C 
BRANCH  21  26
ATOM     22  C   UNL     1       0.261  11.303  21.212  0.00  0.00    +0.000 C 
ATOM     23  C   UNL     1       0.863  10.690  19.993  0.00  0.00    +0.000 A 
ATOM     24  C   UNL     1       1.280  11.321  18.840  0.00  0.00    +0.000 A 
ATOM     25  C   UNL     1       1.834  10.413  17.899  0.00  0.00    +0.000 A 
ATOM     26  C   UNL     1       1.806   9.105  18.341  0.00  0.00    +0.000 A 
ATOM     27  S   UNL     1       1.126   9.001  19.912  0.00  0.00    +0.000 S 
ENDBRANCH  21  26
ENDBRANCH   1  21
TORSDOF 4
ENDMDL
MODEL 2
REMARK VINA RESULT:      -7.5      0.533      1.084
REMARK  Name = 
REMARK  5 active torsions:
REMARK  status: ('A' for Active; 'I' for Inactive)
REMARK    1  A    between atoms: C_1  and  C_2
REMARK    2  A    between atoms: C_5  and  C_6
REMARK    3  A    between atoms: C_6  and  N_7
REMARK    4  A    between atoms: C_9  and  C_10
REMARK    5  A    between atoms: N_12  and  C_13
REMARK                            x       y       z     vdW  Elec       q    Type
REMARK                         _______ _______ _______ _____ _____    ______ ____
ROOT
ATOM      1  N   UNL     1       3.094   7.016  18.605  0.00  0.00    +0.000 NA
ATOM      2  C   UNL     1       4.423   6.727  18.064  0.00  0.00    +0.000 C 
ATOM      3  C   UNL     1       4.748   5.254  18.348  0.00  0.00    +0.000 C 
ATOM      4  C   UNL     1       3.371   4.572  18.585  0.00  0.00    +0.000 C 
ATOM      5  C   UNL     1       3.349   3.729  19.885  0.00  0.00    +0.000 C 
ATOM      6  C   UNL     1       4.134   2.438  19.752  0.00  0.00    +0.000 C 
ATOM      7  O   UNL     1       3.703   1.649  18.653  0.00  0.00    +0.000 OA
ATOM      8  C   UNL     1       3.579   2.302  17.393  0.00  0.00    +0.000 C 
ATOM      9  C   UNL     1       2.859   3.643  17.465  0.00  0.00    +0.000 C 
ATOM     10  C   UNL     1       2.375   5.751  18.743  0.00  0.00    +0.000 C 
ENDROOT
BRANCH   3  11
ATOM     11  C   UNL     1       5.635   4.748  17.195  0.00  0.00    +0.000 C 
ATOM     12  O   UNL     1       6.577   3.985  17.400  0.00  0.00    +0.000 OA
ATOM     13  N   UNL     1       5.315   5.266  15.952  0.00  0.00    +0.000 N 
ATOM     14  H   UNL     1       4.757   6.104  15.919  0.00  0.00    +0.000 HD
BRANCH  13  15
ATOM     15  C   UNL     1       5.888   4.876  14.721  0.00  0.00    +0.000 A 
ATOM     16  C   UNL     1       7.120   5.355  14.273  0.00  0.00    +0.000 A 
ATOM     17  C   UNL     1       7.650   4.919  13.055  0.00  0.00    +0.000 A 
ATOM     18  C   UNL     1       6.953   4.001  12.275  0.00  0.00    +0.000 A 
ATOM     19  C   UNL     1       5.729   3.508  12.711  0.00  0.00    +0.000 A 
ATOM     20  C   UNL     1       5.203   3.939  13.942  0.00  0.00    +0.000 A 
ENDBRANCH  13  15
ENDBRANCH   3  11
BRANCH   1  21
ATOM     21  C   UNL     1       2.352   7.946  17.720  0.00  0.00    +0.000 C 
BRANCH  21  26
ATOM     22  C   UNL     1      -0.330  10.572  21.548  0.00  0.00    +0.000 C 
ATOM     23  C   UNL     1       0.178  10.069  20.239  0.00  0.00    +0.000 A 
ATOM     24  C   UNL     1      -0.179  10.480  18.972  0.00  0.00    +0.000 A 
ATOM     25  C   UNL     1       0.541   9.791  17.959  0.00  0.00    +0.000 A 
ATOM     26  C   UNL     1       1.413   8.852  18.471  0.00  0.00    +0.000 A 
ATOM     27  S   UNL     1       1.364   8.836  20.186  0.00  0.00    +0.000 S 
ENDBRANCH  21  26
ENDBRANCH   1  21
TORSDOF 4
ENDMDL
MODEL 3
REMARK VINA RESULT:      -7.4      1.590      2.167
REMARK  Name = 
REMARK  5 active torsions:
REMARK  status: ('A' for Active; 'I' for Inactive)
REMARK    1  A    between atoms: C_1  and  C_2
REMARK    2  A    between atoms: C_5  and  C_6
REMARK    3  A    between atoms: C_6  and  N_7
REMARK    4  A    between atoms: C_9  and  C_10
REMARK    5  A    between atoms: N_12  and  C_13
REMARK                            x       y       z     vdW  Elec       q    Type
REMARK                         _______ _______ _______ _____ _____    ______ ____
ROOT
ATOM      1  N   UNL     1       2.193   7.100  20.051  0.00  0.00    +0.000 NA
ATOM      2  C   UNL     1       3.529   6.603  19.718  0.00  0.00    +0.000 C 
ATOM      3  C   UNL     1       3.497   5.069  19.771  0.00  0.00    +0.000 C 
ATOM      4  C   UNL     1       1.998   4.687  19.617  0.00  0.00    +0.000 C 
ATOM      5  C   UNL     1       1.532   3.688  20.705  0.00  0.00    +0.000 C 
ATOM      6  C   UNL     1       2.066   2.287  20.475  0.00  0.00    +0.000 C 
ATOM      7  O   UNL     1       1.745   1.787  19.186  0.00  0.00    +0.000 OA
ATOM      8  C   UNL     1       2.027   2.630  18.072  0.00  0.00    +0.000 C 
ATOM      9  C   UNL     1       1.577   4.073  18.265  0.00  0.00    +0.000 C 
ATOM     10  C   UNL     1       1.234   6.023  19.812  0.00  0.00    +0.000 C 
ENDROOT
BRANCH   3  11
ATOM     11  C   UNL     1       4.503   4.552  18.724  0.00  0.00    +0.000 C 
ATOM     12  O   UNL     1       5.138   3.515  18.905  0.00  0.00    +0.000 OA
ATOM     13  N   UNL     1       4.659   5.373  17.621  0.00  0.00    +0.000 N 
ATOM     14  H   UNL     1       4.356   6.331  17.698  0.00  0.00    +0.000 HD
BRANCH  13  15
ATOM     15  C   UNL     1       5.422   5.075  16.470  0.00  0.00    +0.000 A 
ATOM     16  C   UNL     1       6.767   5.423  16.340  0.00  0.00    +0.000 A 
ATOM     17  C   UNL     1       7.479   5.084  15.186  0.00  0.00    +0.000 A 
ATOM     18  C   UNL     1       6.852   4.395  14.151  0.00  0.00    +0.000 A 
ATOM     19  C   UNL     1       5.515   4.034  14.269  0.00  0.00    +0.000 A 
ATOM     20  C   UNL     1       4.804   4.365  15.436  0.00  0.00    +0.000 A 
ENDBRANCH  13  15
ENDBRANCH   3  11
BRANCH   1  21
ATOM     21  C   UNL     1       1.854   8.293  19.240  0.00  0.00    +0.000 C 
BRANCH  21  26
ATOM     22  C   UNL     1      -0.936  11.044  22.899  0.00  0.00    +0.000 C 
ATOM     23  C   UNL     1      -0.390  10.500  21.623  0.00  0.00    +0.000 A 
ATOM     24  C   UNL     1      -0.705  10.873  20.333  0.00  0.00    +0.000 A 
ATOM     25  C   UNL     1       0.043  10.150  19.365  0.00  0.00    +0.000 A 
ATOM     26  C   UNL     1       0.896   9.225  19.933  0.00  0.00    +0.000 A 
ATOM     27  S   UNL     1       0.793   9.263  21.645  0.00  0.00    +0.000 S 
ENDBRANCH  21  26
ENDBRANCH   1  21
TORSDOF 4
ENDMDL
MODEL 4
REMARK VINA RESULT:      -7.3      0.719      1.345
REMARK  Name = 
REMARK  5 active torsions:
REMARK  status: ('A' for Active; 'I' for Inactive)
REMARK    1  A    between atoms: C_1  and  C_2
REMARK    2  A    between atoms: C_5  and  C_6
REMARK    3  A    between atoms: C_6  and  N_7
REMARK    4  A    between atoms: C_9  and  C_10
REMARK    5  A    between atoms: N_12  and  C_13
REMARK                            x       y       z     vdW  Elec       q    Type
REMARK                         _______ _______ _______ _____ _____    ______ ____
ROOT
ATOM      1  N   UNL     1       3.008   6.915  18.733  0.00  0.00    +0.000 NA
ATOM      2  C   UNL     1       4.346   6.657  18.198  0.00  0.00    +0.000 C 
ATOM      3  C   UNL     1       4.689   5.183  18.451  0.00  0.00    +0.000 C 
ATOM      4  C   UNL     1       3.320   4.476  18.659  0.00  0.00    +0.000 C 
ATOM      5  C   UNL     1       3.298   3.603  19.938  0.00  0.00    +0.000 C 
ATOM      6  C   UNL     1       4.101   2.326  19.783  0.00  0.00    +0.000 C 
ATOM      7  O   UNL     1       3.691   1.557  18.662  0.00  0.00    +0.000 OA
ATOM      8  C   UNL     1       3.570   2.238  17.416  0.00  0.00    +0.000 C 
ATOM      9  C   UNL     1       2.830   3.566  17.513  0.00  0.00    +0.000 C 
ATOM     10  C   UNL     1       2.305   5.637  18.835  0.00  0.00    +0.000 C 
ENDROOT
BRANCH   3  11
ATOM     11  C   UNL     1       5.593   4.716  17.294  0.00  0.00    +0.000 C 
ATOM     12  O   UNL     1       6.567   3.994  17.495  0.00  0.00    +0.000 OA
ATOM     13  N   UNL     1       5.247   5.220  16.052  0.00  0.00    +0.000 N 
ATOM     14  H   UNL     1       4.654   6.034  16.022  0.00  0.00    +0.000 HD
BRANCH  13  15
ATOM     15  C   UNL     1       5.833   4.856  14.820  0.00  0.00    +0.000 A 
ATOM     16  C   UNL     1       7.071   5.342  14.396  0.00  0.00    +0.000 A 
ATOM     17  C   UNL     1       7.613   4.932  13.175  0.00  0.00    +0.000 A 
ATOM     18  C   UNL     1       6.922   4.034  12.366  0.00  0.00    +0.000 A 
ATOM     19  C   UNL     1       5.692   3.535  12.778  0.00  0.00    +0.000 A 
ATOM     20  C   UNL     1       5.154   3.940  14.012  0.00  0.00    +0.000 A 
ENDBRANCH  13  15
ENDBRANCH   3  11
BRANCH   1  21
ATOM     21  C   UNL     1       2.260   7.855  17.863  0.00  0.00    +0.000 C 
BRANCH  21  26
ATOM     22  C   UNL     1       0.798  12.798  19.334  0.00  0.00    +0.000 C 
ATOM     23  C   UNL     1       1.038  11.327  19.287  0.00  0.00    +0.000 A 
ATOM     24  C   UNL     1       0.657  10.372  20.206  0.00  0.00    +0.000 A 
ATOM     25  C   UNL     1       1.036   9.061  19.809  0.00  0.00    +0.000 A 
ATOM     26  C   UNL     1       1.719   9.045  18.610  0.00  0.00    +0.000 A 
ATOM     27  S   UNL     1       1.870  10.627  17.965  0.00  0.00    +0.000 S 
ENDBRANCH  21  26
ENDBRANCH   1  21
TORSDOF 4
ENDMDL
MODEL 5
REMARK VINA RESULT:      -7.3      2.600      6.732
REMARK  Name = 
REMARK  5 active torsions:
REMARK  status: ('A' for Active; 'I' for Inactive)
REMARK    1  A    between atoms: C_1  and  C_2
REMARK    2  A    between atoms: C_5  and  C_6
REMARK    3  A    between atoms: C_6  and  N_7
REMARK    4  A    between atoms: C_9  and  C_10
REMARK    5  A    between atoms: N_12  and  C_13
REMARK                            x       y       z     vdW  Elec       q    Type
REMARK                         _______ _______ _______ _____ _____    ______ ____
ROOT
ATOM      1  N   UNL     1       4.663   3.916  16.468  0.00  0.00    +0.000 NA
ATOM      2  C   UNL     1       4.166   5.240  16.845  0.00  0.00    +0.000 C 
ATOM      3  C   UNL     1       2.981   5.054  17.802  0.00  0.00    +0.000 C 
ATOM      4  C   UNL     1       3.147   3.621  18.383  0.00  0.00    +0.000 C 
ATOM      5  C   UNL     1       1.843   2.791  18.281  0.00  0.00    +0.000 C 
ATOM      6  C   UNL     1       0.793   3.235  19.282  0.00  0.00    +0.000 C 
ATOM      7  O   UNL     1       1.275   3.224  20.618  0.00  0.00    +0.000 OA
ATOM      8  C   UNL     1       2.521   3.870  20.865  0.00  0.00    +0.000 C 
ATOM      9  C   UNL     1       3.604   3.519  19.853  0.00  0.00    +0.000 C 
ATOM     10  C   UNL     1       4.225   2.960  17.484  0.00  0.00    +0.000 C 
ENDROOT
BRANCH   3  11
ATOM     11  C   UNL     1       2.982   6.249  18.774  0.00  0.00    +0.000 C 
ATOM     12  O   UNL     1       4.016   6.626  19.323  0.00  0.00    +0.000 OA
ATOM     13  N   UNL     1       1.735   6.804  19.007  0.00  0.00    +0.000 N 
ATOM     14  H   UNL     1       0.923   6.253  18.780  0.00  0.00    +0.000 HD
BRANCH  13  15
ATOM     15  C   UNL     1       1.478   7.975  19.754  0.00  0.00    +0.000 A 
ATOM     16  C   UNL     1       1.304   9.228  19.164  0.00  0.00    +0.000 A 
ATOM     17  C   UNL     1       1.031  10.350  19.952  0.00  0.00    +0.000 A 
ATOM     18  C   UNL     1       0.931  10.229  21.336  0.00  0.00    +0.000 A 
ATOM     19  C   UNL     1       1.095   8.987  21.937  0.00  0.00    +0.000 A 
ATOM     20  C   UNL     1       1.357   7.857  21.142  0.00  0.00    +0.000 A 
ENDBRANCH  13  15
ENDBRANCH   3  11
BRANCH   1  21
ATOM     21  C   UNL     1       6.141   3.916  16.354  0.00  0.00    +0.000 C 
BRANCH  21  26
ATOM     22  C   UNL     1       8.181   8.587  18.018  0.00  0.00    +0.000 C 
ATOM     23  C   UNL     1       7.732   7.167  17.928  0.00  0.00    +0.000 A 
ATOM     24  C   UNL     1       7.787   6.194  18.903  0.00  0.00    +0.000 A 
ATOM     25  C   UNL     1       7.236   4.960  18.464  0.00  0.00    +0.000 A 
ATOM     26  C   UNL     1       6.795   5.009  17.157  0.00  0.00    +0.000 A 
ATOM     27  S   UNL     1       7.034   6.568  16.485  0.00  0.00    +0.000 S 
ENDBRANCH  21  26
ENDBRANCH   1  21
TORSDOF 4
ENDMDL
MODEL 6
REMARK VINA RESULT:      -7.2      1.648      2.079
REMARK  Name = 
REMARK  5 active torsions:
REMARK  status: ('A' for Active; 'I' for Inactive)
REMARK    1  A    between atoms: C_1  and  C_2
REMARK    2  A    between atoms: C_5  and  C_6
REMARK    3  A    between atoms: C_6  and  N_7
REMARK    4  A    between atoms: C_9  and  C_10
REMARK    5  A    between atoms: N_12  and  C_13
REMARK                            x       y       z     vdW  Elec       q    Type
REMARK                         _______ _______ _______ _____ _____    ______ ____
ROOT
ATOM      1  N   UNL     1       2.221   7.130  20.017  0.00  0.00    +0.000 NA
ATOM      2  C   UNL     1       3.532   6.608  19.627  0.00  0.00    +0.000 C 
ATOM      3  C   UNL     1       3.496   5.079  19.751  0.00  0.00    +0.000 C 
ATOM      4  C   UNL     1       1.988   4.702  19.704  0.00  0.00    +0.000 C 
ATOM      5  C   UNL     1       1.583   3.757  20.862  0.00  0.00    +0.000 C 
ATOM      6  C   UNL     1       2.095   2.342  20.664  0.00  0.00    +0.000 C 
ATOM      7  O   UNL     1       1.695   1.788  19.420  0.00  0.00    +0.000 OA
ATOM      8  C   UNL     1       1.914   2.578  18.254  0.00  0.00    +0.000 C 
ATOM      9  C   UNL     1       1.484   4.031  18.409  0.00  0.00    +0.000 C 
ATOM     10  C   UNL     1       1.244   6.051  19.883  0.00  0.00    +0.000 C 
ENDROOT
BRANCH   3  11
ATOM     11  C   UNL     1       4.434   4.508  18.671  0.00  0.00    +0.000 C 
ATOM     12  O   UNL     1       4.973   3.411  18.806  0.00  0.00    +0.000 OA
ATOM     13  N   UNL     1       4.651   5.348  17.592  0.00  0.00    +0.000 N 
ATOM     14  H   UNL     1       4.439   6.327  17.707  0.00  0.00    +0.000 HD
BRANCH  13  15
ATOM     15  C   UNL     1       5.366   5.021  16.419  0.00  0.00    +0.000 A 
ATOM     16  C   UNL     1       4.779   4.376  15.329  0.00  0.00    +0.000 A 
ATOM     17  C   UNL     1       5.529   4.094  14.184  0.00  0.00    +0.000 A 
ATOM     18  C   UNL     1       6.873   4.453  14.120  0.00  0.00    +0.000 A 
ATOM     19  C   UNL     1       7.470   5.102  15.193  0.00  0.00    +0.000 A 
ATOM     20  C   UNL     1       6.710   5.396  16.339  0.00  0.00    +0.000 A 
ENDBRANCH  13  15
ENDBRANCH   3  11
BRANCH   1  21
ATOM     21  C   UNL     1       1.840   8.289  19.174  0.00  0.00    +0.000 C 
BRANCH  21  26
ATOM     22  C   UNL     1      -1.622  12.200  20.381  0.00  0.00    +0.000 C 
ATOM     23  C   UNL     1      -0.635  11.084  20.453  0.00  0.00    +0.000 A 
ATOM     24  C   UNL     1      -0.150  10.447  21.577  0.00  0.00    +0.000 A 
ATOM     25  C   UNL     1       0.759   9.404  21.254  0.00  0.00    +0.000 A 
ATOM     26  C   UNL     1       0.968   9.281  19.895  0.00  0.00    +0.000 A 
ATOM     27  S   UNL     1       0.034  10.425  19.023  0.00  0.00    +0.000 S 
ENDBRANCH  21  26
ENDBRANCH   1  21
TORSDOF 4
ENDMDL
MODEL 7
REMARK VINA RESULT:      -6.7      1.282      1.397
REMARK  Name = 
REMARK  5 active torsions:
REMARK  status: ('A' for Active; 'I' for Inactive)
REMARK    1  A    between atoms: C_1  and  C_2
REMARK    2  A    between atoms: C_5  and  C_6
REMARK    3  A    between atoms: C_6  and  N_7
REMARK    4  A    between atoms: C_9  and  C_10
REMARK    5  A    between atoms: N_12  and  C_13
REMARK                            x       y       z     vdW  Elec       q    Type
REMARK                         _______ _______ _______ _____ _____    ______ ____
ROOT
ATOM      1  N   UNL     1       2.565   7.527  18.802  0.00  0.00    +0.000 NA
ATOM      2  C   UNL     1       3.889   7.055  18.395  0.00  0.00    +0.000 C 
ATOM      3  C   UNL     1       4.002   5.568  18.759  0.00  0.00    +0.000 C 
ATOM      4  C   UNL     1       2.535   5.069  18.892  0.00  0.00    +0.000 C 
ATOM      5  C   UNL     1       2.297   4.295  20.213  0.00  0.00    +0.000 C 
ATOM      6  C   UNL     1       2.922   2.913  20.197  0.00  0.00    +0.000 C 
ATOM      7  O   UNL     1       2.492   2.133  19.092  0.00  0.00    +0.000 OA
ATOM      8  C   UNL     1       2.560   2.738  17.803  0.00  0.00    +0.000 C 
ATOM      9  C   UNL     1       2.009   4.158  17.763  0.00  0.00    +0.000 C 
ATOM     10  C   UNL     1       1.684   6.365  18.918  0.00  0.00    +0.000 C 
ENDROOT
BRANCH   3  11
ATOM     11  C   UNL     1       4.915   4.906  17.709  0.00  0.00    +0.000 C 
ATOM     12  O   UNL     1       5.629   3.947  17.996  0.00  0.00    +0.000 OA
ATOM     13  N   UNL     1       4.896   5.512  16.465  0.00  0.00    +0.000 N 
ATOM     14  H   UNL     1       4.545   6.454  16.404  0.00  0.00    +0.000 HD
BRANCH  13  15
ATOM     15  C   UNL     1       5.543   5.035  15.303  0.00  0.00    +0.000 A 
ATOM     16  C   UNL     1       4.931   4.167  14.397  0.00  0.00    +0.000 A 
ATOM     17  C   UNL     1       5.611   3.743  13.252  0.00  0.00    +0.000 A 
ATOM     18  C   UNL     1       6.909   4.181  13.004  0.00  0.00    +0.000 A 
ATOM     19  C   UNL     1       7.529   5.051  13.892  0.00  0.00    +0.000 A 
ATOM     20  C   UNL     1       6.838   5.487  15.037  0.00  0.00    +0.000 A 
ENDBRANCH  13  15
ENDBRANCH   3  11
BRANCH   1  21
ATOM     21  C   UNL     1       2.023   8.498  17.822  0.00  0.00    +0.000 C 
BRANCH  21  26
ATOM     22  C   UNL     1      -2.272  11.530  18.872  0.00  0.00    +0.000 C 
ATOM     23  C   UNL     1      -0.937  10.866  18.921  0.00  0.00    +0.000 A 
ATOM     24  C   UNL     1       0.042  10.993  19.883  0.00  0.00    +0.000 A 
ATOM     25  C   UNL     1       1.175  10.181  19.609  0.00  0.00    +0.000 A 
ATOM     26  C   UNL     1       1.048   9.470  18.432  0.00  0.00    +0.000 A 
ATOM     27  S   UNL     1      -0.463   9.782  17.684  0.00  0.00    +0.000 S 
ENDBRANCH  21  26
ENDBRANCH   1  21
TORSDOF 4
ENDMDL
MODEL 8
REMARK VINA RESULT:      -6.5      1.981      2.897
REMARK  Name = 
REMARK  5 active torsions:
REMARK  status: ('A' for Active; 'I' for Inactive)
REMARK    1  A    between atoms: C_1  and  C_2
REMARK    2  A    between atoms: C_5  and  C_6
REMARK    3  A    between atoms: C_6  and  N_7
REMARK    4  A    between atoms: C_9  and  C_10
REMARK    5  A    between atoms: N_12  and  C_13
REMARK                            x       y       z     vdW  Elec       q    Type
REMARK                         _______ _______ _______ _____ _____    ______ ____
ROOT
ATOM      1  N   UNL     1       1.552   7.519  20.542  0.00  0.00    +0.000 NA
ATOM      2  C   UNL     1       2.696   7.580  19.630  0.00  0.00    +0.000 C 
ATOM      3  C   UNL     1       3.244   6.158  19.451  0.00  0.00    +0.000 C 
ATOM      4  C   UNL     1       2.073   5.217  19.850  0.00  0.00    +0.000 C 
ATOM      5  C   UNL     1       2.512   4.131  20.864  0.00  0.00    +0.000 C 
ATOM      6  C   UNL     1       3.360   3.048  20.224  0.00  0.00    +0.000 C 
ATOM      7  O   UNL     1       2.722   2.444  19.109  0.00  0.00    +0.000 OA
ATOM      8  C   UNL     1       2.175   3.314  18.122  0.00  0.00    +0.000 C 
ATOM      9  C   UNL     1       1.365   4.467  18.702  0.00  0.00    +0.000 C 
ATOM     10  C   UNL     1       1.043   6.149  20.540  0.00  0.00    +0.000 C 
ENDROOT
BRANCH   3  11
ATOM     11  C   UNL     1       3.815   6.062  18.023  0.00  0.00    +0.000 C 
ATOM     12  O   UNL     1       3.369   6.752  17.108  0.00  0.00    +0.000 OA
ATOM     13  N   UNL     1       4.808   5.111  17.862  0.00  0.00    +0.000 N 
ATOM     14  H   UNL     1       4.886   4.388  18.559  0.00  0.00    +0.000 HD
BRANCH  13  15
ATOM     15  C   UNL     1       5.575   4.907  16.694  0.00  0.00    +0.000 A 
ATOM     16  C   UNL     1       6.864   5.418  16.535  0.00  0.00    +0.000 A 
ATOM     17  C   UNL     1       7.587   5.167  15.365  0.00  0.00    +0.000 A 
ATOM     18  C   UNL     1       7.026   4.405  14.343  0.00  0.00    +0.000 A 
ATOM     19  C   UNL     1       5.746   3.884  14.489  0.00  0.00    +0.000 A 
ATOM     20  C   UNL     1       5.026   4.127  15.672  0.00  0.00    +0.000 A 
ENDBRANCH  13  15
ENDBRANCH   3  11
BRANCH   1  21
ATOM     21  C   UNL     1       0.494   8.472  20.131  0.00  0.00    +0.000 C 
BRANCH  21  26
ATOM     22  C   UNL     1      -1.331  12.570  23.067  0.00  0.00    +0.000 C 
ATOM     23  C   UNL     1      -0.827  11.241  22.614  0.00  0.00    +0.000 A 
ATOM     24  C   UNL     1      -0.653  10.096  23.363  0.00  0.00    +0.000 A 
ATOM     25  C   UNL     1      -0.180   9.008  22.581  0.00  0.00    +0.000 A 
ATOM     26  C   UNL     1       0.021   9.351  21.258  0.00  0.00    +0.000 A 
ATOM     27  S   UNL     1      -0.393  10.991  20.977  0.00  0.00    +0.000 S 
ENDBRANCH  21  26
ENDBRANCH   1  21
TORSDOF 4
ENDMDL
MODEL 9
REMARK VINA RESULT:      -6.4      1.477      2.109
REMARK  Name = 
REMARK  5 active torsions:
REMARK  status: ('A' for Active; 'I' for Inactive)
REMARK    1  A    between atoms: C_1  and  C_2
REMARK    2  A    between atoms: C_5  and  C_6
REMARK    3  A    between atoms: C_6  and  N_7
REMARK    4  A    between atoms: C_9  and  C_10
REMARK    5  A    between atoms: N_12  and  C_13
REMARK                            x       y       z     vdW  Elec       q    Type
REMARK                         _______ _______ _______ _____ _____    ______ ____
ROOT
ATOM      1  N   UNL     1       2.664   7.432  19.495  0.00  0.00    +0.000 NA
ATOM      2  C   UNL     1       3.693   7.505  18.457  0.00  0.00    +0.000 C 
ATOM      3  C   UNL     1       4.195   6.082  18.177  0.00  0.00    +0.000 C 
ATOM      4  C   UNL     1       3.064   5.144  18.686  0.00  0.00    +0.000 C 
ATOM      5  C   UNL     1       3.603   4.025  19.612  0.00  0.00    +0.000 C 
ATOM      6  C   UNL     1       4.353   2.950  18.849  0.00  0.00    +0.000 C 
ATOM      7  O   UNL     1       3.579   2.385  17.801  0.00  0.00    +0.000 OA
ATOM      8  C   UNL     1       2.933   3.290  16.908  0.00  0.00    +0.000 C 
ATOM      9  C   UNL     1       2.216   4.436  17.610  0.00  0.00    +0.000 C 
ATOM     10  C   UNL     1       2.136   6.069  19.517  0.00  0.00    +0.000 C 
ENDROOT
BRANCH   3  11
ATOM     11  C   UNL     1       4.593   6.019  16.690  0.00  0.00    +0.000 C 
ATOM     12  O   UNL     1       4.204   6.865  15.887  0.00  0.00    +0.000 OA
ATOM     13  N   UNL     1       5.359   4.919  16.344  0.00  0.00    +0.000 N 
ATOM     14  H   UNL     1       5.362   4.130  16.971  0.00  0.00    +0.000 HD
BRANCH  13  15
ATOM     15  C   UNL     1       5.953   4.688  15.084  0.00  0.00    +0.000 A 
ATOM     16  C   UNL     1       7.171   5.254  14.705  0.00  0.00    +0.000 A 
ATOM     17  C   UNL     1       7.723   4.975  13.451  0.00  0.00    +0.000 A 
ATOM     18  C   UNL     1       7.061   4.129  12.565  0.00  0.00    +0.000 A 
ATOM     19  C   UNL     1       5.851   3.552  12.931  0.00  0.00    +0.000 A 
ATOM     20  C   UNL     1       5.304   3.824  14.197  0.00  0.00    +0.000 A 
ENDBRANCH  13  15
ENDBRANCH   3  11
BRANCH   1  21
ATOM     21  C   UNL     1       1.579   8.409  19.236  0.00  0.00    +0.000 C 
BRANCH  21  26
ATOM     22  C   UNL     1      -1.146  11.381  22.770  0.00  0.00    +0.000 C 
ATOM     23  C   UNL     1      -0.257  10.369  22.129  0.00  0.00    +0.000 A 
ATOM     24  C   UNL     1       0.467   9.365  22.736  0.00  0.00    +0.000 A 
ATOM     25  C   UNL     1       1.180   8.572  21.797  0.00  0.00    +0.000 A 
ATOM     26  C   UNL     1       1.006   9.001  20.496  0.00  0.00    +0.000 A 
ATOM     27  S   UNL     1      -0.046  10.354  20.430  0.00  0.00    +0.000 S 
ENDBRANCH  21  26
ENDBRANCH   1  21
TORSDOF 4
ENDMDL
