MODEL 1
REMARK VINA RESULT:      -6.3      0.000      0.000
REMARK  Name = 
REMARK  5 active torsions:
REMARK  status: ('A' for Active; 'I' for Inactive)
REMARK    1  A    between atoms: N_1  and  C_2
REMARK    2  A    between atoms: C_2  and  C_3
REMARK    3  A    between atoms: C_3  and  C_4
REMARK    4  A    between atoms: N_8  and  C_9
REMARK    5  A    between atoms: C_9  and  C_10
REMARK                            x       y       z     vdW  Elec       q    Type
REMARK                         _______ _______ _______ _____ _____    ______ ____
ROOT
ATOM      1  C   UNL     1       1.541   3.487  18.357  0.00  0.00    +0.000 C 
ATOM      2  C   UNL     1       1.972   4.959  18.488  0.00  0.00    +0.000 C 
ATOM      3  N   UNL     1       3.198   4.986  17.747  0.00  0.00    +0.000 N 
ATOM      4  C   UNL     1       3.629   3.650  17.615  0.00  0.00    +0.000 C 
ATOM      5  N   UNL     1       4.918   3.270  17.142  0.00  0.00    +0.000 N 
ATOM      6  N   UNL     1       2.759   2.796  18.002  0.00  0.00    +0.000 NA
ATOM      7  H   UNL     1       3.781   5.823  17.616  0.00  0.00    +0.000 HD
ATOM      8  H   UNL     1       5.240   2.301  17.299  0.00  0.00    +0.000 HD
ENDROOT
BRANCH   1   9
ATOM      9  C   UNL     1       0.859   2.889  19.593  0.00  0.00    +0.000 C 
BRANCH   9  10
ATOM     10  C   UNL     1       1.404   3.488  20.897  0.00  0.00    +0.000 C 
BRANCH  10  11
ATOM     11  N   UNL     1       2.647   2.825  21.274  0.00  0.00    +0.000 NA
ATOM     12  H   UNL     1       2.757   1.971  20.681  0.00  0.00    +0.000 HD
ATOM     13  H   UNL     1       2.580   2.513  22.270  0.00  0.00    +0.000 HD
ENDBRANCH  10  11
ENDBRANCH   9  10
ENDBRANCH   1   9
BRANCH   5  14
ATOM     14  C   UNL     1       5.725   4.136  16.307  0.00  0.00    +0.000 C 
BRANCH  14  15
ATOM     15  C   UNL     1       6.506   5.137  17.112  0.00  0.00    +0.000 A 
ATOM     16  C   UNL     1       7.195   4.736  18.270  0.00  0.00    +0.000 A 
ATOM     17  C   UNL     1       7.961   5.660  18.987  0.00  0.00    +0.000 A 
ATOM     18  C   UNL     1       8.049   6.985  18.554  0.00  0.00    +0.000 A 
ATOM     19  C   UNL     1       7.364   7.392  17.405  0.00  0.00    +0.000 A 
ATOM     20  C   UNL     1       6.594   6.472  16.685  0.00  0.00    +0.000 A 
ENDBRANCH  14  15
ENDBRANCH   5  14
TORSDOF 5
ENDMDL
MODEL 2
REMARK VINA RESULT:      -6.3      0.147      1.220
REMARK  Name = 
REMARK  5 active torsions:
REMARK  status: ('A' for Active; 'I' for Inactive)
REMARK    1  A    between atoms: N_1  and  C_2
REMARK    2  A    between atoms: C_2  and  C_3
REMARK    3  A    between atoms: C_3  and  C_4
REMARK    4  A    between atoms: N_8  and  C_9
REMARK    5  A    between atoms: C_9  and  C_10
REMARK                            x       y       z     vdW  Elec       q    Type
REMARK                         _______ _______ _______ _____ _____    ______ ____
ROOT
ATOM      1  C   UNL     1       1.531   3.441  18.527  0.00  0.00    +0.000 C 
ATOM      2  C   UNL     1       1.877   4.941  18.550  0.00  0.00    +0.000 C 
ATOM      3  N   UNL     1       3.098   4.985  17.800  0.00  0.00    +0.000 N 
ATOM      4  C   UNL     1       3.604   3.670  17.760  0.00  0.00    +0.000 C 
ATOM      5  N   UNL     1       4.911   3.332  17.305  0.00  0.00    +0.000 N 
ATOM      6  N   UNL     1       2.786   2.798  18.212  0.00  0.00    +0.000 NA
ATOM      7  H   UNL     1       3.631   5.843  17.605  0.00  0.00    +0.000 HD
ATOM      8  H   UNL     1       5.289   2.397  17.528  0.00  0.00    +0.000 HD
ENDROOT
BRANCH   1   9
ATOM      9  C   UNL     1       0.888   2.895  19.806  0.00  0.00    +0.000 C 
BRANCH   9  10
ATOM     10  C   UNL     1       1.539   3.475  21.069  0.00  0.00    +0.000 C 
BRANCH  10  11
ATOM     11  N   UNL     1       2.718   2.697  21.431  0.00  0.00    +0.000 NA
ATOM     12  H   UNL     1       3.019   2.148  20.594  0.00  0.00    +0.000 HD
ATOM     13  H   UNL     1       2.462   2.015  22.182  0.00  0.00    +0.000 HD
ENDBRANCH  10  11
ENDBRANCH   9  10
ENDBRANCH   1   9
BRANCH   5  14
ATOM     14  C   UNL     1       5.664   4.181  16.405  0.00  0.00    +0.000 C 
BRANCH  14  15
ATOM     15  C   UNL     1       6.526   5.169  17.142  0.00  0.00    +0.000 A 
ATOM     16  C   UNL     1       6.556   6.518  16.751  0.00  0.00    +0.000 A 
ATOM     17  C   UNL     1       7.320   7.442  17.470  0.00  0.00    +0.000 A 
ATOM     18  C   UNL     1       8.053   7.029  18.585  0.00  0.00    +0.000 A 
ATOM     19  C   UNL     1       8.031   5.687  18.978  0.00  0.00    +0.000 A 
ATOM     20  C   UNL     1       7.270   4.759  18.261  0.00  0.00    +0.000 A 
ENDBRANCH  14  15
ENDBRANCH   5  14
TORSDOF 5
ENDMDL
MODEL 3
REMARK VINA RESULT:      -6.3      1.268      2.161
REMARK  Name = 
REMARK  5 active torsions:
REMARK  status: ('A' for Active; 'I' for Inactive)
REMARK    1  A    between atoms: N_1  and  C_2
REMARK    2  A    between atoms: C_2  and  C_3
REMARK    3  A    between atoms: C_3  and  C_4
REMARK    4  A    between atoms: N_8  and  C_9
REMARK    5  A    between atoms: C_9  and  C_10
REMARK                            x       y       z     vdW  Elec       q    Type
REMARK                         _______ _______ _______ _____ _____    ______ ____
ROOT
ATOM      1  C   UNL     1       2.983   3.400  20.203  0.00  0.00    +0.000 C 
ATOM      2  C   UNL     1       4.085   2.325  20.191  0.00  0.00    +0.000 C 
ATOM      3  N   UNL     1       4.927   2.762  19.116  0.00  0.00    +0.000 N 
ATOM      4  C   UNL     1       4.173   3.670  18.346  0.00  0.00    +0.000 C 
ATOM      5  N   UNL     1       4.571   4.153  17.066  0.00  0.00    +0.000 N 
ATOM      6  N   UNL     1       3.062   3.997  18.889  0.00  0.00    +0.000 NA
ATOM      7  H   UNL     1       5.782   2.277  18.812  0.00  0.00    +0.000 HD
ATOM      8  H   UNL     1       3.867   4.617  16.468  0.00  0.00    +0.000 HD
ENDROOT
BRANCH   1   9
ATOM      9  C   UNL     1       1.576   2.895  20.542  0.00  0.00    +0.000 C 
BRANCH   9  10
ATOM     10  C   UNL     1       0.637   2.952  19.329  0.00  0.00    +0.000 C 
BRANCH  10  11
ATOM     11  N   UNL     1       0.950   1.872  18.399  0.00  0.00    +0.000 NA
ATOM     12  H   UNL     1       0.458   1.008  18.723  0.00  0.00    +0.000 HD
ATOM     13  H   UNL     1       1.977   1.682  18.428  0.00  0.00    +0.000 HD
ENDBRANCH  10  11
ENDBRANCH   9  10
ENDBRANCH   1   9
BRANCH   5  14
ATOM     14  C   UNL     1       5.954   4.169  16.638  0.00  0.00    +0.000 C 
BRANCH  14  15
ATOM     15  C   UNL     1       6.730   5.295  17.263  0.00  0.00    +0.000 A 
ATOM     16  C   UNL     1       6.651   6.594  16.733  0.00  0.00    +0.000 A 
ATOM     17  C   UNL     1       7.334   7.648  17.348  0.00  0.00    +0.000 A 
ATOM     18  C   UNL     1       8.095   7.415  18.497  0.00  0.00    +0.000 A 
ATOM     19  C   UNL     1       8.181   6.124  19.028  0.00  0.00    +0.000 A 
ATOM     20  C   UNL     1       7.501   5.067  18.415  0.00  0.00    +0.000 A 
ENDBRANCH  14  15
ENDBRANCH   5  14
TORSDOF 5
ENDMDL
MODEL 4
REMARK VINA RESULT:      -6.3      4.674      7.001
REMARK  Name = 
REMARK  5 active torsions:
REMARK  status: ('A' for Active; 'I' for Inactive)
REMARK    1  A    between atoms: N_1  and  C_2
REMARK    2  A    between atoms: C_2  and  C_3
REMARK    3  A    between atoms: C_3  and  C_4
REMARK    4  A    between atoms: N_8  and  C_9
REMARK    5  A    between atoms: C_9  and  C_10
REMARK                            x       y       z     vdW  Elec       q    Type
REMARK                         _______ _______ _______ _____ _____    ______ ____
ROOT
ATOM      1  C   UNL     1       6.896   6.255  17.370  0.00  0.00    +0.000 C 
ATOM      2  C   UNL     1       7.812   5.810  18.524  0.00  0.00    +0.000 C 
ATOM      3  N   UNL     1       8.290   7.061  19.036  0.00  0.00    +0.000 N 
ATOM      4  C   UNL     1       8.054   8.030  18.040  0.00  0.00    +0.000 C 
ATOM      5  N   UNL     1       8.588   9.350  18.068  0.00  0.00    +0.000 N 
ATOM      6  N   UNL     1       7.337   7.599  17.072  0.00  0.00    +0.000 NA
ATOM      7  H   UNL     1       8.939   7.156  19.828  0.00  0.00    +0.000 HD
ATOM      8  H   UNL     1       8.570   9.913  17.202  0.00  0.00    +0.000 HD
ENDROOT
BRANCH   1   9
ATOM      9  C   UNL     1       6.901   5.343  16.138  0.00  0.00    +0.000 C 
BRANCH   9  10
ATOM     10  C   UNL     1       5.599   5.458  15.333  0.00  0.00    +0.000 C 
BRANCH  10  11
ATOM     11  N   UNL     1       5.141   6.842  15.312  0.00  0.00    +0.000 NA
ATOM     12  H   UNL     1       5.809   7.418  15.872  0.00  0.00    +0.000 HD
ATOM     13  H   UNL     1       4.206   6.901  15.776  0.00  0.00    +0.000 HD
ENDBRANCH  10  11
ENDBRANCH   9  10
ENDBRANCH   1   9
BRANCH   5  14
ATOM     14  C   UNL     1       9.003   9.994  19.298  0.00  0.00    +0.000 C 
BRANCH  14  15
ATOM     15  C   UNL     1      10.069  11.029  19.066  0.00  0.00    +0.000 A 
ATOM     16  C   UNL     1      10.395  11.434  17.761  0.00  0.00    +0.000 A 
ATOM     17  C   UNL     1      11.351  12.433  17.552  0.00  0.00    +0.000 A 
ATOM     18  C   UNL     1      11.983  13.037  18.642  0.00  0.00    +0.000 A 
ATOM     19  C   UNL     1      11.666  12.636  19.944  0.00  0.00    +0.000 A 
ATOM     20  C   UNL     1      10.712  11.636  20.157  0.00  0.00    +0.000 A 
ENDBRANCH  14  15
ENDBRANCH   5  14
TORSDOF 5
ENDMDL
MODEL 5
REMARK VINA RESULT:      -6.2      1.800      5.660
REMARK  Name = 
REMARK  5 active torsions:
REMARK  status: ('A' for Active; 'I' for Inactive)
REMARK    1  A    between atoms: N_1  and  C_2
REMARK    2  A    between atoms: C_2  and  C_3
REMARK    3  A    between atoms: C_3  and  C_4
REMARK    4  A    between atoms: N_8  and  C_9
REMARK    5  A    between atoms: C_9  and  C_10
REMARK                            x       y       z     vdW  Elec       q    Type
REMARK                         _______ _______ _______ _____ _____    ______ ____
ROOT
ATOM      1  C   UNL     1       5.911   6.204  17.858  0.00  0.00    +0.000 C 
ATOM      2  C   UNL     1       4.659   6.422  16.988  0.00  0.00    +0.000 C 
ATOM      3  N   UNL     1       3.971   5.172  17.122  0.00  0.00    +0.000 N 
ATOM      4  C   UNL     1       4.908   4.236  17.605  0.00  0.00    +0.000 C 
ATOM      5  N   UNL     1       4.679   2.832  17.657  0.00  0.00    +0.000 N 
ATOM      6  N   UNL     1       6.016   4.766  17.964  0.00  0.00    +0.000 NA
ATOM      7  H   UNL     1       3.075   4.949  16.668  0.00  0.00    +0.000 HD
ATOM      8  H   UNL     1       5.485   2.200  17.795  0.00  0.00    +0.000 HD
ENDROOT
BRANCH   1   9
ATOM      9  C   UNL     1       7.196   6.855  17.336  0.00  0.00    +0.000 C 
BRANCH   9  10
ATOM     10  C   UNL     1       8.167   7.203  18.472  0.00  0.00    +0.000 C 
BRANCH  10  11
ATOM     11  N   UNL     1       8.204   6.123  19.451  0.00  0.00    +0.000 NA
ATOM     12  H   UNL     1       9.093   5.590  19.318  0.00  0.00    +0.000 HD
ATOM     13  H   UNL     1       7.411   5.467  19.268  0.00  0.00    +0.000 HD
ENDBRANCH  10  11
ENDBRANCH   9  10
ENDBRANCH   1   9
BRANCH   5  14
ATOM     14  C   UNL     1       3.347   2.262  17.691  0.00  0.00    +0.000 C 
BRANCH  14  15
ATOM     15  C   UNL     1       2.640   2.546  18.987  0.00  0.00    +0.000 A 
ATOM     16  C   UNL     1       3.315   2.402  20.211  0.00  0.00    +0.000 A 
ATOM     17  C   UNL     1       2.669   2.716  21.411  0.00  0.00    +0.000 A 
ATOM     18  C   UNL     1       1.350   3.178  21.398  0.00  0.00    +0.000 A 
ATOM     19  C   UNL     1       0.672   3.320  20.183  0.00  0.00    +0.000 A 
ATOM     20  C   UNL     1       1.313   3.006  18.981  0.00  0.00    +0.000 A 
ENDBRANCH  14  15
ENDBRANCH   5  14
TORSDOF 5
ENDMDL
MODEL 6
REMARK VINA RESULT:      -6.2      2.236      6.122
REMARK  Name = 
REMARK  5 active torsions:
REMARK  status: ('A' for Active; 'I' for Inactive)
REMARK    1  A    between atoms: N_1  and  C_2
REMARK    2  A    between atoms: C_2  and  C_3
REMARK    3  A    between atoms: C_3  and  C_4
REMARK    4  A    between atoms: N_8  and  C_9
REMARK    5  A    between atoms: C_9  and  C_10
REMARK                            x       y       z     vdW  Elec       q    Type
REMARK                         _______ _______ _______ _____ _____    ______ ____
ROOT
ATOM      1  C   UNL     1       6.742   5.288  15.499  0.00  0.00    +0.000 C 
ATOM      2  C   UNL     1       5.374   5.978  15.656  0.00  0.00    +0.000 C 
ATOM      3  N   UNL     1       4.991   5.599  16.985  0.00  0.00    +0.000 N 
ATOM      4  C   UNL     1       5.789   4.495  17.344  0.00  0.00    +0.000 C 
ATOM      5  N   UNL     1       5.561   3.685  18.494  0.00  0.00    +0.000 N 
ATOM      6  N   UNL     1       6.731   4.256  16.512  0.00  0.00    +0.000 NA
ATOM      7  H   UNL     1       4.113   5.883  17.441  0.00  0.00    +0.000 HD
ATOM      8  H   UNL     1       6.032   2.768  18.559  0.00  0.00    +0.000 HD
ENDROOT
BRANCH   1   9
ATOM      9  C   UNL     1       7.046   4.742  14.100  0.00  0.00    +0.000 C 
BRANCH   9  10
ATOM     10  C   UNL     1       5.925   3.830  13.583  0.00  0.00    +0.000 C 
BRANCH  10  11
ATOM     11  N   UNL     1       6.398   3.047  12.446  0.00  0.00    +0.000 NA
ATOM     12  H   UNL     1       5.607   2.939  11.771  0.00  0.00    +0.000 HD
ATOM     13  H   UNL     1       6.666   2.092  12.776  0.00  0.00    +0.000 HD
ENDBRANCH  10  11
ENDBRANCH   9  10
ENDBRANCH   1   9
BRANCH   5  14
ATOM     14  C   UNL     1       4.829   4.165  19.648  0.00  0.00    +0.000 C 
BRANCH  14  15
ATOM     15  C   UNL     1       3.384   3.748  19.619  0.00  0.00    +0.000 A 
ATOM     16  C   UNL     1       2.983   2.625  18.876  0.00  0.00    +0.000 A 
ATOM     17  C   UNL     1       1.648   2.212  18.892  0.00  0.00    +0.000 A 
ATOM     18  C   UNL     1       0.706   2.911  19.651  0.00  0.00    +0.000 A 
ATOM     19  C   UNL     1       1.097   4.032  20.390  0.00  0.00    +0.000 A 
ATOM     20  C   UNL     1       2.431   4.451  20.375  0.00  0.00    +0.000 A 
ENDBRANCH  14  15
ENDBRANCH   5  14
TORSDOF 5
ENDMDL
MODEL 7
REMARK VINA RESULT:      -6.1      2.089      6.109
REMARK  Name = 
REMARK  5 active torsions:
REMARK  status: ('A' for Active; 'I' for Inactive)
REMARK    1  A    between atoms: N_1  and  C_2
REMARK    2  A    between atoms: C_2  and  C_3
REMARK    3  A    between atoms: C_3  and  C_4
REMARK    4  A    between atoms: N_8  and  C_9
REMARK    5  A    between atoms: C_9  and  C_10
REMARK                            x       y       z     vdW  Elec       q    Type
REMARK                         _______ _______ _______ _____ _____    ______ ____
ROOT
ATOM      1  C   UNL     1       6.294   4.554  16.732  0.00  0.00    +0.000 C 
ATOM      2  C   UNL     1       6.715   4.850  18.183  0.00  0.00    +0.000 C 
ATOM      3  N   UNL     1       5.497   5.336  18.762  0.00  0.00    +0.000 N 
ATOM      4  C   UNL     1       4.650   5.699  17.694  0.00  0.00    +0.000 C 
ATOM      5  N   UNL     1       3.441   6.434  17.849  0.00  0.00    +0.000 N 
ATOM      6  N   UNL     1       5.092   5.335  16.550  0.00  0.00    +0.000 NA
ATOM      7  H   UNL     1       5.397   5.639  19.740  0.00  0.00    +0.000 HD
ATOM      8  H   UNL     1       3.008   6.863  17.015  0.00  0.00    +0.000 HD
ENDROOT
BRANCH   1   9
ATOM      9  C   UNL     1       7.358   4.845  15.667  0.00  0.00    +0.000 C 
BRANCH   9  10
ATOM     10  C   UNL     1       6.780   4.788  14.247  0.00  0.00    +0.000 C 
BRANCH  10  11
ATOM     11  N   UNL     1       6.194   3.477  13.994  0.00  0.00    +0.000 NA
ATOM     12  H   UNL     1       5.407   3.594  13.315  0.00  0.00    +0.000 HD
ATOM     13  H   UNL     1       5.791   3.103  14.884  0.00  0.00    +0.000 HD
ENDBRANCH  10  11
ENDBRANCH   9  10
ENDBRANCH   1   9
BRANCH   5  14
ATOM     14  C   UNL     1       2.707   6.468  19.098  0.00  0.00    +0.000 C 
BRANCH  14  15
ATOM     15  C   UNL     1       2.087   5.139  19.429  0.00  0.00    +0.000 A 
ATOM     16  C   UNL     1       1.630   4.292  18.405  0.00  0.00    +0.000 A 
ATOM     17  C   UNL     1       1.101   3.036  18.715  0.00  0.00    +0.000 A 
ATOM     18  C   UNL     1       1.029   2.613  20.045  0.00  0.00    +0.000 A 
ATOM     19  C   UNL     1       1.480   3.452  21.069  0.00  0.00    +0.000 A 
ATOM     20  C   UNL     1       2.007   4.710  20.765  0.00  0.00    +0.000 A 
ENDBRANCH  14  15
ENDBRANCH   5  14
TORSDOF 5
ENDMDL
MODEL 8
REMARK VINA RESULT:      -6.1      2.316      6.312
REMARK  Name = 
REMARK  5 active torsions:
REMARK  status: ('A' for Active; 'I' for Inactive)
REMARK    1  A    between atoms: N_1  and  C_2
REMARK    2  A    between atoms: C_2  and  C_3
REMARK    3  A    between atoms: C_3  and  C_4
REMARK    4  A    between atoms: N_8  and  C_9
REMARK    5  A    between atoms: C_9  and  C_10
REMARK                            x       y       z     vdW  Elec       q    Type
REMARK                         _______ _______ _______ _____ _____    ______ ____
ROOT
ATOM      1  C   UNL     1       6.621   6.203  17.830  0.00  0.00    +0.000 C 
ATOM      2  C   UNL     1       6.699   5.158  16.701  0.00  0.00    +0.000 C 
ATOM      3  N   UNL     1       5.933   4.072  17.237  0.00  0.00    +0.000 N 
ATOM      4  C   UNL     1       5.834   4.284  18.627  0.00  0.00    +0.000 C 
ATOM      5  N   UNL     1       5.348   3.314  19.550  0.00  0.00    +0.000 N 
ATOM      6  N   UNL     1       6.264   5.431  18.997  0.00  0.00    +0.000 NA
ATOM      7  H   UNL     1       5.765   3.181  16.750  0.00  0.00    +0.000 HD
ATOM      8  H   UNL     1       5.528   3.451  20.558  0.00  0.00    +0.000 HD
ENDROOT
BRANCH   1   9
ATOM      9  C   UNL     1       7.887   7.041  18.037  0.00  0.00    +0.000 C 
BRANCH   9  10
ATOM     10  C   UNL     1       7.680   8.507  17.630  0.00  0.00    +0.000 C 
BRANCH  10  11
ATOM     11  N   UNL     1       8.561   9.374  18.403  0.00  0.00    +0.000 NA
ATOM     12  H   UNL     1       9.242   8.773  18.920  0.00  0.00    +0.000 HD
ATOM     13  H   UNL     1       7.994   9.894  19.112  0.00  0.00    +0.000 HD
ENDBRANCH  10  11
ENDBRANCH   9  10
ENDBRANCH   1   9
BRANCH   5  14
ATOM     14  C   UNL     1       4.471   2.232  19.150  0.00  0.00    +0.000 C 
BRANCH  14  15
ATOM     15  C   UNL     1       3.030   2.522  19.466  0.00  0.00    +0.000 A 
ATOM     16  C   UNL     1       2.674   3.100  20.696  0.00  0.00    +0.000 A 
ATOM     17  C   UNL     1       1.339   3.415  20.965  0.00  0.00    +0.000 A 
ATOM     18  C   UNL     1       0.352   3.160  20.010  0.00  0.00    +0.000 A 
ATOM     19  C   UNL     1       0.699   2.582  18.784  0.00  0.00    +0.000 A 
ATOM     20  C   UNL     1       2.032   2.264  18.512  0.00  0.00    +0.000 A 
ENDBRANCH  14  15
ENDBRANCH   5  14
TORSDOF 5
ENDMDL
MODEL 9
REMARK VINA RESULT:      -6.1      4.454      6.734
REMARK  Name = 
REMARK  5 active torsions:
REMARK  status: ('A' for Active; 'I' for Inactive)
REMARK    1  A    between atoms: N_1  and  C_2
REMARK    2  A    between atoms: C_2  and  C_3
REMARK    3  A    between atoms: C_3  and  C_4
REMARK    4  A    between atoms: N_8  and  C_9
REMARK    5  A    between atoms: C_9  and  C_10
REMARK                            x       y       z     vdW  Elec       q    Type
REMARK                         _______ _______ _______ _____ _____    ______ ____
ROOT
ATOM      1  C   UNL     1       6.200   6.222  17.287  0.00  0.00    +0.000 C 
ATOM      2  C   UNL     1       7.336   5.590  18.111  0.00  0.00    +0.000 C 
ATOM      3  N   UNL     1       8.037   6.740  18.600  0.00  0.00    +0.000 N 
ATOM      4  C   UNL     1       7.643   7.833  17.801  0.00  0.00    +0.000 C 
ATOM      5  N   UNL     1       8.282   9.105  17.819  0.00  0.00    +0.000 N 
ATOM      6  N   UNL     1       6.669   7.563  17.018  0.00  0.00    +0.000 NA
ATOM      7  H   UNL     1       8.873   6.702  19.200  0.00  0.00    +0.000 HD
ATOM      8  H   UNL     1       8.095   9.767  17.047  0.00  0.00    +0.000 HD
ENDROOT
BRANCH   1   9
ATOM      9  C   UNL     1       5.811   5.463  16.014  0.00  0.00    +0.000 C 
BRANCH   9  10
ATOM     10  C   UNL     1       6.994   4.684  15.424  0.00  0.00    +0.000 C 
BRANCH  10  11
ATOM     11  N   UNL     1       7.705   5.507  14.452  0.00  0.00    +0.000 NA
ATOM     12  H   UNL     1       8.486   5.997  14.944  0.00  0.00    +0.000 HD
ATOM     13  H   UNL     1       7.055   6.239  14.082  0.00  0.00    +0.000 HD
ENDBRANCH  10  11
ENDBRANCH   9  10
ENDBRANCH   1   9
BRANCH   5  14
ATOM     14  C   UNL     1       9.051   9.573  18.954  0.00  0.00    +0.000 C 
BRANCH  14  15
ATOM     15  C   UNL     1       9.585  10.964  18.744  0.00  0.00    +0.000 A 
ATOM     16  C   UNL     1      10.773  11.371  19.374  0.00  0.00    +0.000 A 
ATOM     17  C   UNL     1      11.293  12.647  19.137  0.00  0.00    +0.000 A 
ATOM     18  C   UNL     1      10.635  13.522  18.268  0.00  0.00    +0.000 A 
ATOM     19  C   UNL     1       9.451  13.124  17.640  0.00  0.00    +0.000 A 
ATOM     20  C   UNL     1       8.926  11.850  17.876  0.00  0.00    +0.000 A 
ENDBRANCH  14  15
ENDBRANCH   5  14
TORSDOF 5
ENDMDL
