MODEL 1
REMARK VINA RESULT:      -7.0      0.000      0.000
REMARK  Name = 
REMARK  21 active torsions:
REMARK  status: ('A' for Active; 'I' for Inactive)
REMARK    1  A    between atoms: C_1  and  C_2
REMARK    2  A    between atoms: C_2  and  C_3
REMARK    3  A    between atoms: C_3  and  C_4
REMARK    4  A    between atoms: C_4  and  C_5
REMARK    5  A    between atoms: C_5  and  C_6
REMARK    6  A    between atoms: C_6  and  C_7
REMARK    7  A    between atoms: C_7  and  N_8
REMARK    8  A    between atoms: N_12  and  C_13
REMARK    9  A    between atoms: C_13  and  C_14
REMARK   10  A    between atoms: C_14  and  C_15
REMARK   11  A    between atoms: C_15  and  C_16
REMARK   12  A    between atoms: C_16  and  C_17
REMARK   13  A    between atoms: C_17  and  C_18
REMARK   14  A    between atoms: C_18  and  C_19
REMARK   15  A    between atoms: N_22  and  C_23
REMARK   16  A    between atoms: C_23  and  C_24
REMARK   17  A    between atoms: C_24  and  C_25
REMARK   18  A    between atoms: C_25  and  C_26
REMARK   19  A    between atoms: C_26  and  C_27
REMARK   20  A    between atoms: C_27  and  C_28
REMARK   21  A    between atoms: C_28  and  C_29
REMARK                            x       y       z     vdW  Elec       q    Type
REMARK                         _______ _______ _______ _____ _____    ______ ____
ROOT
ATOM      1  N   UNL     1       8.048   6.924  18.729  0.00  0.00    +0.000 N 
ATOM      2  C   UNL     1       7.116   5.985  18.284  0.00  0.00    +0.000 A 
ATOM      3  N   UNL     1       6.907   5.924  16.990  0.00  0.00    +0.000 NA
ATOM      4  C   UNL     1       6.079   4.974  16.571  0.00  0.00    +0.000 A 
ATOM      5  N   UNL     1       5.898   4.843  15.209  0.00  0.00    +0.000 N 
ATOM      6  N   UNL     1       5.457   4.144  17.362  0.00  0.00    +0.000 NA
ATOM      7  C   UNL     1       5.706   4.263  18.670  0.00  0.00    +0.000 A 
ATOM      8  N   UNL     1       5.023   3.449  19.536  0.00  0.00    +0.000 N 
ATOM      9  N   UNL     1       6.539   5.182  19.175  0.00  0.00    +0.000 NA
ATOM     10  H   UNL     1       8.058   7.008  19.742  0.00  0.00    +0.000 HD
ATOM     11  H   UNL     1       5.063   4.355  14.924  0.00  0.00    +0.000 HD
ATOM     12  H   UNL     1       5.158   3.649  20.517  0.00  0.00    +0.000 HD
ENDROOT
BRANCH   8  13
ATOM     13  C   UNL     1       4.676   2.100  19.110  0.00  0.00    +0.000 C 
BRANCH  13  14
ATOM     14  C   UNL     1       3.166   1.852  19.192  0.00  0.00    +0.000 C 
BRANCH  14  15
ATOM     15  C   UNL     1       2.459   2.286  17.906  0.00  0.00    +0.000 C 
BRANCH  15  16
ATOM     16  C   UNL     1       1.551   3.489  18.135  0.00  0.00    +0.000 C 
BRANCH  16  17
ATOM     17  C   UNL     1       0.820   3.369  19.470  0.00  0.00    +0.000 C 
BRANCH  17  18
ATOM     18  C   UNL     1       0.976   4.640  20.300  0.00  0.00    +0.000 C 
ATOM     19  C   UNL     1       2.164   4.532  21.239  0.00  0.00    +0.000 C 
ENDBRANCH  17  18
ENDBRANCH  16  17
ENDBRANCH  15  16
ENDBRANCH  14  15
ENDBRANCH  13  14
ENDBRANCH   8  13
BRANCH   5  20
ATOM     20  C   UNL     1       6.945   5.230  14.298  0.00  0.00    +0.000 C 
BRANCH  20  21
ATOM     21  C   UNL     1       6.945   4.332  13.063  0.00  0.00    +0.000 C 
BRANCH  21  22
ATOM     22  C   UNL     1       5.665   3.496  12.989  0.00  0.00    +0.000 C 
BRANCH  22  23
ATOM     23  C   UNL     1       5.670   2.574  11.769  0.00  0.00    +0.000 C 
BRANCH  23  24
ATOM     24  C   UNL     1       4.305   2.562  11.085  0.00  0.00    +0.000 C 
BRANCH  24  25
ATOM     25  C   UNL     1       3.764   3.978  10.901  0.00  0.00    +0.000 C 
ATOM     26  C   UNL     1       2.968   4.094   9.613  0.00  0.00    +0.000 C 
ENDBRANCH  24  25
ENDBRANCH  23  24
ENDBRANCH  22  23
ENDBRANCH  21  22
ENDBRANCH  20  21
ENDBRANCH   5  20
BRANCH   1  27
ATOM     27  C   UNL     1       8.160   8.127  17.924  0.00  0.00    +0.000 C 
BRANCH  27  28
ATOM     28  C   UNL     1       8.560   9.321  18.787  0.00  0.00    +0.000 C 
BRANCH  28  29
ATOM     29  C   UNL     1       9.238  10.411  17.953  0.00  0.00    +0.000 C 
BRANCH  29  30
ATOM     30  C   UNL     1       9.788  11.528  18.834  0.00  0.00    +0.000 C 
BRANCH  30  31
ATOM     31  C   UNL     1       9.958  11.046  20.272  0.00  0.00    +0.000 C 
BRANCH  31  33
ATOM     32  C   UNL     1      10.214  13.478  20.822  0.00  0.00    +0.000 C 
ATOM     33  C   UNL     1       9.620  12.154  21.265  0.00  0.00    +0.000 C 
ENDBRANCH  31  33
ENDBRANCH  30  31
ENDBRANCH  29  30
ENDBRANCH  28  29
ENDBRANCH  27  28
ENDBRANCH   1  27
TORSDOF 18
ENDMDL
MODEL 2
REMARK VINA RESULT:      -6.7      1.008      7.402
REMARK  Name = 
REMARK  21 active torsions:
REMARK  status: ('A' for Active; 'I' for Inactive)
REMARK    1  A    between atoms: C_1  and  C_2
REMARK    2  A    between atoms: C_2  and  C_3
REMARK    3  A    between atoms: C_3  and  C_4
REMARK    4  A    between atoms: C_4  and  C_5
REMARK    5  A    between atoms: C_5  and  C_6
REMARK    6  A    between atoms: C_6  and  C_7
REMARK    7  A    between atoms: C_7  and  N_8
REMARK    8  A    between atoms: N_12  and  C_13
REMARK    9  A    between atoms: C_13  and  C_14
REMARK   10  A    between atoms: C_14  and  C_15
REMARK   11  A    between atoms: C_15  and  C_16
REMARK   12  A    between atoms: C_16  and  C_17
REMARK   13  A    between atoms: C_17  and  C_18
REMARK   14  A    between atoms: C_18  and  C_19
REMARK   15  A    between atoms: N_22  and  C_23
REMARK   16  A    between atoms: C_23  and  C_24
REMARK   17  A    between atoms: C_24  and  C_25
REMARK   18  A    between atoms: C_25  and  C_26
REMARK   19  A    between atoms: C_26  and  C_27
REMARK   20  A    between atoms: C_27  and  C_28
REMARK   21  A    between atoms: C_28  and  C_29
REMARK                            x       y       z     vdW  Elec       q    Type
REMARK                         _______ _______ _______ _____ _____    ______ ____
ROOT
ATOM      1  N   UNL     1       5.027   3.816  19.699  0.00  0.00    +0.000 N 
ATOM      2  C   UNL     1       5.954   4.491  18.903  0.00  0.00    +0.000 A 
ATOM      3  N   UNL     1       6.095   4.069  17.669  0.00  0.00    +0.000 NA
ATOM      4  C   UNL     1       6.919   4.768  16.897  0.00  0.00    +0.000 A 
ATOM      5  N   UNL     1       7.031   4.386  15.575  0.00  0.00    +0.000 N 
ATOM      6  N   UNL     1       7.599   5.804  17.303  0.00  0.00    +0.000 NA
ATOM      7  C   UNL     1       7.416   6.180  18.573  0.00  0.00    +0.000 A 
ATOM      8  N   UNL     1       8.160   7.227  19.052  0.00  0.00    +0.000 N 
ATOM      9  N   UNL     1       6.593   5.541  19.413  0.00  0.00    +0.000 NA
ATOM     10  H   UNL     1       5.068   4.108  20.671  0.00  0.00    +0.000 HD
ATOM     11  H   UNL     1       7.860   4.704  15.097  0.00  0.00    +0.000 HD
ATOM     12  H   UNL     1       8.073   7.404  20.043  0.00  0.00    +0.000 HD
ENDROOT
BRANCH   8  13
ATOM     13  C   UNL     1       8.512   8.314  18.147  0.00  0.00    +0.000 C 
BRANCH  13  14
ATOM     14  C   UNL     1       8.926   9.575  18.912  0.00  0.00    +0.000 C 
BRANCH  14  15
ATOM     15  C   UNL     1       9.001  10.790  17.986  0.00  0.00    +0.000 C 
BRANCH  15  16
ATOM     16  C   UNL     1      10.347  11.501  18.088  0.00  0.00    +0.000 C 
BRANCH  16  17
ATOM     17  C   UNL     1      10.907  11.396  19.504  0.00  0.00    +0.000 C 
BRANCH  17  18
ATOM     18  C   UNL     1      10.693  12.693  20.279  0.00  0.00    +0.000 C 
ATOM     19  C   UNL     1       9.813  12.459  21.494  0.00  0.00    +0.000 C 
ENDBRANCH  17  18
ENDBRANCH  16  17
ENDBRANCH  15  16
ENDBRANCH  14  15
ENDBRANCH  13  14
ENDBRANCH   8  13
BRANCH   5  20
ATOM     20  C   UNL     1       5.930   3.734  14.914  0.00  0.00    +0.000 C 
BRANCH  20  21
ATOM     21  C   UNL     1       5.490   4.529  13.687  0.00  0.00    +0.000 C 
BRANCH  21  22
ATOM     22  C   UNL     1       6.033   3.903  12.400  0.00  0.00    +0.000 C 
BRANCH  22  23
ATOM     23  C   UNL     1       5.343   2.574  12.092  0.00  0.00    +0.000 C 
BRANCH  23  24
ATOM     24  C   UNL     1       4.051   2.795  11.308  0.00  0.00    +0.000 C 
BRANCH  24  25
ATOM     25  C   UNL     1       4.200   3.935  10.304  0.00  0.00    +0.000 C 
ATOM     26  C   UNL     1       2.850   4.343   9.739  0.00  0.00    +0.000 C 
ENDBRANCH  24  25
ENDBRANCH  23  24
ENDBRANCH  22  23
ENDBRANCH  21  22
ENDBRANCH  20  21
ENDBRANCH   5  20
BRANCH   1  27
ATOM     27  C   UNL     1       4.849   2.407  19.395  0.00  0.00    +0.000 C 
BRANCH  27  28
ATOM     28  C   UNL     1       3.365   2.052  19.321  0.00  0.00    +0.000 C 
BRANCH  28  29
ATOM     29  C   UNL     1       2.889   1.946  17.871  0.00  0.00    +0.000 C 
BRANCH  29  30
ATOM     30  C   UNL     1       2.645   3.323  17.261  0.00  0.00    +0.000 C 
BRANCH  30  31
ATOM     31  C   UNL     1       1.474   4.018  17.950  0.00  0.00    +0.000 C 
BRANCH  31  33
ATOM     32  C   UNL     1       2.831   6.125  17.908  0.00  0.00    +0.000 C 
ATOM     33  C   UNL     1       1.948   5.225  18.753  0.00  0.00    +0.000 C 
ENDBRANCH  31  33
ENDBRANCH  30  31
ENDBRANCH  29  30
ENDBRANCH  28  29
ENDBRANCH  27  28
ENDBRANCH   1  27
TORSDOF 18
ENDMDL
MODEL 3
REMARK VINA RESULT:      -6.6      4.170      8.311
REMARK  Name = 
REMARK  21 active torsions:
REMARK  status: ('A' for Active; 'I' for Inactive)
REMARK    1  A    between atoms: C_1  and  C_2
REMARK    2  A    between atoms: C_2  and  C_3
REMARK    3  A    between atoms: C_3  and  C_4
REMARK    4  A    between atoms: C_4  and  C_5
REMARK    5  A    between atoms: C_5  and  C_6
REMARK    6  A    between atoms: C_6  and  C_7
REMARK    7  A    between atoms: C_7  and  N_8
REMARK    8  A    between atoms: N_12  and  C_13
REMARK    9  A    between atoms: C_13  and  C_14
REMARK   10  A    between atoms: C_14  and  C_15
REMARK   11  A    between atoms: C_15  and  C_16
REMARK   12  A    between atoms: C_16  and  C_17
REMARK   13  A    between atoms: C_17  and  C_18
REMARK   14  A    between atoms: C_18  and  C_19
REMARK   15  A    between atoms: N_22  and  C_23
REMARK   16  A    between atoms: C_23  and  C_24
REMARK   17  A    between atoms: C_24  and  C_25
REMARK   18  A    between atoms: C_25  and  C_26
REMARK   19  A    between atoms: C_26  and  C_27
REMARK   20  A    between atoms: C_27  and  C_28
REMARK   21  A    between atoms: C_28  and  C_29
REMARK                            x       y       z     vdW  Elec       q    Type
REMARK                         _______ _______ _______ _____ _____    ______ ____
ROOT
ATOM      1  N   UNL     1       1.157   9.459  18.635  0.00  0.00    +0.000 N 
ATOM      2  C   UNL     1       2.106   8.440  18.545  0.00  0.00    +0.000 A 
ATOM      3  N   UNL     1       2.094   7.532  19.492  0.00  0.00    +0.000 NA
ATOM      4  C   UNL     1       2.947   6.523  19.353  0.00  0.00    +0.000 A 
ATOM      5  N   UNL     1       2.905   5.519  20.299  0.00  0.00    +0.000 N 
ATOM      6  N   UNL     1       3.794   6.412  18.367  0.00  0.00    +0.000 NA
ATOM      7  C   UNL     1       3.762   7.373  17.438  0.00  0.00    +0.000 A 
ATOM      8  N   UNL     1       4.678   7.321  16.421  0.00  0.00    +0.000 N 
ATOM      9  N   UNL     1       2.923   8.415  17.494  0.00  0.00    +0.000 NA
ATOM     10  H   UNL     1       1.312  10.193  17.950  0.00  0.00    +0.000 HD
ATOM     11  H   UNL     1       3.732   4.945  20.364  0.00  0.00    +0.000 HD
ATOM     12  H   UNL     1       4.691   8.124  15.807  0.00  0.00    +0.000 HD
ENDROOT
BRANCH   8  13
ATOM     13  C   UNL     1       5.109   6.020  15.925  0.00  0.00    +0.000 C 
BRANCH  13  14
ATOM     14  C   UNL     1       6.592   5.768  16.216  0.00  0.00    +0.000 C 
BRANCH  14  15
ATOM     15  C   UNL     1       7.037   4.400  15.695  0.00  0.00    +0.000 C 
BRANCH  15  16
ATOM     16  C   UNL     1       7.120   4.370  14.173  0.00  0.00    +0.000 C 
BRANCH  16  17
ATOM     17  C   UNL     1       5.832   3.810  13.573  0.00  0.00    +0.000 C 
BRANCH  17  18
ATOM     18  C   UNL     1       5.999   3.520  12.084  0.00  0.00    +0.000 C 
ATOM     19  C   UNL     1       4.753   2.863  11.517  0.00  0.00    +0.000 C 
ENDBRANCH  17  18
ENDBRANCH  16  17
ENDBRANCH  15  16
ENDBRANCH  14  15
ENDBRANCH  13  14
ENDBRANCH   8  13
BRANCH   5  20
ATOM     20  C   UNL     1       1.678   5.230  20.995  0.00  0.00    +0.000 C 
BRANCH  20  21
ATOM     21  C   UNL     1       1.365   3.736  20.940  0.00  0.00    +0.000 C 
BRANCH  21  22
ATOM     22  C   UNL     1       0.656   3.369  19.634  0.00  0.00    +0.000 C 
BRANCH  22  23
ATOM     23  C   UNL     1       1.390   2.250  18.896  0.00  0.00    +0.000 C 
BRANCH  23  24
ATOM     24  C   UNL     1       2.872   2.229  19.264  0.00  0.00    +0.000 C 
BRANCH  24  25
ATOM     25  C   UNL     1       3.737   2.716  18.104  0.00  0.00    +0.000 C 
ATOM     26  C   UNL     1       2.879   3.260  16.975  0.00  0.00    +0.000 C 
ENDBRANCH  24  25
ENDBRANCH  23  24
ENDBRANCH  22  23
ENDBRANCH  21  22
ENDBRANCH  20  21
ENDBRANCH   5  20
BRANCH   1  27
ATOM     27  C   UNL     1       0.762   9.830  19.983  0.00  0.00    +0.000 C 
BRANCH  27  28
ATOM     28  C   UNL     1      -0.737  10.110  20.050  0.00  0.00    +0.000 C 
BRANCH  28  29
ATOM     29  C   UNL     1      -1.058  11.541  19.616  0.00  0.00    +0.000 C 
BRANCH  29  30
ATOM     30  C   UNL     1      -2.060  11.565  18.467  0.00  0.00    +0.000 C 
BRANCH  30  31
ATOM     31  C   UNL     1      -2.427  10.146  18.040  0.00  0.00    +0.000 C 
BRANCH  31  33
ATOM     32  C   UNL     1      -3.333  10.515  15.733  0.00  0.00    +0.000 C 
ATOM     33  C   UNL     1      -2.187   9.944  16.548  0.00  0.00    +0.000 C 
ENDBRANCH  31  33
ENDBRANCH  30  31
ENDBRANCH  29  30
ENDBRANCH  28  29
ENDBRANCH  27  28
ENDBRANCH   1  27
TORSDOF 18
ENDMDL
MODEL 4
REMARK VINA RESULT:      -6.5      3.387      5.415
REMARK  Name = 
REMARK  21 active torsions:
REMARK  status: ('A' for Active; 'I' for Inactive)
REMARK    1  A    between atoms: C_1  and  C_2
REMARK    2  A    between atoms: C_2  and  C_3
REMARK    3  A    between atoms: C_3  and  C_4
REMARK    4  A    between atoms: C_4  and  C_5
REMARK    5  A    between atoms: C_5  and  C_6
REMARK    6  A    between atoms: C_6  and  C_7
REMARK    7  A    between atoms: C_7  and  N_8
REMARK    8  A    between atoms: N_12  and  C_13
REMARK    9  A    between atoms: C_13  and  C_14
REMARK   10  A    between atoms: C_14  and  C_15
REMARK   11  A    between atoms: C_15  and  C_16
REMARK   12  A    between atoms: C_16  and  C_17
REMARK   13  A    between atoms: C_17  and  C_18
REMARK   14  A    between atoms: C_18  and  C_19
REMARK   15  A    between atoms: N_22  and  C_23
REMARK   16  A    between atoms: C_23  and  C_24
REMARK   17  A    between atoms: C_24  and  C_25
REMARK   18  A    between atoms: C_25  and  C_26
REMARK   19  A    between atoms: C_26  and  C_27
REMARK   20  A    between atoms: C_27  and  C_28
REMARK   21  A    between atoms: C_28  and  C_29
REMARK                            x       y       z     vdW  Elec       q    Type
REMARK                         _______ _______ _______ _____ _____    ______ ____
ROOT
ATOM      1  N   UNL     1       7.088   7.184  16.932  0.00  0.00    +0.000 N 
ATOM      2  C   UNL     1       5.935   6.510  17.339  0.00  0.00    +0.000 A 
ATOM      3  N   UNL     1       4.901   7.247  17.667  0.00  0.00    +0.000 NA
ATOM      4  C   UNL     1       3.786   6.595  17.975  0.00  0.00    +0.000 A 
ATOM      5  N   UNL     1       2.664   7.350  18.255  0.00  0.00    +0.000 N 
ATOM      6  N   UNL     1       3.680   5.296  17.997  0.00  0.00    +0.000 NA
ATOM      7  C   UNL     1       4.771   4.600  17.659  0.00  0.00    +0.000 A 
ATOM      8  N   UNL     1       4.716   3.233  17.730  0.00  0.00    +0.000 N 
ATOM      9  N   UNL     1       5.931   5.179  17.321  0.00  0.00    +0.000 NA
ATOM     10  H   UNL     1       7.882   6.560  16.824  0.00  0.00    +0.000 HD
ATOM     11  H   UNL     1       1.940   6.879  18.776  0.00  0.00    +0.000 HD
ATOM     12  H   UNL     1       5.592   2.754  17.576  0.00  0.00    +0.000 HD
ENDROOT
BRANCH   8  13
ATOM     13  C   UNL     1       3.458   2.562  17.430  0.00  0.00    +0.000 C 
BRANCH  13  14
ATOM     14  C   UNL     1       3.007   1.661  18.585  0.00  0.00    +0.000 C 
BRANCH  14  15
ATOM     15  C   UNL     1       1.487   1.689  18.753  0.00  0.00    +0.000 C 
BRANCH  15  16
ATOM     16  C   UNL     1       1.015   2.953  19.463  0.00  0.00    +0.000 C 
BRANCH  16  17
ATOM     17  C   UNL     1       1.253   2.848  20.968  0.00  0.00    +0.000 C 
BRANCH  17  18
ATOM     18  C   UNL     1       2.167   3.966  21.460  0.00  0.00    +0.000 C 
ATOM     19  C   UNL     1       1.710   5.314  20.929  0.00  0.00    +0.000 C 
ENDBRANCH  17  18
ENDBRANCH  16  17
ENDBRANCH  15  16
ENDBRANCH  14  15
ENDBRANCH  13  14
ENDBRANCH   8  13
BRANCH   5  20
ATOM     20  C   UNL     1       2.504   8.655  17.669  0.00  0.00    +0.000 C 
BRANCH  20  21
ATOM     21  C   UNL     1       1.042   9.096  17.724  0.00  0.00    +0.000 C 
BRANCH  21  22
ATOM     22  C   UNL     1       0.853  10.254  18.706  0.00  0.00    +0.000 C 
BRANCH  22  23
ATOM     23  C   UNL     1      -0.605  10.378  19.149  0.00  0.00    +0.000 C 
BRANCH  23  24
ATOM     24  C   UNL     1      -1.354  11.397  18.293  0.00  0.00    +0.000 C 
BRANCH  24  25
ATOM     25  C   UNL     1      -2.080  10.720  17.133  0.00  0.00    +0.000 C 
ATOM     26  C   UNL     1      -3.107   9.722  17.641  0.00  0.00    +0.000 C 
ENDBRANCH  24  25
ENDBRANCH  23  24
ENDBRANCH  22  23
ENDBRANCH  21  22
ENDBRANCH  20  21
ENDBRANCH   5  20
BRANCH   1  27
ATOM     27  C   UNL     1       7.296   8.489  17.535  0.00  0.00    +0.000 C 
BRANCH  27  28
ATOM     28  C   UNL     1       8.599   8.515  18.331  0.00  0.00    +0.000 C 
BRANCH  28  29
ATOM     29  C   UNL     1       8.832   9.883  18.974  0.00  0.00    +0.000 C 
BRANCH  29  30
ATOM     30  C   UNL     1       9.783  10.737  18.141  0.00  0.00    +0.000 C 
BRANCH  30  31
ATOM     31  C   UNL     1      10.474  11.782  19.013  0.00  0.00    +0.000 C 
BRANCH  31  33
ATOM     32  C   UNL     1      10.064  12.921  21.207  0.00  0.00    +0.000 C 
ATOM     33  C   UNL     1      10.121  11.588  20.484  0.00  0.00    +0.000 C 
ENDBRANCH  31  33
ENDBRANCH  30  31
ENDBRANCH  29  30
ENDBRANCH  28  29
ENDBRANCH  27  28
ENDBRANCH   1  27
TORSDOF 18
ENDMDL
MODEL 5
REMARK VINA RESULT:      -6.5      3.944      8.007
REMARK  Name = 
REMARK  21 active torsions:
REMARK  status: ('A' for Active; 'I' for Inactive)
REMARK    1  A    between atoms: C_1  and  C_2
REMARK    2  A    between atoms: C_2  and  C_3
REMARK    3  A    between atoms: C_3  and  C_4
REMARK    4  A    between atoms: C_4  and  C_5
REMARK    5  A    between atoms: C_5  and  C_6
REMARK    6  A    between atoms: C_6  and  C_7
REMARK    7  A    between atoms: C_7  and  N_8
REMARK    8  A    between atoms: N_12  and  C_13
REMARK    9  A    between atoms: C_13  and  C_14
REMARK   10  A    between atoms: C_14  and  C_15
REMARK   11  A    between atoms: C_15  and  C_16
REMARK   12  A    between atoms: C_16  and  C_17
REMARK   13  A    between atoms: C_17  and  C_18
REMARK   14  A    between atoms: C_18  and  C_19
REMARK   15  A    between atoms: N_22  and  C_23
REMARK   16  A    between atoms: C_23  and  C_24
REMARK   17  A    between atoms: C_24  and  C_25
REMARK   18  A    between atoms: C_25  and  C_26
REMARK   19  A    between atoms: C_26  and  C_27
REMARK   20  A    between atoms: C_27  and  C_28
REMARK   21  A    between atoms: C_28  and  C_29
REMARK                            x       y       z     vdW  Elec       q    Type
REMARK                         _______ _______ _______ _____ _____    ______ ____
ROOT
ATOM      1  N   UNL     1       1.680   8.965  17.736  0.00  0.00    +0.000 N 
ATOM      2  C   UNL     1       2.659   7.978  17.855  0.00  0.00    +0.000 A 
ATOM      3  N   UNL     1       2.617   7.226  18.930  0.00  0.00    +0.000 NA
ATOM      4  C   UNL     1       3.502   6.238  18.993  0.00  0.00    +0.000 A 
ATOM      5  N   UNL     1       3.433   5.391  20.080  0.00  0.00    +0.000 N 
ATOM      6  N   UNL     1       4.405   6.005  18.081  0.00  0.00    +0.000 NA
ATOM      7  C   UNL     1       4.400   6.810  17.014  0.00  0.00    +0.000 A 
ATOM      8  N   UNL     1       5.373   6.633  16.065  0.00  0.00    +0.000 N 
ATOM      9  N   UNL     1       3.533   7.819  16.863  0.00  0.00    +0.000 NA
ATOM     10  H   UNL     1       1.854   9.590  16.954  0.00  0.00    +0.000 HD
ATOM     11  H   UNL     1       4.270   4.863  20.277  0.00  0.00    +0.000 HD
ATOM     12  H   UNL     1       5.400   7.332  15.336  0.00  0.00    +0.000 HD
ENDROOT
BRANCH   8  13
ATOM     13  C   UNL     1       5.865   5.287  15.801  0.00  0.00    +0.000 C 
BRANCH  13  14
ATOM     14  C   UNL     1       7.147   5.308  14.963  0.00  0.00    +0.000 C 
BRANCH  14  15
ATOM     15  C   UNL     1       6.917   4.704  13.576  0.00  0.00    +0.000 C 
BRANCH  15  16
ATOM     16  C   UNL     1       5.670   3.827  13.538  0.00  0.00    +0.000 C 
BRANCH  16  17
ATOM     17  C   UNL     1       5.552   3.113  12.193  0.00  0.00    +0.000 C 
BRANCH  17  18
ATOM     18  C   UNL     1       4.581   3.839  11.267  0.00  0.00    +0.000 C 
ATOM     19  C   UNL     1       3.440   2.925  10.854  0.00  0.00    +0.000 C 
ENDBRANCH  17  18
ENDBRANCH  16  17
ENDBRANCH  15  16
ENDBRANCH  14  15
ENDBRANCH  13  14
ENDBRANCH   8  13
BRANCH   5  20
ATOM     20  C   UNL     1       2.177   5.171  20.749  0.00  0.00    +0.000 C 
BRANCH  20  21
ATOM     21  C   UNL     1       1.948   3.680  20.992  0.00  0.00    +0.000 C 
BRANCH  21  22
ATOM     22  C   UNL     1       0.564   3.248  20.504  0.00  0.00    +0.000 C 
BRANCH  22  23
ATOM     23  C   UNL     1       0.623   2.691  19.082  0.00  0.00    +0.000 C 
BRANCH  23  24
ATOM     24  C   UNL     1       1.987   2.067  18.793  0.00  0.00    +0.000 C 
BRANCH  24  25
ATOM     25  C   UNL     1       2.634   2.696  17.561  0.00  0.00    +0.000 C 
ATOM     26  C   UNL     1       4.149   2.657  17.662  0.00  0.00    +0.000 C 
ENDBRANCH  24  25
ENDBRANCH  23  24
ENDBRANCH  22  23
ENDBRANCH  21  22
ENDBRANCH  20  21
ENDBRANCH   5  20
BRANCH   1  27
ATOM     27  C   UNL     1       1.201   9.526  18.988  0.00  0.00    +0.000 C 
BRANCH  27  28
ATOM     28  C   UNL     1       1.293  11.049  18.970  0.00  0.00    +0.000 C 
BRANCH  28  29
ATOM     29  C   UNL     1       0.311  11.680  19.959  0.00  0.00    +0.000 C 
BRANCH  29  30
ATOM     30  C   UNL     1      -1.099  11.125  19.776  0.00  0.00    +0.000 C 
BRANCH  30  31
ATOM     31  C   UNL     1      -1.807  11.822  18.618  0.00  0.00    +0.000 C 
BRANCH  31  33
ATOM     32  C   UNL     1      -2.029   9.850  17.087  0.00  0.00    +0.000 C 
ATOM     33  C   UNL     1      -2.777  10.874  17.920  0.00  0.00    +0.000 C 
ENDBRANCH  31  33
ENDBRANCH  30  31
ENDBRANCH  29  30
ENDBRANCH  28  29
ENDBRANCH  27  28
ENDBRANCH   1  27
TORSDOF 18
ENDMDL
MODEL 6
REMARK VINA RESULT:      -6.4      3.658      7.473
REMARK  Name = 
REMARK  21 active torsions:
REMARK  status: ('A' for Active; 'I' for Inactive)
REMARK    1  A    between atoms: C_1  and  C_2
REMARK    2  A    between atoms: C_2  and  C_3
REMARK    3  A    between atoms: C_3  and  C_4
REMARK    4  A    between atoms: C_4  and  C_5
REMARK    5  A    between atoms: C_5  and  C_6
REMARK    6  A    between atoms: C_6  and  C_7
REMARK    7  A    between atoms: C_7  and  N_8
REMARK    8  A    between atoms: N_12  and  C_13
REMARK    9  A    between atoms: C_13  and  C_14
REMARK   10  A    between atoms: C_14  and  C_15
REMARK   11  A    between atoms: C_15  and  C_16
REMARK   12  A    between atoms: C_16  and  C_17
REMARK   13  A    between atoms: C_17  and  C_18
REMARK   14  A    between atoms: C_18  and  C_19
REMARK   15  A    between atoms: N_22  and  C_23
REMARK   16  A    between atoms: C_23  and  C_24
REMARK   17  A    between atoms: C_24  and  C_25
REMARK   18  A    between atoms: C_25  and  C_26
REMARK   19  A    between atoms: C_26  and  C_27
REMARK   20  A    between atoms: C_27  and  C_28
REMARK   21  A    between atoms: C_28  and  C_29
REMARK                            x       y       z     vdW  Elec       q    Type
REMARK                         _______ _______ _______ _____ _____    ______ ____
ROOT
ATOM      1  N   UNL     1       3.515   7.419  17.074  0.00  0.00    +0.000 N 
ATOM      2  C   UNL     1       4.486   6.443  16.846  0.00  0.00    +0.000 A 
ATOM      3  N   UNL     1       4.614   5.507  17.757  0.00  0.00    +0.000 NA
ATOM      4  C   UNL     1       5.483   4.539  17.490  0.00  0.00    +0.000 A 
ATOM      5  N   UNL     1       5.584   3.506  18.400  0.00  0.00    +0.000 N 
ATOM      6  N   UNL     1       6.218   4.492  16.415  0.00  0.00    +0.000 NA
ATOM      7  C   UNL     1       6.047   5.478  15.528  0.00  0.00    +0.000 A 
ATOM      8  N   UNL     1       6.846   5.494  14.415  0.00  0.00    +0.000 N 
ATOM      9  N   UNL     1       5.181   6.483  15.711  0.00  0.00    +0.000 NA
ATOM     10  H   UNL     1       3.566   8.178  16.401  0.00  0.00    +0.000 HD
ATOM     11  H   UNL     1       6.434   2.965  18.355  0.00  0.00    +0.000 HD
ATOM     12  H   UNL     1       6.762   6.315  13.832  0.00  0.00    +0.000 HD
ENDROOT
BRANCH   8  13
ATOM     13  C   UNL     1       7.268   4.227  13.831  0.00  0.00    +0.000 C 
BRANCH  13  14
ATOM     14  C   UNL     1       6.704   4.040  12.419  0.00  0.00    +0.000 C 
BRANCH  14  15
ATOM     15  C   UNL     1       5.247   3.575  12.458  0.00  0.00    +0.000 C 
BRANCH  15  16
ATOM     16  C   UNL     1       4.903   2.679  11.273  0.00  0.00    +0.000 C 
BRANCH  16  17
ATOM     17  C   UNL     1       3.458   2.900  10.830  0.00  0.00    +0.000 C 
BRANCH  17  18
ATOM     18  C   UNL     1       3.231   4.344  10.390  0.00  0.00    +0.000 C 
ATOM     19  C   UNL     1       2.838   4.409   8.925  0.00  0.00    +0.000 C 
ENDBRANCH  17  18
ENDBRANCH  16  17
ENDBRANCH  15  16
ENDBRANCH  14  15
ENDBRANCH  13  14
ENDBRANCH   8  13
BRANCH   5  20
ATOM     20  C   UNL     1       4.453   3.146  19.217  0.00  0.00    +0.000 C 
BRANCH  20  21
ATOM     21  C   UNL     1       3.752   1.911  18.654  0.00  0.00    +0.000 C 
BRANCH  21  22
ATOM     22  C   UNL     1       2.515   2.302  17.843  0.00  0.00    +0.000 C 
BRANCH  22  23
ATOM     23  C   UNL     1       1.360   2.721  18.753  0.00  0.00    +0.000 C 
BRANCH  23  24
ATOM     24  C   UNL     1       1.431   4.211  19.078  0.00  0.00    +0.000 C 
BRANCH  24  25
ATOM     25  C   UNL     1       1.774   4.442  20.548  0.00  0.00    +0.000 C 
ATOM     26  C   UNL     1       1.390   5.845  20.984  0.00  0.00    +0.000 C 
ENDBRANCH  24  25
ENDBRANCH  23  24
ENDBRANCH  22  23
ENDBRANCH  21  22
ENDBRANCH  20  21
ENDBRANCH   5  20
BRANCH   1  27
ATOM     27  C   UNL     1       3.258   7.732  18.469  0.00  0.00    +0.000 C 
BRANCH  27  28
ATOM     28  C   UNL     1       1.845   8.280  18.649  0.00  0.00    +0.000 C 
BRANCH  28  29
ATOM     29  C   UNL     1       1.667   9.617  17.927  0.00  0.00    +0.000 C 
BRANCH  29  30
ATOM     30  C   UNL     1       0.812  10.582  18.741  0.00  0.00    +0.000 C 
BRANCH  30  31
ATOM     31  C   UNL     1       0.884  10.246  20.228  0.00  0.00    +0.000 C 
BRANCH  31  33
ATOM     32  C   UNL     1      -0.281   9.068  22.108  0.00  0.00    +0.000 C 
ATOM     33  C   UNL     1      -0.438   9.671  20.724  0.00  0.00    +0.000 C 
ENDBRANCH  31  33
ENDBRANCH  30  31
ENDBRANCH  29  30
ENDBRANCH  28  29
ENDBRANCH  27  28
ENDBRANCH   1  27
TORSDOF 18
ENDMDL
MODEL 7
REMARK VINA RESULT:      -6.4      1.217      1.837
REMARK  Name = 
REMARK  21 active torsions:
REMARK  status: ('A' for Active; 'I' for Inactive)
REMARK    1  A    between atoms: C_1  and  C_2
REMARK    2  A    between atoms: C_2  and  C_3
REMARK    3  A    between atoms: C_3  and  C_4
REMARK    4  A    between atoms: C_4  and  C_5
REMARK    5  A    between atoms: C_5  and  C_6
REMARK    6  A    between atoms: C_6  and  C_7
REMARK    7  A    between atoms: C_7  and  N_8
REMARK    8  A    between atoms: N_12  and  C_13
REMARK    9  A    between atoms: C_13  and  C_14
REMARK   10  A    between atoms: C_14  and  C_15
REMARK   11  A    between atoms: C_15  and  C_16
REMARK   12  A    between atoms: C_16  and  C_17
REMARK   13  A    between atoms: C_17  and  C_18
REMARK   14  A    between atoms: C_18  and  C_19
REMARK   15  A    between atoms: N_22  and  C_23
REMARK   16  A    between atoms: C_23  and  C_24
REMARK   17  A    between atoms: C_24  and  C_25
REMARK   18  A    between atoms: C_25  and  C_26
REMARK   19  A    between atoms: C_26  and  C_27
REMARK   20  A    between atoms: C_27  and  C_28
REMARK   21  A    between atoms: C_28  and  C_29
REMARK                            x       y       z     vdW  Elec       q    Type
REMARK                         _______ _______ _______ _____ _____    ______ ____
ROOT
ATOM      1  N   UNL     1       8.226   6.960  18.804  0.00  0.00    +0.000 N 
ATOM      2  C   UNL     1       7.086   6.196  18.551  0.00  0.00    +0.000 A 
ATOM      3  N   UNL     1       6.542   6.318  17.363  0.00  0.00    +0.000 NA
ATOM      4  C   UNL     1       5.507   5.527  17.104  0.00  0.00    +0.000 A 
ATOM      5  N   UNL     1       4.962   5.586  15.838  0.00  0.00    +0.000 N 
ATOM      6  N   UNL     1       5.000   4.683  17.959  0.00  0.00    +0.000 NA
ATOM      7  C   UNL     1       5.594   4.611  19.154  0.00  0.00    +0.000 A 
ATOM      8  N   UNL     1       5.051   3.779  20.099  0.00  0.00    +0.000 N 
ATOM      9  N   UNL     1       6.652   5.360  19.491  0.00  0.00    +0.000 NA
ATOM     10  H   UNL     1       8.510   6.917  19.779  0.00  0.00    +0.000 HD
ATOM     11  H   UNL     1       4.020   5.235  15.750  0.00  0.00    +0.000 HD
ATOM     12  H   UNL     1       5.463   3.841  21.020  0.00  0.00    +0.000 HD
ENDROOT
BRANCH   8  13
ATOM     13  C   UNL     1       4.417   2.541  19.667  0.00  0.00    +0.000 C 
BRANCH  13  14
ATOM     14  C   UNL     1       2.956   2.464  20.126  0.00  0.00    +0.000 C 
BRANCH  14  15
ATOM     15  C   UNL     1       2.129   3.612  19.545  0.00  0.00    +0.000 C 
BRANCH  15  16
ATOM     16  C   UNL     1       1.187   4.216  20.582  0.00  0.00    +0.000 C 
BRANCH  16  17
ATOM     17  C   UNL     1       1.440   5.715  20.732  0.00  0.00    +0.000 C 
BRANCH  17  18
ATOM     18  C   UNL     1       2.530   6.188  19.776  0.00  0.00    +0.000 C 
ATOM     19  C   UNL     1       2.218   7.575  19.241  0.00  0.00    +0.000 C 
ENDBRANCH  17  18
ENDBRANCH  16  17
ENDBRANCH  15  16
ENDBRANCH  14  15
ENDBRANCH  13  14
ENDBRANCH   8  13
BRANCH   5  20
ATOM     20  C   UNL     1       5.780   5.961  14.713  0.00  0.00    +0.000 C 
BRANCH  20  21
ATOM     21  C   UNL     1       6.858   4.910  14.456  0.00  0.00    +0.000 C 
BRANCH  21  22
ATOM     22  C   UNL     1       6.255   3.637  13.858  0.00  0.00    +0.000 C 
BRANCH  22  23
ATOM     23  C   UNL     1       6.329   3.648  12.331  0.00  0.00    +0.000 C 
BRANCH  23  24
ATOM     24  C   UNL     1       5.216   2.799  11.721  0.00  0.00    +0.000 C 
BRANCH  24  25
ATOM     25  C   UNL     1       5.745   1.447  11.251  0.00  0.00    +0.000 C 
ATOM     26  C   UNL     1       7.243   1.504  11.001  0.00  0.00    +0.000 C 
ENDBRANCH  24  25
ENDBRANCH  23  24
ENDBRANCH  22  23
ENDBRANCH  21  22
ENDBRANCH  20  21
ENDBRANCH   5  20
BRANCH   1  27
ATOM     27  C   UNL     1       8.295   8.233  18.108  0.00  0.00    +0.000 C 
BRANCH  27  28
ATOM     28  C   UNL     1       8.920   9.304  18.999  0.00  0.00    +0.000 C 
BRANCH  28  29
ATOM     29  C   UNL     1       8.926  10.670  18.309  0.00  0.00    +0.000 C 
BRANCH  29  30
ATOM     30  C   UNL     1      10.344  11.117  17.967  0.00  0.00    +0.000 C 
BRANCH  30  31
ATOM     31  C   UNL     1      11.065  11.623  19.214  0.00  0.00    +0.000 C 
BRANCH  31  33
ATOM     32  C   UNL     1      10.527  13.567  20.701  0.00  0.00    +0.000 C 
ATOM     33  C   UNL     1      10.981  13.142  19.316  0.00  0.00    +0.000 C 
ENDBRANCH  31  33
ENDBRANCH  30  31
ENDBRANCH  29  30
ENDBRANCH  28  29
ENDBRANCH  27  28
ENDBRANCH   1  27
TORSDOF 18
ENDMDL
MODEL 8
REMARK VINA RESULT:      -6.4      3.816      7.827
REMARK  Name = 
REMARK  21 active torsions:
REMARK  status: ('A' for Active; 'I' for Inactive)
REMARK    1  A    between atoms: C_1  and  C_2
REMARK    2  A    between atoms: C_2  and  C_3
REMARK    3  A    between atoms: C_3  and  C_4
REMARK    4  A    between atoms: C_4  and  C_5
REMARK    5  A    between atoms: C_5  and  C_6
REMARK    6  A    between atoms: C_6  and  C_7
REMARK    7  A    between atoms: C_7  and  N_8
REMARK    8  A    between atoms: N_12  and  C_13
REMARK    9  A    between atoms: C_13  and  C_14
REMARK   10  A    between atoms: C_14  and  C_15
REMARK   11  A    between atoms: C_15  and  C_16
REMARK   12  A    between atoms: C_16  and  C_17
REMARK   13  A    between atoms: C_17  and  C_18
REMARK   14  A    between atoms: C_18  and  C_19
REMARK   15  A    between atoms: N_22  and  C_23
REMARK   16  A    between atoms: C_23  and  C_24
REMARK   17  A    between atoms: C_24  and  C_25
REMARK   18  A    between atoms: C_25  and  C_26
REMARK   19  A    between atoms: C_26  and  C_27
REMARK   20  A    between atoms: C_27  and  C_28
REMARK   21  A    between atoms: C_28  and  C_29
REMARK                            x       y       z     vdW  Elec       q    Type
REMARK                         _______ _______ _______ _____ _____    ______ ____
ROOT
ATOM      1  N   UNL     1       2.157   8.692  17.546  0.00  0.00    +0.000 N 
ATOM      2  C   UNL     1       2.988   7.659  17.982  0.00  0.00    +0.000 A 
ATOM      3  N   UNL     1       2.600   6.994  19.044  0.00  0.00    +0.000 NA
ATOM      4  C   UNL     1       3.356   5.962  19.402  0.00  0.00    +0.000 A 
ATOM      5  N   UNL     1       2.931   5.203  20.474  0.00  0.00    +0.000 N 
ATOM      6  N   UNL     1       4.450   5.608  18.787  0.00  0.00    +0.000 NA
ATOM      7  C   UNL     1       4.795   6.330  17.716  0.00  0.00    +0.000 A 
ATOM      8  N   UNL     1       5.971   6.026  17.080  0.00  0.00    +0.000 N 
ATOM      9  N   UNL     1       4.081   7.375  17.278  0.00  0.00    +0.000 NA
ATOM     10  H   UNL     1       2.583   9.245  16.808  0.00  0.00    +0.000 HD
ATOM     11  H   UNL     1       3.640   4.642  20.921  0.00  0.00    +0.000 HD
ATOM     12  H   UNL     1       6.247   6.666  16.349  0.00  0.00    +0.000 HD
ENDROOT
BRANCH   8  13
ATOM     13  C   UNL     1       6.409   4.637  17.036  0.00  0.00    +0.000 C 
BRANCH  13  14
ATOM     14  C   UNL     1       7.180   4.328  15.748  0.00  0.00    +0.000 C 
BRANCH  14  15
ATOM     15  C   UNL     1       6.399   4.774  14.511  0.00  0.00    +0.000 C 
BRANCH  15  16
ATOM     16  C   UNL     1       7.316   5.020  13.317  0.00  0.00    +0.000 C 
BRANCH  16  17
ATOM     17  C   UNL     1       7.018   4.028  12.194  0.00  0.00    +0.000 C 
BRANCH  17  18
ATOM     18  C   UNL     1       5.691   3.314  12.428  0.00  0.00    +0.000 C 
ATOM     19  C   UNL     1       5.528   2.146  11.471  0.00  0.00    +0.000 C 
ENDBRANCH  17  18
ENDBRANCH  16  17
ENDBRANCH  15  16
ENDBRANCH  14  15
ENDBRANCH  13  14
ENDBRANCH   8  13
BRANCH   5  20
ATOM     20  C   UNL     1       1.528   5.109  20.784  0.00  0.00    +0.000 C 
BRANCH  20  21
ATOM     21  C   UNL     1       0.953   3.783  20.290  0.00  0.00    +0.000 C 
BRANCH  21  22
ATOM     22  C   UNL     1       0.878   3.750  18.762  0.00  0.00    +0.000 C 
BRANCH  22  23
ATOM     23  C   UNL     1       1.592   2.524  18.194  0.00  0.00    +0.000 C 
BRANCH  23  24
ATOM     24  C   UNL     1       2.425   1.827  19.268  0.00  0.00    +0.000 C 
BRANCH  24  25
ATOM     25  C   UNL     1       3.920   2.015  19.019  0.00  0.00    +0.000 C 
ATOM     26  C   UNL     1       4.696   1.996  20.324  0.00  0.00    +0.000 C 
ENDBRANCH  24  25
ENDBRANCH  23  24
ENDBRANCH  22  23
ENDBRANCH  21  22
ENDBRANCH  20  21
ENDBRANCH   5  20
BRANCH   1  27
ATOM     27  C   UNL     1       1.403   9.371  18.585  0.00  0.00    +0.000 C 
BRANCH  27  28
ATOM     28  C   UNL     1       0.050   9.840  18.055  0.00  0.00    +0.000 C 
BRANCH  28  29
ATOM     29  C   UNL     1      -0.787  10.491  19.158  0.00  0.00    +0.000 C 
BRANCH  29  30
ATOM     30  C   UNL     1      -0.076  11.700  19.759  0.00  0.00    +0.000 C 
BRANCH  30  31
ATOM     31  C   UNL     1      -0.844  12.232  20.965  0.00  0.00    +0.000 C 
BRANCH  31  33
ATOM     32  C   UNL     1      -1.700  11.351  23.150  0.00  0.00    +0.000 C 
ATOM     33  C   UNL     1      -0.500  11.444  22.225  0.00  0.00    +0.000 C 
ENDBRANCH  31  33
ENDBRANCH  30  31
ENDBRANCH  29  30
ENDBRANCH  28  29
ENDBRANCH  27  28
ENDBRANCH   1  27
TORSDOF 18
ENDMDL
MODEL 9
REMARK VINA RESULT:      -6.4      4.560      7.442
REMARK  Name = 
REMARK  21 active torsions:
REMARK  status: ('A' for Active; 'I' for Inactive)
REMARK    1  A    between atoms: C_1  and  C_2
REMARK    2  A    between atoms: C_2  and  C_3
REMARK    3  A    between atoms: C_3  and  C_4
REMARK    4  A    between atoms: C_4  and  C_5
REMARK    5  A    between atoms: C_5  and  C_6
REMARK    6  A    between atoms: C_6  and  C_7
REMARK    7  A    between atoms: C_7  and  N_8
REMARK    8  A    between atoms: N_12  and  C_13
REMARK    9  A    between atoms: C_13  and  C_14
REMARK   10  A    between atoms: C_14  and  C_15
REMARK   11  A    between atoms: C_15  and  C_16
REMARK   12  A    between atoms: C_16  and  C_17
REMARK   13  A    between atoms: C_17  and  C_18
REMARK   14  A    between atoms: C_18  and  C_19
REMARK   15  A    between atoms: N_22  and  C_23
REMARK   16  A    between atoms: C_23  and  C_24
REMARK   17  A    between atoms: C_24  and  C_25
REMARK   18  A    between atoms: C_25  and  C_26
REMARK   19  A    between atoms: C_26  and  C_27
REMARK   20  A    between atoms: C_27  and  C_28
REMARK   21  A    between atoms: C_28  and  C_29
REMARK                            x       y       z     vdW  Elec       q    Type
REMARK                         _______ _______ _______ _____ _____    ______ ____
ROOT
ATOM      1  N   UNL     1       4.415   7.060  16.929  0.00  0.00    +0.000 N 
ATOM      2  C   UNL     1       3.374   7.531  17.731  0.00  0.00    +0.000 A 
ATOM      3  N   UNL     1       2.949   6.732  18.681  0.00  0.00    +0.000 NA
ATOM      4  C   UNL     1       2.015   7.222  19.488  0.00  0.00    +0.000 A 
ATOM      5  N   UNL     1       1.601   6.427  20.539  0.00  0.00    +0.000 N 
ATOM      6  N   UNL     1       1.492   8.410  19.367  0.00  0.00    +0.000 NA
ATOM      7  C   UNL     1       1.963   9.173  18.375  0.00  0.00    +0.000 A 
ATOM      8  N   UNL     1       1.395  10.405  18.178  0.00  0.00    +0.000 N 
ATOM      9  N   UNL     1       2.915   8.763  17.526  0.00  0.00    +0.000 NA
ATOM     10  H   UNL     1       4.599   7.669  16.138  0.00  0.00    +0.000 HD
ATOM     11  H   UNL     1       0.706   6.663  20.939  0.00  0.00    +0.000 HD
ATOM     12  H   UNL     1       1.702  10.898  17.352  0.00  0.00    +0.000 HD
ENDROOT
BRANCH   8  13
ATOM     13  C   UNL     1       0.912  11.151  19.334  0.00  0.00    +0.000 C 
BRANCH  13  14
ATOM     14  C   UNL     1      -0.349  11.955  19.001  0.00  0.00    +0.000 C 
BRANCH  14  15
ATOM     15  C   UNL     1      -1.615  11.125  19.227  0.00  0.00    +0.000 C 
BRANCH  15  16
ATOM     16  C   UNL     1      -2.746  11.547  18.294  0.00  0.00    +0.000 C 
BRANCH  16  17
ATOM     17  C   UNL     1      -3.284  10.345  17.520  0.00  0.00    +0.000 C 
BRANCH  17  18
ATOM     18  C   UNL     1      -2.320   9.926  16.414  0.00  0.00    +0.000 C 
ATOM     19  C   UNL     1      -2.970  10.062  15.049  0.00  0.00    +0.000 C 
ENDBRANCH  17  18
ENDBRANCH  16  17
ENDBRANCH  15  16
ENDBRANCH  14  15
ENDBRANCH  13  14
ENDBRANCH   8  13
BRANCH   5  20
ATOM     20  C   UNL     1       2.498   5.456  21.110  0.00  0.00    +0.000 C 
BRANCH  20  21
ATOM     21  C   UNL     1       1.860   4.068  21.114  0.00  0.00    +0.000 C 
BRANCH  21  22
ATOM     22  C   UNL     1       2.902   2.982  20.837  0.00  0.00    +0.000 C 
BRANCH  22  23
ATOM     23  C   UNL     1       3.707   3.290  19.574  0.00  0.00    +0.000 C 
BRANCH  23  24
ATOM     24  C   UNL     1       3.657   2.120  18.593  0.00  0.00    +0.000 C 
BRANCH  24  25
ATOM     25  C   UNL     1       2.360   2.126  17.789  0.00  0.00    +0.000 C 
ATOM     26  C   UNL     1       1.912   3.545  17.488  0.00  0.00    +0.000 C 
ENDBRANCH  24  25
ENDBRANCH  23  24
ENDBRANCH  22  23
ENDBRANCH  21  22
ENDBRANCH  20  21
ENDBRANCH   5  20
BRANCH   1  27
ATOM     27  C   UNL     1       4.451   5.621  16.731  0.00  0.00    +0.000 C 
BRANCH  27  28
ATOM     28  C   UNL     1       5.703   5.212  15.958  0.00  0.00    +0.000 C 
BRANCH  28  29
ATOM     29  C   UNL     1       6.448   4.077  16.662  0.00  0.00    +0.000 C 
BRANCH  29  30
ATOM     30  C   UNL     1       7.663   4.595  17.424  0.00  0.00    +0.000 C 
BRANCH  30  31
ATOM     31  C   UNL     1       7.231   5.453  18.609  0.00  0.00    +0.000 C 
BRANCH  31  33
ATOM     32  C   UNL     1       7.748   7.723  17.680  0.00  0.00    +0.000 C 
ATOM     33  C   UNL     1       8.109   6.694  18.736  0.00  0.00    +0.000 C 
ENDBRANCH  31  33
ENDBRANCH  30  31
ENDBRANCH  29  30
ENDBRANCH  28  29
ENDBRANCH  27  28
ENDBRANCH   1  27
TORSDOF 18
ENDMDL
