MODEL 1
REMARK VINA RESULT:      -8.3      0.000      0.000
REMARK  Name = 
REMARK  5 active torsions:
REMARK  status: ('A' for Active; 'I' for Inactive)
REMARK    1  A    between atoms: N_1  and  C_2
REMARK    2  A    between atoms: C_6  and  C_7
REMARK    3  A    between atoms: C_8  and  C_9
REMARK    4  A    between atoms: C_18  and  N_19
REMARK    5  A    between atoms: N_19  and  C_20
REMARK                            x       y       z     vdW  Elec       q    Type
REMARK                         _______ _______ _______ _____ _____    ______ ____
ROOT
ATOM      1  C   UNL     1       3.594   5.671  18.489  0.00  0.00    +0.000 A 
ATOM      2  C   UNL     1       3.476   7.101  18.385  0.00  0.00    +0.000 A 
ATOM      3  N   UNL     1       4.596   7.649  17.888  0.00  0.00    +0.000 NA
ATOM      4  N   UNL     1       5.465   6.614  17.703  0.00  0.00    +0.000 N 
ATOM      5  C   UNL     1       6.803   6.723  17.208  0.00  0.00    +0.000 A 
ATOM      6  C   UNL     1       7.533   5.596  17.089  0.00  0.00    +0.000 A 
ATOM      7  C   UNL     1       6.942   4.317  17.441  0.00  0.00    +0.000 A 
ATOM      8  C   UNL     1       5.672   4.218  17.871  0.00  0.00    +0.000 A 
ATOM      9  C   UNL     1       4.877   5.394  18.042  0.00  0.00    +0.000 A 
ENDROOT
BRANCH   2  10
ATOM     10  C   UNL     1       2.336   7.965  18.734  0.00  0.00    +0.000 A 
ATOM     11  C   UNL     1       1.715   8.778  17.770  0.00  0.00    +0.000 A 
ATOM     12  C   UNL     1       0.695   9.665  18.129  0.00  0.00    +0.000 A 
ATOM     13  C   UNL     1       0.254   9.706  19.444  0.00  0.00    +0.000 A 
ATOM     14  F   UNL     1      -0.722  10.557  19.786  0.00  0.00    +0.000 F 
ATOM     15  C   UNL     1       0.814   8.877  20.407  0.00  0.00    +0.000 A 
ATOM     16  C   UNL     1       1.855   8.010  20.054  0.00  0.00    +0.000 A 
ENDBRANCH   2  10
BRANCH   1  21
ATOM     17  C   UNL     1       1.616   3.359  20.751  0.00  0.00    +0.000 A 
ATOM     18  C   UNL     1       0.739   2.784  19.832  0.00  0.00    +0.000 A 
ATOM     19  C   UNL     1       0.775   3.158  18.489  0.00  0.00    +0.000 A 
ATOM     20  C   UNL     1       1.737   4.066  18.042  0.00  0.00    +0.000 A 
ATOM     21  C   UNL     1       2.632   4.661  18.941  0.00  0.00    +0.000 A 
ATOM     22  C   UNL     1       2.558   4.286  20.293  0.00  0.00    +0.000 A 
BRANCH  17  23
ATOM     23  N   UNL     1       1.712   2.847  22.050  0.00  0.00    +0.000 N 
ATOM     24  H   UNL     1       1.515   3.520  22.782  0.00  0.00    +0.000 HD
ATOM     25  H   UNL     1       2.552   2.306  22.229  0.00  0.00    +0.000 HD
ENDBRANCH  17  23
ENDBRANCH   1  21
BRANCH   5  26
ATOM     26  N   UNL     1       7.300   7.999  16.924  0.00  0.00    +0.000 N 
ATOM     27  H   UNL     1       8.108   7.886  16.299  0.00  0.00    +0.000 HD
BRANCH  26  28
ATOM     28  C   UNL     1       7.564   8.996  17.954  0.00  0.00    +0.000 C 
ATOM     29  C   UNL     1       8.762   8.588  18.809  0.00  0.00    +0.000 C 
ATOM     30  C   UNL     1       9.378   9.894  19.282  0.00  0.00    +0.000 C 
ATOM     31  C   UNL     1       9.019  10.946  18.236  0.00  0.00    +0.000 C 
ATOM     32  C   UNL     1       7.992  10.311  17.306  0.00  0.00    +0.000 C 
ENDBRANCH  26  28
ENDBRANCH   5  26
TORSDOF 5
ENDMDL
MODEL 2
REMARK VINA RESULT:      -8.0      3.483      5.958
REMARK  Name = 
REMARK  5 active torsions:
REMARK  status: ('A' for Active; 'I' for Inactive)
REMARK    1  A    between atoms: N_1  and  C_2
REMARK    2  A    between atoms: C_6  and  C_7
REMARK    3  A    between atoms: C_8  and  C_9
REMARK    4  A    between atoms: C_18  and  N_19
REMARK    5  A    between atoms: N_19  and  C_20
REMARK                            x       y       z     vdW  Elec       q    Type
REMARK                         _______ _______ _______ _____ _____    ______ ____
ROOT
ATOM      1  C   UNL     1       2.412   6.151  19.557  0.00  0.00    +0.000 A 
ATOM      2  C   UNL     1       3.002   6.723  18.376  0.00  0.00    +0.000 A 
ATOM      3  N   UNL     1       2.689   8.022  18.253  0.00  0.00    +0.000 NA
ATOM      4  N   UNL     1       1.868   8.307  19.304  0.00  0.00    +0.000 N 
ATOM      5  C   UNL     1       1.262   9.575  19.574  0.00  0.00    +0.000 A 
ATOM      6  C   UNL     1       0.470   9.686  20.659  0.00  0.00    +0.000 A 
ATOM      7  C   UNL     1       0.273   8.538  21.525  0.00  0.00    +0.000 A 
ATOM      8  C   UNL     1       0.874   7.360  21.286  0.00  0.00    +0.000 A 
ATOM      9  C   UNL     1       1.695   7.192  20.127  0.00  0.00    +0.000 A 
ENDROOT
BRANCH   2  10
ATOM     10  C   UNL     1       3.860   6.083  17.365  0.00  0.00    +0.000 A 
ATOM     11  C   UNL     1       3.742   4.714  17.069  0.00  0.00    +0.000 A 
ATOM     12  C   UNL     1       4.622   4.094  16.178  0.00  0.00    +0.000 A 
ATOM     13  C   UNL     1       5.593   4.850  15.537  0.00  0.00    +0.000 A 
ATOM     14  F   UNL     1       6.437   4.254  14.684  0.00  0.00    +0.000 F 
ATOM     15  C   UNL     1       5.701   6.215  15.771  0.00  0.00    +0.000 A 
ATOM     16  C   UNL     1       4.838   6.830  16.686  0.00  0.00    +0.000 A 
ENDBRANCH   2  10
BRANCH   1  21
ATOM     17  C   UNL     1       3.805   2.781  20.594  0.00  0.00    +0.000 A 
ATOM     18  C   UNL     1       2.699   2.231  21.241  0.00  0.00    +0.000 A 
ATOM     19  C   UNL     1       1.513   2.956  21.358  0.00  0.00    +0.000 A 
ATOM     20  C   UNL     1       1.405   4.217  20.768  0.00  0.00    +0.000 A 
ATOM     21  C   UNL     1       2.498   4.797  20.112  0.00  0.00    +0.000 A 
ATOM     22  C   UNL     1       3.689   4.056  20.029  0.00  0.00    +0.000 A 
BRANCH  17  23
ATOM     23  N   UNL     1       4.921   1.986  20.306  0.00  0.00    +0.000 N 
ATOM     24  H   UNL     1       5.805   2.481  20.337  0.00  0.00    +0.000 HD
ATOM     25  H   UNL     1       4.823   1.405  19.480  0.00  0.00    +0.000 HD
ENDBRANCH  17  23
ENDBRANCH   1  21
BRANCH   5  26
ATOM     26  N   UNL     1       1.482  10.618  18.668  0.00  0.00    +0.000 N 
ATOM     27  H   UNL     1       2.201  10.305  18.003  0.00  0.00    +0.000 HD
BRANCH  26  28
ATOM     28  C   UNL     1       1.709  11.996  19.083  0.00  0.00    +0.000 C 
ATOM     29  C   UNL     1       2.679  12.695  18.133  0.00  0.00    +0.000 C 
ATOM     30  C   UNL     1       2.289  14.164  18.174  0.00  0.00    +0.000 C 
ATOM     31  C   UNL     1       0.808  14.208  18.541  0.00  0.00    +0.000 C 
ATOM     32  C   UNL     1       0.413  12.796  18.958  0.00  0.00    +0.000 C 
ENDBRANCH  26  28
ENDBRANCH   5  26
TORSDOF 5
ENDMDL
MODEL 3
REMARK VINA RESULT:      -7.8      3.457      5.956
REMARK  Name = 
REMARK  5 active torsions:
REMARK  status: ('A' for Active; 'I' for Inactive)
REMARK    1  A    between atoms: N_1  and  C_2
REMARK    2  A    between atoms: C_6  and  C_7
REMARK    3  A    between atoms: C_8  and  C_9
REMARK    4  A    between atoms: C_18  and  N_19
REMARK    5  A    between atoms: N_19  and  C_20
REMARK                            x       y       z     vdW  Elec       q    Type
REMARK                         _______ _______ _______ _____ _____    ______ ____
ROOT
ATOM      1  C   UNL     1       2.041   6.445  19.491  0.00  0.00    +0.000 A 
ATOM      2  C   UNL     1       2.830   6.997  18.422  0.00  0.00    +0.000 A 
ATOM      3  N   UNL     1       2.659   8.325  18.323  0.00  0.00    +0.000 NA
ATOM      4  N   UNL     1       1.740   8.652  19.277  0.00  0.00    +0.000 N 
ATOM      5  C   UNL     1       1.225   9.963  19.529  0.00  0.00    +0.000 A 
ATOM      6  C   UNL     1       0.314  10.114  20.511  0.00  0.00    +0.000 A 
ATOM      7  C   UNL     1      -0.099   8.960  21.289  0.00  0.00    +0.000 A 
ATOM      8  C   UNL     1       0.414   7.737  21.071  0.00  0.00    +0.000 A 
ATOM      9  C   UNL     1       1.358   7.531  20.017  0.00  0.00    +0.000 A 
ENDROOT
BRANCH   2  10
ATOM     10  C   UNL     1       3.747   6.311  17.497  0.00  0.00    +0.000 A 
ATOM     11  C   UNL     1       4.521   7.030  16.570  0.00  0.00    +0.000 A 
ATOM     12  C   UNL     1       5.318   6.366  15.632  0.00  0.00    +0.000 A 
ATOM     13  C   UNL     1       5.386   4.980  15.650  0.00  0.00    +0.000 A 
ATOM     14  F   UNL     1       6.148   4.345  14.750  0.00  0.00    +0.000 F 
ATOM     15  C   UNL     1       4.671   4.246  16.588  0.00  0.00    +0.000 A 
ATOM     16  C   UNL     1       3.851   4.909  17.508  0.00  0.00    +0.000 A 
ENDBRANCH   2  10
BRANCH   1  21
ATOM     17  C   UNL     1       1.347   2.719  19.607  0.00  0.00    +0.000 A 
ATOM     18  C   UNL     1       1.780   2.415  20.898  0.00  0.00    +0.000 A 
ATOM     19  C   UNL     1       2.312   3.408  21.719  0.00  0.00    +0.000 A 
ATOM     20  C   UNL     1       2.355   4.732  21.276  0.00  0.00    +0.000 A 
ATOM     21  C   UNL     1       1.928   5.069  19.986  0.00  0.00    +0.000 A 
ATOM     22  C   UNL     1       1.419   4.046  19.169  0.00  0.00    +0.000 A 
BRANCH  17  23
ATOM     23  N   UNL     1       0.638   1.772  18.859  0.00  0.00    +0.000 N 
ATOM     24  H   UNL     1       1.111   1.464  18.018  0.00  0.00    +0.000 HD
ATOM     25  H   UNL     1      -0.337   2.005  18.701  0.00  0.00    +0.000 HD
ENDBRANCH  17  23
ENDBRANCH   1  21
BRANCH   5  26
ATOM     26  N   UNL     1       1.658  11.011  18.709  0.00  0.00    +0.000 N 
ATOM     27  H   UNL     1       2.489  10.685  18.200  0.00  0.00    +0.000 HD
BRANCH  26  28
ATOM     28  C   UNL     1       1.833  12.375  19.190  0.00  0.00    +0.000 C 
ATOM     29  C   UNL     1       2.828  13.135  18.315  0.00  0.00    +0.000 C 
ATOM     30  C   UNL     1       2.400  14.591  18.397  0.00  0.00    +0.000 C 
ATOM     31  C   UNL     1       0.905  14.587  18.697  0.00  0.00    +0.000 C 
ATOM     32  C   UNL     1       0.525  13.151  19.038  0.00  0.00    +0.000 C 
ENDBRANCH  26  28
ENDBRANCH   5  26
TORSDOF 5
ENDMDL
MODEL 4
REMARK VINA RESULT:      -7.7      3.511      6.455
REMARK  Name = 
REMARK  5 active torsions:
REMARK  status: ('A' for Active; 'I' for Inactive)
REMARK    1  A    between atoms: N_1  and  C_2
REMARK    2  A    between atoms: C_6  and  C_7
REMARK    3  A    between atoms: C_8  and  C_9
REMARK    4  A    between atoms: C_18  and  N_19
REMARK    5  A    between atoms: N_19  and  C_20
REMARK                            x       y       z     vdW  Elec       q    Type
REMARK                         _______ _______ _______ _____ _____    ______ ____
ROOT
ATOM      1  C   UNL     1       2.412   6.061  19.654  0.00  0.00    +0.000 A 
ATOM      2  C   UNL     1       2.956   6.646  18.457  0.00  0.00    +0.000 A 
ATOM      3  N   UNL     1       2.609   7.938  18.343  0.00  0.00    +0.000 NA
ATOM      4  N   UNL     1       1.812   8.204  19.417  0.00  0.00    +0.000 N 
ATOM      5  C   UNL     1       1.184   9.458  19.704  0.00  0.00    +0.000 A 
ATOM      6  C   UNL     1       0.420   9.551  20.811  0.00  0.00    +0.000 A 
ATOM      7  C   UNL     1       0.276   8.398  21.682  0.00  0.00    +0.000 A 
ATOM      8  C   UNL     1       0.897   7.235  21.427  0.00  0.00    +0.000 A 
ATOM      9  C   UNL     1       1.688   7.086  20.245  0.00  0.00    +0.000 A 
ENDROOT
BRANCH   2  10
ATOM     10  C   UNL     1       3.799   6.025  17.423  0.00  0.00    +0.000 A 
ATOM     11  C   UNL     1       3.669   4.665  17.094  0.00  0.00    +0.000 A 
ATOM     12  C   UNL     1       4.537   4.061  16.180  0.00  0.00    +0.000 A 
ATOM     13  C   UNL     1       5.506   4.827  15.547  0.00  0.00    +0.000 A 
ATOM     14  F   UNL     1       6.337   4.247  14.672  0.00  0.00    +0.000 F 
ATOM     15  C   UNL     1       5.625   6.185  15.813  0.00  0.00    +0.000 A 
ATOM     16  C   UNL     1       4.775   6.783  16.752  0.00  0.00    +0.000 A 
ENDBRANCH   2  10
BRANCH   1  21
ATOM     17  C   UNL     1       3.904   2.714  20.626  0.00  0.00    +0.000 A 
ATOM     18  C   UNL     1       2.840   2.149  21.329  0.00  0.00    +0.000 A 
ATOM     19  C   UNL     1       1.651   2.858  21.503  0.00  0.00    +0.000 A 
ATOM     20  C   UNL     1       1.495   4.116  20.918  0.00  0.00    +0.000 A 
ATOM     21  C   UNL     1       2.546   4.709  20.206  0.00  0.00    +0.000 A 
ATOM     22  C   UNL     1       3.742   3.986  20.066  0.00  0.00    +0.000 A 
BRANCH  17  23
ATOM     23  N   UNL     1       5.016   1.935  20.284  0.00  0.00    +0.000 N 
ATOM     24  H   UNL     1       4.957   0.968  20.582  0.00  0.00    +0.000 HD
ATOM     25  H   UNL     1       5.911   2.360  20.500  0.00  0.00    +0.000 HD
ENDBRANCH  17  23
ENDBRANCH   1  21
BRANCH   5  26
ATOM     26  N   UNL     1       1.354  10.504  18.792  0.00  0.00    +0.000 N 
ATOM     27  H   UNL     1       1.905  11.236  19.257  0.00  0.00    +0.000 HD
BRANCH  26  28
ATOM     28  C   UNL     1       0.253  11.078  18.028  0.00  0.00    +0.000 C 
ATOM     29  C   UNL     1      -0.823  10.028  17.756  0.00  0.00    +0.000 C 
ATOM     30  C   UNL     1      -2.125  10.807  17.662  0.00  0.00    +0.000 C 
ATOM     31  C   UNL     1      -1.937  12.068  18.499  0.00  0.00    +0.000 C 
ATOM     32  C   UNL     1      -0.458  12.142  18.862  0.00  0.00    +0.000 C 
ENDBRANCH  26  28
ENDBRANCH   5  26
TORSDOF 5
ENDMDL
MODEL 5
REMARK VINA RESULT:      -7.6      5.602      9.921
REMARK  Name = 
REMARK  5 active torsions:
REMARK  status: ('A' for Active; 'I' for Inactive)
REMARK    1  A    between atoms: N_1  and  C_2
REMARK    2  A    between atoms: C_6  and  C_7
REMARK    3  A    between atoms: C_8  and  C_9
REMARK    4  A    between atoms: C_18  and  N_19
REMARK    5  A    between atoms: N_19  and  C_20
REMARK                            x       y       z     vdW  Elec       q    Type
REMARK                         _______ _______ _______ _____ _____    ______ ____
ROOT
ATOM      1  C   UNL     1      -1.509  10.793  18.849  0.00  0.00    +0.000 A 
ATOM      2  C   UNL     1      -2.179  11.827  19.592  0.00  0.00    +0.000 A 
ATOM      3  N   UNL     1      -3.304  12.222  18.975  0.00  0.00    +0.000 NA
ATOM      4  N   UNL     1      -3.366  11.501  17.819  0.00  0.00    +0.000 N 
ATOM      5  C   UNL     1      -4.387  11.602  16.822  0.00  0.00    +0.000 A 
ATOM      6  C   UNL     1      -4.295  10.816  15.732  0.00  0.00    +0.000 A 
ATOM      7  C   UNL     1      -3.188   9.884  15.610  0.00  0.00    +0.000 A 
ATOM      8  C   UNL     1      -2.252   9.768  16.566  0.00  0.00    +0.000 A 
ATOM      9  C   UNL     1      -2.296  10.608  17.723  0.00  0.00    +0.000 A 
ENDROOT
BRANCH   2  10
ATOM     10  C   UNL     1      -1.795  12.448  20.871  0.00  0.00    +0.000 A 
ATOM     11  C   UNL     1      -2.463  12.131  22.066  0.00  0.00    +0.000 A 
ATOM     12  C   UNL     1      -2.155  12.794  23.258  0.00  0.00    +0.000 A 
ATOM     13  C   UNL     1      -1.139  13.740  23.273  0.00  0.00    +0.000 A 
ATOM     14  F   UNL     1      -0.846  14.375  24.414  0.00  0.00    +0.000 F 
ATOM     15  C   UNL     1      -0.427  14.036  22.117  0.00  0.00    +0.000 A 
ATOM     16  C   UNL     1      -0.756  13.394  20.918  0.00  0.00    +0.000 A 
ENDBRANCH   2  10
BRANCH   1  21
ATOM     17  C   UNL     1       1.142   8.841  20.729  0.00  0.00    +0.000 A 
ATOM     18  C   UNL     1       2.029   8.546  19.695  0.00  0.00    +0.000 A 
ATOM     19  C   UNL     1       1.760   8.960  18.391  0.00  0.00    +0.000 A 
ATOM     20  C   UNL     1       0.629   9.733  18.123  0.00  0.00    +0.000 A 
ATOM     21  C   UNL     1      -0.282  10.046  19.141  0.00  0.00    +0.000 A 
ATOM     22  C   UNL     1      -0.000   9.596  20.441  0.00  0.00    +0.000 A 
BRANCH  17  23
ATOM     23  N   UNL     1       1.504   8.599  22.060  0.00  0.00    +0.000 N 
ATOM     24  H   UNL     1       0.738   8.303  22.654  0.00  0.00    +0.000 HD
ATOM     25  H   UNL     1       2.072   9.327  22.481  0.00  0.00    +0.000 HD
ENDBRANCH  17  23
ENDBRANCH   1  21
BRANCH   5  26
ATOM     26  N   UNL     1      -5.399  12.550  17.009  0.00  0.00    +0.000 N 
ATOM     27  H   UNL     1      -4.956  13.418  17.333  0.00  0.00    +0.000 HD
BRANCH  26  28
ATOM     28  C   UNL     1      -6.622  12.270  17.752  0.00  0.00    +0.000 C 
ATOM     29  C   UNL     1      -6.534  10.913  18.447  0.00  0.00    +0.000 C 
ATOM     30  C   UNL     1      -7.409  11.042  19.684  0.00  0.00    +0.000 C 
ATOM     31  C   UNL     1      -7.422  12.522  20.053  0.00  0.00    +0.000 C 
ATOM     32  C   UNL     1      -6.775  13.273  18.894  0.00  0.00    +0.000 C 
ENDBRANCH  26  28
ENDBRANCH   5  26
TORSDOF 5
ENDMDL
MODEL 6
REMARK VINA RESULT:      -7.5      4.526      7.313
REMARK  Name = 
REMARK  5 active torsions:
REMARK  status: ('A' for Active; 'I' for Inactive)
REMARK    1  A    between atoms: N_1  and  C_2
REMARK    2  A    between atoms: C_6  and  C_7
REMARK    3  A    between atoms: C_8  and  C_9
REMARK    4  A    between atoms: C_18  and  N_19
REMARK    5  A    between atoms: N_19  and  C_20
REMARK                            x       y       z     vdW  Elec       q    Type
REMARK                         _______ _______ _______ _____ _____    ______ ____
ROOT
ATOM      1  C   UNL     1       6.357   5.001  15.906  0.00  0.00    +0.000 A 
ATOM      2  C   UNL     1       5.167   4.193  15.915  0.00  0.00    +0.000 A 
ATOM      3  N   UNL     1       4.969   3.600  14.727  0.00  0.00    +0.000 NA
ATOM      4  N   UNL     1       5.981   4.036  13.922  0.00  0.00    +0.000 N 
ATOM      5  C   UNL     1       6.168   3.684  12.548  0.00  0.00    +0.000 A 
ATOM      6  C   UNL     1       7.223   4.209  11.893  0.00  0.00    +0.000 A 
ATOM      7  C   UNL     1       8.139   5.089  12.596  0.00  0.00    +0.000 A 
ATOM      8  C   UNL     1       7.978   5.387  13.896  0.00  0.00    +0.000 A 
ATOM      9  C   UNL     1       6.853   4.876  14.617  0.00  0.00    +0.000 A 
ENDROOT
BRANCH   2  10
ATOM     10  C   UNL     1       4.215   3.956  17.013  0.00  0.00    +0.000 A 
ATOM     11  C   UNL     1       4.014   2.670  17.540  0.00  0.00    +0.000 A 
ATOM     12  C   UNL     1       3.041   2.438  18.517  0.00  0.00    +0.000 A 
ATOM     13  C   UNL     1       2.300   3.502  19.011  0.00  0.00    +0.000 A 
ATOM     14  F   UNL     1       1.367   3.279  19.946  0.00  0.00    +0.000 F 
ATOM     15  C   UNL     1       2.512   4.793  18.546  0.00  0.00    +0.000 A 
ATOM     16  C   UNL     1       3.466   5.020  17.546  0.00  0.00    +0.000 A 
ENDBRANCH   2  10
BRANCH   1  21
ATOM     17  C   UNL     1       8.112   5.932  19.135  0.00  0.00    +0.000 A 
ATOM     18  C   UNL     1       8.250   7.310  18.968  0.00  0.00    +0.000 A 
ATOM     19  C   UNL     1       7.793   7.931  17.806  0.00  0.00    +0.000 A 
ATOM     20  C   UNL     1       7.135   7.185  16.827  0.00  0.00    +0.000 A 
ATOM     21  C   UNL     1       6.981   5.800  16.966  0.00  0.00    +0.000 A 
ATOM     22  C   UNL     1       7.471   5.193  18.134  0.00  0.00    +0.000 A 
BRANCH  17  23
ATOM     23  N   UNL     1       8.389   5.340  20.373  0.00  0.00    +0.000 N 
ATOM     24  H   UNL     1       8.790   4.411  20.313  0.00  0.00    +0.000 HD
ATOM     25  H   UNL     1       7.633   5.400  21.047  0.00  0.00    +0.000 HD
ENDBRANCH  17  23
ENDBRANCH   1  21
BRANCH   5  26
ATOM     26  N   UNL     1       5.218   2.854  11.943  0.00  0.00    +0.000 N 
ATOM     27  H   UNL     1       5.697   2.313  11.213  0.00  0.00    +0.000 HD
BRANCH  26  28
ATOM     28  C   UNL     1       3.923   3.337  11.480  0.00  0.00    +0.000 C 
ATOM     29  C   UNL     1       4.098   4.458  10.457  0.00  0.00    +0.000 C 
ATOM     30  C   UNL     1       2.880   4.365   9.552  0.00  0.00    +0.000 C 
ATOM     31  C   UNL     1       2.418   2.912   9.595  0.00  0.00    +0.000 C 
ATOM     32  C   UNL     1       3.202   2.231  10.711  0.00  0.00    +0.000 C 
ENDBRANCH  26  28
ENDBRANCH   5  26
TORSDOF 5
ENDMDL
MODEL 7
REMARK VINA RESULT:      -7.5      3.258      5.808
REMARK  Name = 
REMARK  5 active torsions:
REMARK  status: ('A' for Active; 'I' for Inactive)
REMARK    1  A    between atoms: N_1  and  C_2
REMARK    2  A    between atoms: C_6  and  C_7
REMARK    3  A    between atoms: C_8  and  C_9
REMARK    4  A    between atoms: C_18  and  N_19
REMARK    5  A    between atoms: N_19  and  C_20
REMARK                            x       y       z     vdW  Elec       q    Type
REMARK                         _______ _______ _______ _____ _____    ______ ____
ROOT
ATOM      1  C   UNL     1       2.658   6.217  19.423  0.00  0.00    +0.000 A 
ATOM      2  C   UNL     1       3.416   6.775  18.335  0.00  0.00    +0.000 A 
ATOM      3  N   UNL     1       3.094   8.061  18.124  0.00  0.00    +0.000 NA
ATOM      4  N   UNL     1       2.108   8.349  19.022  0.00  0.00    +0.000 N 
ATOM      5  C   UNL     1       1.435   9.605  19.152  0.00  0.00    +0.000 A 
ATOM      6  C   UNL     1       0.476   9.720  20.093  0.00  0.00    +0.000 A 
ATOM      7  C   UNL     1       0.172   8.589  20.951  0.00  0.00    +0.000 A 
ATOM      8  C   UNL     1       0.833   7.424  20.847  0.00  0.00    +0.000 A 
ATOM      9  C   UNL     1       1.833   7.251  19.840  0.00  0.00    +0.000 A 
ENDROOT
BRANCH   2  10
ATOM     10  C   UNL     1       4.441   6.134  17.495  0.00  0.00    +0.000 A 
ATOM     11  C   UNL     1       5.757   6.625  17.447  0.00  0.00    +0.000 A 
ATOM     12  C   UNL     1       6.699   6.069  16.576  0.00  0.00    +0.000 A 
ATOM     13  C   UNL     1       6.345   4.985  15.785  0.00  0.00    +0.000 A 
ATOM     14  F   UNL     1       7.247   4.455  14.950  0.00  0.00    +0.000 F 
ATOM     15  C   UNL     1       5.066   4.446  15.849  0.00  0.00    +0.000 A 
ATOM     16  C   UNL     1       4.114   5.021  16.700  0.00  0.00    +0.000 A 
ENDBRANCH   2  10
BRANCH   1  21
ATOM     17  C   UNL     1       3.858   2.770  20.449  0.00  0.00    +0.000 A 
ATOM     18  C   UNL     1       2.790   2.347  21.240  0.00  0.00    +0.000 A 
ATOM     19  C   UNL     1       1.694   3.183  21.455  0.00  0.00    +0.000 A 
ATOM     20  C   UNL     1       1.630   4.427  20.825  0.00  0.00    +0.000 A 
ATOM     21  C   UNL     1       2.688   4.880  20.025  0.00  0.00    +0.000 A 
ATOM     22  C   UNL     1       3.791   4.030  19.844  0.00  0.00    +0.000 A 
BRANCH  17  23
ATOM     23  N   UNL     1       4.859   1.866  20.074  0.00  0.00    +0.000 N 
ATOM     24  H   UNL     1       4.513   0.983  19.715  0.00  0.00    +0.000 HD
ATOM     25  H   UNL     1       5.600   1.749  20.758  0.00  0.00    +0.000 HD
ENDBRANCH  17  23
ENDBRANCH   1  21
BRANCH   5  26
ATOM     26  N   UNL     1       1.772  10.630  18.262  0.00  0.00    +0.000 N 
ATOM     27  H   UNL     1       2.729  10.453  17.932  0.00  0.00    +0.000 HD
BRANCH  26  28
ATOM     28  C   UNL     1       1.569  12.041  18.563  0.00  0.00    +0.000 C 
ATOM     29  C   UNL     1       1.833  12.323  20.041  0.00  0.00    +0.000 C 
ATOM     30  C   UNL     1       2.314  13.764  20.092  0.00  0.00    +0.000 C 
ATOM     31  C   UNL     1       2.949  14.057  18.736  0.00  0.00    +0.000 C 
ATOM     32  C   UNL     1       2.609  12.883  17.825  0.00  0.00    +0.000 C 
ENDBRANCH  26  28
ENDBRANCH   5  26
TORSDOF 5
ENDMDL
MODEL 8
REMARK VINA RESULT:      -7.5      0.331      1.206
REMARK  Name = 
REMARK  5 active torsions:
REMARK  status: ('A' for Active; 'I' for Inactive)
REMARK    1  A    between atoms: N_1  and  C_2
REMARK    2  A    between atoms: C_6  and  C_7
REMARK    3  A    between atoms: C_8  and  C_9
REMARK    4  A    between atoms: C_18  and  N_19
REMARK    5  A    between atoms: N_19  and  C_20
REMARK                            x       y       z     vdW  Elec       q    Type
REMARK                         _______ _______ _______ _____ _____    ______ ____
ROOT
ATOM      1  C   UNL     1       3.497   5.832  18.562  0.00  0.00    +0.000 A 
ATOM      2  C   UNL     1       3.345   7.260  18.463  0.00  0.00    +0.000 A 
ATOM      3  N   UNL     1       4.441   7.832  17.940  0.00  0.00    +0.000 NA
ATOM      4  N   UNL     1       5.327   6.816  17.733  0.00  0.00    +0.000 N 
ATOM      5  C   UNL     1       6.651   6.954  17.207  0.00  0.00    +0.000 A 
ATOM      6  C   UNL     1       7.402   5.844  17.070  0.00  0.00    +0.000 A 
ATOM      7  C   UNL     1       6.847   4.552  17.434  0.00  0.00    +0.000 A 
ATOM      8  C   UNL     1       5.591   4.425  17.893  0.00  0.00    +0.000 A 
ATOM      9  C   UNL     1       4.774   5.583  18.085  0.00  0.00    +0.000 A 
ENDROOT
BRANCH   2  10
ATOM     10  C   UNL     1       2.195   8.099  18.840  0.00  0.00    +0.000 A 
ATOM     11  C   UNL     1       1.701   8.111  20.155  0.00  0.00    +0.000 A 
ATOM     12  C   UNL     1       0.551   8.837  20.483  0.00  0.00    +0.000 A 
ATOM     13  C   UNL     1      -0.080   9.597  19.508  0.00  0.00    +0.000 A 
ATOM     14  F   UNL     1      -1.181  10.290  19.823  0.00  0.00    +0.000 F 
ATOM     15  C   UNL     1       0.417   9.644  18.212  0.00  0.00    +0.000 A 
ATOM     16  C   UNL     1       1.550   8.894  17.876  0.00  0.00    +0.000 A 
ENDBRANCH   2  10
BRANCH   1  21
ATOM     17  C   UNL     1       1.640   3.461  20.865  0.00  0.00    +0.000 A 
ATOM     18  C   UNL     1       0.738   2.883  19.971  0.00  0.00    +0.000 A 
ATOM     19  C   UNL     1       0.719   3.274  18.632  0.00  0.00    +0.000 A 
ATOM     20  C   UNL     1       1.650   4.204  18.163  0.00  0.00    +0.000 A 
ATOM     21  C   UNL     1       2.568   4.801  19.036  0.00  0.00    +0.000 A 
ATOM     22  C   UNL     1       2.550   4.408  20.385  0.00  0.00    +0.000 A 
BRANCH  17  23
ATOM     23  N   UNL     1       1.792   2.933  22.152  0.00  0.00    +0.000 N 
ATOM     24  H   UNL     1       1.274   2.078  22.318  0.00  0.00    +0.000 HD
ATOM     25  H   UNL     1       1.686   3.610  22.901  0.00  0.00    +0.000 HD
ENDBRANCH  17  23
ENDBRANCH   1  21
BRANCH   5  26
ATOM     26  N   UNL     1       7.113   8.241  16.913  0.00  0.00    +0.000 N 
ATOM     27  H   UNL     1       7.069   8.362  15.893  0.00  0.00    +0.000 HD
BRANCH  26  28
ATOM     28  C   UNL     1       8.353   8.783  17.455  0.00  0.00    +0.000 C 
ATOM     29  C   UNL     1       8.337  10.310  17.425  0.00  0.00    +0.000 C 
ATOM     30  C   UNL     1       9.213  10.741  18.589  0.00  0.00    +0.000 C 
ATOM     31  C   UNL     1       9.157   9.613  19.615  0.00  0.00    +0.000 C 
ATOM     32  C   UNL     1       8.466   8.434  18.939  0.00  0.00    +0.000 C 
ENDBRANCH  26  28
ENDBRANCH   5  26
TORSDOF 5
ENDMDL
MODEL 9
REMARK VINA RESULT:      -7.5      5.514      9.917
REMARK  Name = 
REMARK  5 active torsions:
REMARK  status: ('A' for Active; 'I' for Inactive)
REMARK    1  A    between atoms: N_1  and  C_2
REMARK    2  A    between atoms: C_6  and  C_7
REMARK    3  A    between atoms: C_8  and  C_9
REMARK    4  A    between atoms: C_18  and  N_19
REMARK    5  A    between atoms: N_19  and  C_20
REMARK                            x       y       z     vdW  Elec       q    Type
REMARK                         _______ _______ _______ _____ _____    ______ ____
ROOT
ATOM      1  C   UNL     1      -1.529  10.711  19.052  0.00  0.00    +0.000 A 
ATOM      2  C   UNL     1      -2.177  11.811  19.717  0.00  0.00    +0.000 A 
ATOM      3  N   UNL     1      -3.232  12.253  19.015  0.00  0.00    +0.000 NA
ATOM      4  N   UNL     1      -3.266  11.496  17.881  0.00  0.00    +0.000 N 
ATOM      5  C   UNL     1      -4.214  11.626  16.816  0.00  0.00    +0.000 A 
ATOM      6  C   UNL     1      -4.104  10.797  15.759  0.00  0.00    +0.000 A 
ATOM      7  C   UNL     1      -3.054   9.793  15.740  0.00  0.00    +0.000 A 
ATOM      8  C   UNL     1      -2.190   9.653  16.759  0.00  0.00    +0.000 A 
ATOM      9  C   UNL     1      -2.253  10.535  17.883  0.00  0.00    +0.000 A 
ENDROOT
BRANCH   2  10
ATOM     10  C   UNL     1      -1.834  12.451  20.997  0.00  0.00    +0.000 A 
ATOM     11  C   UNL     1      -2.675  12.338  22.118  0.00  0.00    +0.000 A 
ATOM     12  C   UNL     1      -2.391  13.026  23.301  0.00  0.00    +0.000 A 
ATOM     13  C   UNL     1      -1.236  13.790  23.389  0.00  0.00    +0.000 A 
ATOM     14  F   UNL     1      -0.966  14.450  24.522  0.00  0.00    +0.000 F 
ATOM     15  C   UNL     1      -0.360  13.879  22.314  0.00  0.00    +0.000 A 
ATOM     16  C   UNL     1      -0.660  13.214  21.119  0.00  0.00    +0.000 A 
ENDBRANCH   2  10
BRANCH   1  21
ATOM     17  C   UNL     1       1.790   8.883  18.908  0.00  0.00    +0.000 A 
ATOM     18  C   UNL     1       1.883   8.411  20.217  0.00  0.00    +0.000 A 
ATOM     19  C   UNL     1       0.885   8.700  21.147  0.00  0.00    +0.000 A 
ATOM     20  C   UNL     1      -0.250   9.412  20.755  0.00  0.00    +0.000 A 
ATOM     21  C   UNL     1      -0.374   9.899  19.447  0.00  0.00    +0.000 A 
ATOM     22  C   UNL     1       0.657   9.616  18.536  0.00  0.00    +0.000 A 
BRANCH  17  23
ATOM     23  N   UNL     1       2.684   8.433  17.930  0.00  0.00    +0.000 N 
ATOM     24  H   UNL     1       2.285   8.359  17.000  0.00  0.00    +0.000 HD
ATOM     25  H   UNL     1       3.221   7.614  18.195  0.00  0.00    +0.000 HD
ENDBRANCH  17  23
ENDBRANCH   1  21
BRANCH   5  26
ATOM     26  N   UNL     1      -5.172  12.642  16.905  0.00  0.00    +0.000 N 
ATOM     27  H   UNL     1      -4.690  13.499  17.204  0.00  0.00    +0.000 HD
BRANCH  26  28
ATOM     28  C   UNL     1      -6.440  12.477  17.605  0.00  0.00    +0.000 C 
ATOM     29  C   UNL     1      -6.501  11.121  18.304  0.00  0.00    +0.000 C 
ATOM     30  C   UNL     1      -7.403  11.333  19.509  0.00  0.00    +0.000 C 
ATOM     31  C   UNL     1      -7.294  12.810  19.876  0.00  0.00    +0.000 C 
ATOM     32  C   UNL     1      -6.540  13.494  18.741  0.00  0.00    +0.000 C 
ENDBRANCH  26  28
ENDBRANCH   5  26
TORSDOF 5
ENDMDL
