MODEL 1
REMARK VINA RESULT:      -8.2      0.000      0.000
REMARK  Name = 
REMARK  9 active torsions:
REMARK  status: ('A' for Active; 'I' for Inactive)
REMARK    1  A    between atoms: C_1  and  C_2
REMARK    2  A    between atoms: C_5  and  C_6
REMARK    3  A    between atoms: C_6  and  C_7
REMARK    4  A    between atoms: C_6  and  N_18
REMARK    5  A    between atoms: N_9  and  C_10
REMARK    6  A    between atoms: C_10  and  C_11
REMARK    7  A    between atoms: C_11  and  C_12
REMARK    8  A    between atoms: N_18  and  C_26
REMARK    9  A    between atoms: C_19  and  C_21
REMARK                            x       y       z     vdW  Elec       q    Type
REMARK                         _______ _______ _______ _____ _____    ______ ____
ROOT
ATOM      1  C   UNL     1       4.929   6.118  16.807  0.00  0.00    +0.000 C 
ENDROOT
BRANCH   1   6
ATOM      2  C   UNL     1       8.497   9.304  17.817  0.00  0.00    +0.000 C 
ATOM      3  C   UNL     1       7.760   8.032  17.945  0.00  0.00    +0.000 A 
ATOM      4  C   UNL     1       8.052   6.882  18.643  0.00  0.00    +0.000 A 
ATOM      5  C   UNL     1       7.048   5.960  18.334  0.00  0.00    +0.000 A 
ATOM      6  C   UNL     1       6.124   6.622  17.541  0.00  0.00    +0.000 A 
ATOM      7  O   UNL     1       6.586   7.887  17.258  0.00  0.00    +0.000 OA
ENDBRANCH   1   6
BRANCH   1   8
ATOM      8  C   UNL     1       5.475   5.200  15.685  0.00  0.00    +0.000 C 
ATOM      9  O   UNL     1       4.851   4.216  15.273  0.00  0.00    +0.000 OA
ATOM     10  N   UNL     1       6.700   5.584  15.134  0.00  0.00    +0.000 N 
ATOM     11  H   UNL     1       7.267   6.239  15.673  0.00  0.00    +0.000 HD
BRANCH  10  12
ATOM     12  C   UNL     1       7.432   4.693  14.251  0.00  0.00    +0.000 C 
BRANCH  12  13
ATOM     13  C   UNL     1       7.089   4.902  12.776  0.00  0.00    +0.000 C 
BRANCH  13  14
ATOM     14  C   UNL     1       6.631   3.631  12.117  0.00  0.00    +0.000 A 
ATOM     15  C   UNL     1       7.567   2.699  11.649  0.00  0.00    +0.000 A 
ATOM     16  C   UNL     1       7.140   1.517  11.044  0.00  0.00    +0.000 A 
ATOM     17  C   UNL     1       5.777   1.264  10.901  0.00  0.00    +0.000 A 
ATOM     18  C   UNL     1       4.840   2.190  11.363  0.00  0.00    +0.000 A 
ATOM     19  C   UNL     1       5.265   3.373  11.964  0.00  0.00    +0.000 A 
ENDBRANCH  13  14
ENDBRANCH  12  13
ENDBRANCH  10  12
ENDBRANCH   1   8
BRANCH   1  20
ATOM     20  N   UNL     1       3.883   5.567  17.726  0.00  0.00    +0.000 N 
ATOM     21  C   UNL     1       3.990   4.249  18.265  0.00  0.00    +0.000 C 
ATOM     22  O   UNL     1       4.956   3.528  18.044  0.00  0.00    +0.000 OA
BRANCH  21  23
ATOM     23  C   UNL     1       2.883   3.734  19.101  0.00  0.00    +0.000 A 
ATOM     24  C   UNL     1       2.899   3.720  20.495  0.00  0.00    +0.000 A 
ATOM     25  S   UNL     1       1.404   3.074  21.041  0.00  0.00    +0.000 S 
ATOM     26  N   UNL     1       0.822   2.867  19.493  0.00  0.00    +0.000 NA
ATOM     27  N   UNL     1       1.677   3.269  18.570  0.00  0.00    +0.000 NA
ENDBRANCH  21  23
BRANCH  20  28
ATOM     28  C   UNL     1       2.692   6.373  17.932  0.00  0.00    +0.000 C 
ATOM     29  C   UNL     1       2.470   7.240  19.156  0.00  0.00    +0.000 C 
ATOM     30  C   UNL     1       2.739   7.874  17.838  0.00  0.00    +0.000 C 
ENDBRANCH  20  28
ENDBRANCH   1  20
TORSDOF 8
ENDMDL
MODEL 2
REMARK VINA RESULT:      -7.9      1.845      6.477
REMARK  Name = 
REMARK  9 active torsions:
REMARK  status: ('A' for Active; 'I' for Inactive)
REMARK    1  A    between atoms: C_1  and  C_2
REMARK    2  A    between atoms: C_5  and  C_6
REMARK    3  A    between atoms: C_6  and  C_7
REMARK    4  A    between atoms: C_6  and  N_18
REMARK    5  A    between atoms: N_9  and  C_10
REMARK    6  A    between atoms: C_10  and  C_11
REMARK    7  A    between atoms: C_11  and  C_12
REMARK    8  A    between atoms: N_18  and  C_26
REMARK    9  A    between atoms: C_19  and  C_21
REMARK                            x       y       z     vdW  Elec       q    Type
REMARK                         _______ _______ _______ _____ _____    ______ ____
ROOT
ATOM      1  C   UNL     1       6.476   4.392  17.582  0.00  0.00    +0.000 C 
ENDROOT
BRANCH   1   6
ATOM      2  C   UNL     1       5.619   3.406  12.872  0.00  0.00    +0.000 C 
ATOM      3  C   UNL     1       6.279   4.093  13.999  0.00  0.00    +0.000 A 
ATOM      4  C   UNL     1       7.330   4.980  14.028  0.00  0.00    +0.000 A 
ATOM      5  C   UNL     1       7.595   5.242  15.375  0.00  0.00    +0.000 A 
ATOM      6  C   UNL     1       6.623   4.584  16.112  0.00  0.00    +0.000 A 
ATOM      7  O   UNL     1       5.838   3.835  15.267  0.00  0.00    +0.000 OA
ENDBRANCH   1   6
BRANCH   1   8
ATOM      8  C   UNL     1       7.501   5.349  18.241  0.00  0.00    +0.000 C 
ATOM      9  O   UNL     1       8.340   4.958  19.060  0.00  0.00    +0.000 OA
ATOM     10  N   UNL     1       7.447   6.678  17.812  0.00  0.00    +0.000 N 
ATOM     11  H   UNL     1       6.595   6.979  17.339  0.00  0.00    +0.000 HD
BRANCH  10  12
ATOM     12  C   UNL     1       8.182   7.716  18.513  0.00  0.00    +0.000 C 
BRANCH  12  13
ATOM     13  C   UNL     1       8.124   9.069  17.804  0.00  0.00    +0.000 C 
BRANCH  13  14
ATOM     14  C   UNL     1       8.982  10.099  18.483  0.00  0.00    +0.000 A 
ATOM     15  C   UNL     1       9.098  10.116  19.880  0.00  0.00    +0.000 A 
ATOM     16  C   UNL     1       9.900  11.069  20.507  0.00  0.00    +0.000 A 
ATOM     17  C   UNL     1      10.586  12.010  19.743  0.00  0.00    +0.000 A 
ATOM     18  C   UNL     1      10.473  12.001  18.352  0.00  0.00    +0.000 A 
ATOM     19  C   UNL     1       9.668  11.052  17.724  0.00  0.00    +0.000 A 
ENDBRANCH  13  14
ENDBRANCH  12  13
ENDBRANCH  10  12
ENDBRANCH   1   8
BRANCH   1  20
ATOM     20  N   UNL     1       5.049   4.464  18.031  0.00  0.00    +0.000 N 
ATOM     21  C   UNL     1       4.551   3.604  19.055  0.00  0.00    +0.000 C 
ATOM     22  O   UNL     1       5.268   2.805  19.646  0.00  0.00    +0.000 OA
BRANCH  21  23
ATOM     23  C   UNL     1       3.112   3.669  19.396  0.00  0.00    +0.000 A 
ATOM     24  C   UNL     1       2.600   4.363  20.492  0.00  0.00    +0.000 A 
ATOM     25  S   UNL     1       0.890   4.198  20.478  0.00  0.00    +0.000 S 
ATOM     26  N   UNL     1       0.897   3.279  19.088  0.00  0.00    +0.000 NA
ATOM     27  N   UNL     1       2.113   3.091  18.609  0.00  0.00    +0.000 NA
ENDBRANCH  21  23
BRANCH  20  28
ATOM     28  C   UNL     1       4.166   5.344  17.287  0.00  0.00    +0.000 C 
ATOM     29  C   UNL     1       3.508   6.573  17.886  0.00  0.00    +0.000 C 
ATOM     30  C   UNL     1       4.598   6.729  16.885  0.00  0.00    +0.000 C 
ENDBRANCH  20  28
ENDBRANCH   1  20
TORSDOF 8
ENDMDL
MODEL 3
REMARK VINA RESULT:      -7.9      2.024      6.281
REMARK  Name = 
REMARK  9 active torsions:
REMARK  status: ('A' for Active; 'I' for Inactive)
REMARK    1  A    between atoms: C_1  and  C_2
REMARK    2  A    between atoms: C_5  and  C_6
REMARK    3  A    between atoms: C_6  and  C_7
REMARK    4  A    between atoms: C_6  and  N_18
REMARK    5  A    between atoms: N_9  and  C_10
REMARK    6  A    between atoms: C_10  and  C_11
REMARK    7  A    between atoms: C_11  and  C_12
REMARK    8  A    between atoms: N_18  and  C_26
REMARK    9  A    between atoms: C_19  and  C_21
REMARK                            x       y       z     vdW  Elec       q    Type
REMARK                         _______ _______ _______ _____ _____    ______ ____
ROOT
ATOM      1  C   UNL     1       6.468   4.198  17.576  0.00  0.00    +0.000 C 
ENDROOT
BRANCH   1   6
ATOM      2  C   UNL     1       8.209   5.714  13.267  0.00  0.00    +0.000 C 
ATOM      3  C   UNL     1       7.331   4.930  14.157  0.00  0.00    +0.000 A 
ATOM      4  C   UNL     1       6.263   4.109  13.881  0.00  0.00    +0.000 A 
ATOM      5  C   UNL     1       5.746   3.696  15.112  0.00  0.00    +0.000 A 
ATOM      6  C   UNL     1       6.588   4.200  16.091  0.00  0.00    +0.000 A 
ATOM      7  O   UNL     1       7.540   5.003  15.507  0.00  0.00    +0.000 OA
ENDBRANCH   1   6
BRANCH   1   8
ATOM      8  C   UNL     1       7.518   5.217  18.088  0.00  0.00    +0.000 C 
ATOM      9  O   UNL     1       8.456   4.887  18.822  0.00  0.00    +0.000 OA
ATOM     10  N   UNL     1       7.362   6.526  17.628  0.00  0.00    +0.000 N 
ATOM     11  H   UNL     1       6.452   6.778  17.242  0.00  0.00    +0.000 HD
BRANCH  10  12
ATOM     12  C   UNL     1       8.125   7.616  18.211  0.00  0.00    +0.000 C 
BRANCH  12  13
ATOM     13  C   UNL     1       7.812   8.970  17.575  0.00  0.00    +0.000 C 
BRANCH  13  14
ATOM     14  C   UNL     1       8.545  10.094  18.252  0.00  0.00    +0.000 A 
ATOM     15  C   UNL     1       8.560  11.375  17.682  0.00  0.00    +0.000 A 
ATOM     16  C   UNL     1       9.236  12.418  18.315  0.00  0.00    +0.000 A 
ATOM     17  C   UNL     1       9.901  12.185  19.517  0.00  0.00    +0.000 A 
ATOM     18  C   UNL     1       9.893  10.912  20.088  0.00  0.00    +0.000 A 
ATOM     19  C   UNL     1       9.222   9.867  19.455  0.00  0.00    +0.000 A 
ENDBRANCH  13  14
ENDBRANCH  12  13
ENDBRANCH  10  12
ENDBRANCH   1   8
BRANCH   1  20
ATOM     20  N   UNL     1       5.051   4.350  18.037  0.00  0.00    +0.000 N 
ATOM     21  C   UNL     1       4.537   3.570  19.117  0.00  0.00    +0.000 C 
ATOM     22  O   UNL     1       5.233   2.782  19.746  0.00  0.00    +0.000 OA
BRANCH  21  23
ATOM     23  C   UNL     1       3.106   3.708  19.470  0.00  0.00    +0.000 A 
ATOM     24  C   UNL     1       2.626   4.564  20.461  0.00  0.00    +0.000 A 
ATOM     25  S   UNL     1       0.914   4.426  20.503  0.00  0.00    +0.000 S 
ATOM     26  N   UNL     1       0.880   3.312  19.264  0.00  0.00    +0.000 NA
ATOM     27  N   UNL     1       2.084   3.036  18.796  0.00  0.00    +0.000 NA
ENDBRANCH  21  23
BRANCH  20  28
ATOM     28  C   UNL     1       4.189   5.215  17.252  0.00  0.00    +0.000 C 
ATOM     29  C   UNL     1       3.568   6.490  17.792  0.00  0.00    +0.000 C 
ATOM     30  C   UNL     1       4.657   6.566  16.781  0.00  0.00    +0.000 C 
ENDBRANCH  20  28
ENDBRANCH   1  20
TORSDOF 8
ENDMDL
MODEL 4
REMARK VINA RESULT:      -7.8      1.952      6.453
REMARK  Name = 
REMARK  9 active torsions:
REMARK  status: ('A' for Active; 'I' for Inactive)
REMARK    1  A    between atoms: C_1  and  C_2
REMARK    2  A    between atoms: C_5  and  C_6
REMARK    3  A    between atoms: C_6  and  C_7
REMARK    4  A    between atoms: C_6  and  N_18
REMARK    5  A    between atoms: N_9  and  C_10
REMARK    6  A    between atoms: C_10  and  C_11
REMARK    7  A    between atoms: C_11  and  C_12
REMARK    8  A    between atoms: N_18  and  C_26
REMARK    9  A    between atoms: C_19  and  C_21
REMARK                            x       y       z     vdW  Elec       q    Type
REMARK                         _______ _______ _______ _____ _____    ______ ____
ROOT
ATOM      1  C   UNL     1       6.313   4.512  18.002  0.00  0.00    +0.000 C 
ENDROOT
BRANCH   1   6
ATOM      2  C   UNL     1       5.792   3.547  13.238  0.00  0.00    +0.000 C 
ATOM      3  C   UNL     1       6.351   4.248  14.410  0.00  0.00    +0.000 A 
ATOM      4  C   UNL     1       7.360   5.177  14.513  0.00  0.00    +0.000 A 
ATOM      5  C   UNL     1       7.530   5.434  15.877  0.00  0.00    +0.000 A 
ATOM      6  C   UNL     1       6.542   4.728  16.545  0.00  0.00    +0.000 A 
ATOM      7  O   UNL     1       5.843   3.956  15.646  0.00  0.00    +0.000 OA
ENDBRANCH   1   6
BRANCH   1   8
ATOM      8  C   UNL     1       7.187   5.564  18.730  0.00  0.00    +0.000 C 
ATOM      9  O   UNL     1       7.465   5.476  19.931  0.00  0.00    +0.000 OA
ATOM     10  N   UNL     1       7.681   6.596  17.929  0.00  0.00    +0.000 N 
ATOM     11  H   UNL     1       7.223   6.747  17.030  0.00  0.00    +0.000 HD
BRANCH  10  12
ATOM     12  C   UNL     1       8.308   7.764  18.522  0.00  0.00    +0.000 C 
BRANCH  12  13
ATOM     13  C   UNL     1       7.997   9.056  17.769  0.00  0.00    +0.000 C 
BRANCH  13  14
ATOM     14  C   UNL     1       8.698  10.243  18.369  0.00  0.00    +0.000 A 
ATOM     15  C   UNL     1       8.682  11.482  17.713  0.00  0.00    +0.000 A 
ATOM     16  C   UNL     1       9.328  12.583  18.275  0.00  0.00    +0.000 A 
ATOM     17  C   UNL     1       9.993  12.451  19.492  0.00  0.00    +0.000 A 
ATOM     18  C   UNL     1      10.014  11.219  20.149  0.00  0.00    +0.000 A 
ATOM     19  C   UNL     1       9.373  10.117  19.587  0.00  0.00    +0.000 A 
ENDBRANCH  13  14
ENDBRANCH  12  13
ENDBRANCH  10  12
ENDBRANCH   1   8
BRANCH   1  20
ATOM     20  N   UNL     1       4.858   4.437  18.349  0.00  0.00    +0.000 N 
ATOM     21  C   UNL     1       4.361   3.441  19.242  0.00  0.00    +0.000 C 
ATOM     22  O   UNL     1       5.097   2.636  19.801  0.00  0.00    +0.000 OA
BRANCH  21  23
ATOM     23  C   UNL     1       2.902   3.369  19.480  0.00  0.00    +0.000 A 
ATOM     24  C   UNL     1       2.005   2.715  18.637  0.00  0.00    +0.000 A 
ATOM     25  S   UNL     1       0.433   2.854  19.317  0.00  0.00    +0.000 S 
ATOM     26  N   UNL     1       0.979   3.714  20.637  0.00  0.00    +0.000 NA
ATOM     27  N   UNL     1       2.286   3.899  20.617  0.00  0.00    +0.000 NA
ENDBRANCH  21  23
BRANCH  20  28
ATOM     28  C   UNL     1       3.961   5.327  17.633  0.00  0.00    +0.000 C 
ATOM     29  C   UNL     1       3.123   6.394  18.311  0.00  0.00    +0.000 C 
ATOM     30  C   UNL     1       4.280   6.788  17.462  0.00  0.00    +0.000 C 
ENDBRANCH  20  28
ENDBRANCH   1  20
TORSDOF 8
ENDMDL
MODEL 5
REMARK VINA RESULT:      -7.6      2.104      6.554
REMARK  Name = 
REMARK  9 active torsions:
REMARK  status: ('A' for Active; 'I' for Inactive)
REMARK    1  A    between atoms: C_1  and  C_2
REMARK    2  A    between atoms: C_5  and  C_6
REMARK    3  A    between atoms: C_6  and  C_7
REMARK    4  A    between atoms: C_6  and  N_18
REMARK    5  A    between atoms: N_9  and  C_10
REMARK    6  A    between atoms: C_10  and  C_11
REMARK    7  A    between atoms: C_11  and  C_12
REMARK    8  A    between atoms: N_18  and  C_26
REMARK    9  A    between atoms: C_19  and  C_21
REMARK                            x       y       z     vdW  Elec       q    Type
REMARK                         _______ _______ _______ _____ _____    ______ ____
ROOT
ATOM      1  C   UNL     1       6.216   5.637  17.448  0.00  0.00    +0.000 C 
ENDROOT
BRANCH   1   6
ATOM      2  C   UNL     1       8.007   5.256  12.915  0.00  0.00    +0.000 C 
ATOM      3  C   UNL     1       7.174   4.855  14.065  0.00  0.00    +0.000 A 
ATOM      4  C   UNL     1       6.219   3.873  14.193  0.00  0.00    +0.000 A 
ATOM      5  C   UNL     1       5.685   3.998  15.479  0.00  0.00    +0.000 A 
ATOM      6  C   UNL     1       6.414   4.986  16.122  0.00  0.00    +0.000 A 
ATOM      7  O   UNL     1       7.301   5.550  15.236  0.00  0.00    +0.000 OA
ENDBRANCH   1   6
BRANCH   1   8
ATOM      8  C   UNL     1       6.614   7.122  17.255  0.00  0.00    +0.000 C 
ATOM      9  O   UNL     1       5.979   7.887  16.522  0.00  0.00    +0.000 OA
ATOM     10  N   UNL     1       7.712   7.553  18.004  0.00  0.00    +0.000 N 
ATOM     11  H   UNL     1       8.327   6.834  18.384  0.00  0.00    +0.000 HD
BRANCH  10  12
ATOM     12  C   UNL     1       8.330   8.841  17.743  0.00  0.00    +0.000 C 
BRANCH  12  13
ATOM     13  C   UNL     1       8.845   9.523  19.010  0.00  0.00    +0.000 C 
BRANCH  13  14
ATOM     14  C   UNL     1       9.482  10.853  18.717  0.00  0.00    +0.000 A 
ATOM     15  C   UNL     1      10.728  11.179  19.270  0.00  0.00    +0.000 A 
ATOM     16  C   UNL     1      11.320  12.411  18.991  0.00  0.00    +0.000 A 
ATOM     17  C   UNL     1      10.668  13.322  18.162  0.00  0.00    +0.000 A 
ATOM     18  C   UNL     1       9.426  13.004  17.611  0.00  0.00    +0.000 A 
ATOM     19  C   UNL     1       8.831  11.776  17.892  0.00  0.00    +0.000 A 
ENDBRANCH  13  14
ENDBRANCH  12  13
ENDBRANCH  10  12
ENDBRANCH   1   8
BRANCH   1  20
ATOM     20  N   UNL     1       4.874   5.335  18.040  0.00  0.00    +0.000 N 
ATOM     21  C   UNL     1       4.716   4.325  19.037  0.00  0.00    +0.000 C 
ATOM     22  O   UNL     1       5.666   3.695  19.488  0.00  0.00    +0.000 OA
BRANCH  21  23
ATOM     23  C   UNL     1       3.352   4.018  19.523  0.00  0.00    +0.000 A 
ATOM     24  C   UNL     1       2.504   3.083  18.931  0.00  0.00    +0.000 A 
ATOM     25  S   UNL     1       1.048   3.028  19.841  0.00  0.00    +0.000 S 
ATOM     26  N   UNL     1       1.579   4.170  20.933  0.00  0.00    +0.000 NA
ATOM     27  N   UNL     1       2.803   4.592  20.672  0.00  0.00    +0.000 NA
ENDBRANCH  21  23
BRANCH  20  28
ATOM     28  C   UNL     1       3.727   6.010  17.461  0.00  0.00    +0.000 C 
ATOM     29  C   UNL     1       2.560   6.529  18.278  0.00  0.00    +0.000 C 
ATOM     30  C   UNL     1       3.511   7.487  17.653  0.00  0.00    +0.000 C 
ENDBRANCH  20  28
ENDBRANCH   1  20
TORSDOF 8
ENDMDL
MODEL 6
REMARK VINA RESULT:      -7.2      5.888      8.972
REMARK  Name = 
REMARK  9 active torsions:
REMARK  status: ('A' for Active; 'I' for Inactive)
REMARK    1  A    between atoms: C_1  and  C_2
REMARK    2  A    between atoms: C_5  and  C_6
REMARK    3  A    between atoms: C_6  and  C_7
REMARK    4  A    between atoms: C_6  and  N_18
REMARK    5  A    between atoms: N_9  and  C_10
REMARK    6  A    between atoms: C_10  and  C_11
REMARK    7  A    between atoms: C_11  and  C_12
REMARK    8  A    between atoms: N_18  and  C_26
REMARK    9  A    between atoms: C_19  and  C_21
REMARK                            x       y       z     vdW  Elec       q    Type
REMARK                         _______ _______ _______ _____ _____    ______ ____
ROOT
ATOM      1  C   UNL     1       0.269   9.949  19.462  0.00  0.00    +0.000 C 
ENDROOT
BRANCH   1   6
ATOM      2  C   UNL     1      -4.114  11.680  18.163  0.00  0.00    +0.000 C 
ATOM      3  C   UNL     1      -2.844  10.956  17.958  0.00  0.00    +0.000 A 
ATOM      4  C   UNL     1      -2.397  10.192  16.905  0.00  0.00    +0.000 A 
ATOM      5  C   UNL     1      -1.156   9.673  17.286  0.00  0.00    +0.000 A 
ATOM      6  C   UNL     1      -0.847  10.230  18.516  0.00  0.00    +0.000 A 
ATOM      7  O   UNL     1      -1.910  10.985  18.956  0.00  0.00    +0.000 OA
ENDBRANCH   1   6
BRANCH   1   8
ATOM      8  C   UNL     1       1.413   9.351  18.603  0.00  0.00    +0.000 C 
ATOM      9  O   UNL     1       1.898   9.951  17.638  0.00  0.00    +0.000 OA
ATOM     10  N   UNL     1       1.893   8.108  19.022  0.00  0.00    +0.000 N 
ATOM     11  H   UNL     1       1.300   7.569  19.652  0.00  0.00    +0.000 HD
BRANCH  10  12
ATOM     12  C   UNL     1       2.789   7.335  18.180  0.00  0.00    +0.000 C 
BRANCH  12  13
ATOM     13  C   UNL     1       3.581   6.285  18.958  0.00  0.00    +0.000 C 
BRANCH  13  14
ATOM     14  C   UNL     1       2.898   4.946  18.957  0.00  0.00    +0.000 A 
ATOM     15  C   UNL     1       1.939   4.640  17.981  0.00  0.00    +0.000 A 
ATOM     16  C   UNL     1       1.311   3.395  17.979  0.00  0.00    +0.000 A 
ATOM     17  C   UNL     1       1.637   2.452  18.951  0.00  0.00    +0.000 A 
ATOM     18  C   UNL     1       2.589   2.751  19.927  0.00  0.00    +0.000 A 
ATOM     19  C   UNL     1       3.214   3.996  19.934  0.00  0.00    +0.000 A 
ENDBRANCH  13  14
ENDBRANCH  12  13
ENDBRANCH  10  12
ENDBRANCH   1   8
BRANCH   1  20
ATOM     20  N   UNL     1       0.583  11.119  20.342  0.00  0.00    +0.000 N 
ATOM     21  C   UNL     1       1.030  12.359  19.795  0.00  0.00    +0.000 C 
ATOM     22  O   UNL     1       1.132  12.543  18.587  0.00  0.00    +0.000 OA
BRANCH  21  23
ATOM     23  C   UNL     1       1.401  13.450  20.723  0.00  0.00    +0.000 A 
ATOM     24  C   UNL     1       0.527  14.455  21.137  0.00  0.00    +0.000 A 
ATOM     25  S   UNL     1       1.366  15.477  22.233  0.00  0.00    +0.000 S 
ATOM     26  N   UNL     1       2.771  14.586  22.133  0.00  0.00    +0.000 NA
ATOM     27  N   UNL     1       2.655  13.543  21.331  0.00  0.00    +0.000 NA
ENDBRANCH  21  23
BRANCH  20  28
ATOM     28  C   UNL     1       0.548  10.896  21.777  0.00  0.00    +0.000 C 
ATOM     29  C   UNL     1      -0.702  11.060  22.620  0.00  0.00    +0.000 C 
ATOM     30  C   UNL     1      -0.153   9.701  22.365  0.00  0.00    +0.000 C 
ENDBRANCH  20  28
ENDBRANCH   1  20
TORSDOF 8
ENDMDL
MODEL 7
REMARK VINA RESULT:      -7.2      2.298      6.260
REMARK  Name = 
REMARK  9 active torsions:
REMARK  status: ('A' for Active; 'I' for Inactive)
REMARK    1  A    between atoms: C_1  and  C_2
REMARK    2  A    between atoms: C_5  and  C_6
REMARK    3  A    between atoms: C_6  and  C_7
REMARK    4  A    between atoms: C_6  and  N_18
REMARK    5  A    between atoms: N_9  and  C_10
REMARK    6  A    between atoms: C_10  and  C_11
REMARK    7  A    between atoms: C_11  and  C_12
REMARK    8  A    between atoms: N_18  and  C_26
REMARK    9  A    between atoms: C_19  and  C_21
REMARK                            x       y       z     vdW  Elec       q    Type
REMARK                         _______ _______ _______ _____ _____    ______ ____
ROOT
ATOM      1  C   UNL     1       6.361   4.306  18.120  0.00  0.00    +0.000 C 
ENDROOT
BRANCH   1   6
ATOM      2  C   UNL     1       7.860   5.205  13.555  0.00  0.00    +0.000 C 
ATOM      3  C   UNL     1       6.862   5.022  14.626  0.00  0.00    +0.000 A 
ATOM      4  C   UNL     1       5.497   5.195  14.632  0.00  0.00    +0.000 A 
ATOM      5  C   UNL     1       5.070   4.966  15.943  0.00  0.00    +0.000 A 
ATOM      6  C   UNL     1       6.181   4.557  16.663  0.00  0.00    +0.000 A 
ATOM      7  O   UNL     1       7.298   4.637  15.864  0.00  0.00    +0.000 OA
ENDBRANCH   1   6
BRANCH   1   8
ATOM      8  C   UNL     1       7.401   5.347  18.606  0.00  0.00    +0.000 C 
ATOM      9  O   UNL     1       8.206   5.104  19.511  0.00  0.00    +0.000 OA
ATOM     10  N   UNL     1       7.400   6.564  17.920  0.00  0.00    +0.000 N 
ATOM     11  H   UNL     1       6.571   6.788  17.371  0.00  0.00    +0.000 HD
BRANCH  10  12
ATOM     12  C   UNL     1       8.153   7.700  18.421  0.00  0.00    +0.000 C 
BRANCH  12  13
ATOM     13  C   UNL     1       7.981   8.954  17.564  0.00  0.00    +0.000 C 
BRANCH  13  14
ATOM     14  C   UNL     1       8.579  10.170  18.216  0.00  0.00    +0.000 A 
ATOM     15  C   UNL     1       9.333  10.046  19.391  0.00  0.00    +0.000 A 
ATOM     16  C   UNL     1       9.892  11.175  19.989  0.00  0.00    +0.000 A 
ATOM     17  C   UNL     1       9.699  12.431  19.418  0.00  0.00    +0.000 A 
ATOM     18  C   UNL     1       8.948  12.561  18.249  0.00  0.00    +0.000 A 
ATOM     19  C   UNL     1       8.385  11.435  17.652  0.00  0.00    +0.000 A 
ENDBRANCH  13  14
ENDBRANCH  12  13
ENDBRANCH  10  12
ENDBRANCH   1   8
BRANCH   1  20
ATOM     20  N   UNL     1       5.057   4.213  18.851  0.00  0.00    +0.000 N 
ATOM     21  C   UNL     1       4.330   2.986  18.915  0.00  0.00    +0.000 C 
ATOM     22  O   UNL     1       4.754   1.947  18.423  0.00  0.00    +0.000 OA
BRANCH  21  23
ATOM     23  C   UNL     1       3.010   2.980  19.583  0.00  0.00    +0.000 A 
ATOM     24  C   UNL     1       2.833   2.920  20.965  0.00  0.00    +0.000 A 
ATOM     25  S   UNL     1       1.148   2.974  21.293  0.00  0.00    +0.000 S 
ATOM     26  N   UNL     1       0.744   3.086  19.680  0.00  0.00    +0.000 NA
ATOM     27  N   UNL     1       1.802   3.101  18.890  0.00  0.00    +0.000 NA
ENDBRANCH  21  23
BRANCH  20  28
ATOM     28  C   UNL     1       4.499   5.450  19.368  0.00  0.00    +0.000 C 
ATOM     29  C   UNL     1       4.131   6.633  18.493  0.00  0.00    +0.000 C 
ATOM     30  C   UNL     1       3.059   5.818  19.127  0.00  0.00    +0.000 C 
ENDBRANCH  20  28
ENDBRANCH   1  20
TORSDOF 8
ENDMDL
MODEL 8
REMARK VINA RESULT:      -7.1      2.695      6.842
REMARK  Name = 
REMARK  9 active torsions:
REMARK  status: ('A' for Active; 'I' for Inactive)
REMARK    1  A    between atoms: C_1  and  C_2
REMARK    2  A    between atoms: C_5  and  C_6
REMARK    3  A    between atoms: C_6  and  C_7
REMARK    4  A    between atoms: C_6  and  N_18
REMARK    5  A    between atoms: N_9  and  C_10
REMARK    6  A    between atoms: C_10  and  C_11
REMARK    7  A    between atoms: C_11  and  C_12
REMARK    8  A    between atoms: N_18  and  C_26
REMARK    9  A    between atoms: C_19  and  C_21
REMARK                            x       y       z     vdW  Elec       q    Type
REMARK                         _______ _______ _______ _____ _____    ______ ____
ROOT
ATOM      1  C   UNL     1       5.242   5.162  18.540  0.00  0.00    +0.000 C 
ENDROOT
BRANCH   1   6
ATOM      2  C   UNL     1       7.318   5.030  14.116  0.00  0.00    +0.000 C 
ATOM      3  C   UNL     1       6.305   4.685  15.132  0.00  0.00    +0.000 A 
ATOM      4  C   UNL     1       5.132   3.971  15.036  0.00  0.00    +0.000 A 
ATOM      5  C   UNL     1       4.523   4.031  16.293  0.00  0.00    +0.000 A 
ATOM      6  C   UNL     1       5.404   4.691  17.136  0.00  0.00    +0.000 A 
ATOM      7  O   UNL     1       6.483   5.138  16.410  0.00  0.00    +0.000 OA
ENDBRANCH   1   6
BRANCH   1   8
ATOM      8  C   UNL     1       6.601   5.793  18.936  0.00  0.00    +0.000 C 
ATOM      9  O   UNL     1       7.256   5.399  19.906  0.00  0.00    +0.000 OA
ATOM     10  N   UNL     1       7.061   6.809  18.094  0.00  0.00    +0.000 N 
ATOM     11  H   UNL     1       6.377   7.247  17.477  0.00  0.00    +0.000 HD
BRANCH  10  12
ATOM     12  C   UNL     1       8.190   7.639  18.477  0.00  0.00    +0.000 C 
BRANCH  12  13
ATOM     13  C   UNL     1       8.217   8.981  17.749  0.00  0.00    +0.000 C 
BRANCH  13  14
ATOM     14  C   UNL     1       9.020  10.012  18.493  0.00  0.00    +0.000 A 
ATOM     15  C   UNL     1       9.010  10.041  19.895  0.00  0.00    +0.000 A 
ATOM     16  C   UNL     1       9.760  10.994  20.583  0.00  0.00    +0.000 A 
ATOM     17  C   UNL     1      10.522  11.922  19.875  0.00  0.00    +0.000 A 
ATOM     18  C   UNL     1      10.534  11.899  18.479  0.00  0.00    +0.000 A 
ATOM     19  C   UNL     1       9.781  10.951  17.790  0.00  0.00    +0.000 A 
ENDBRANCH  13  14
ENDBRANCH  12  13
ENDBRANCH  10  12
ENDBRANCH   1   8
BRANCH   1  20
ATOM     20  N   UNL     1       4.000   5.976  18.732  0.00  0.00    +0.000 N 
ATOM     21  C   UNL     1       3.810   7.210  18.041  0.00  0.00    +0.000 C 
ATOM     22  O   UNL     1       4.622   7.638  17.228  0.00  0.00    +0.000 OA
BRANCH  21  23
ATOM     23  C   UNL     1       2.598   8.007  18.336  0.00  0.00    +0.000 A 
ATOM     24  C   UNL     1       2.041   8.139  19.608  0.00  0.00    +0.000 A 
ATOM     25  S   UNL     1       0.677   9.176  19.490  0.00  0.00    +0.000 S 
ATOM     26  N   UNL     1       0.880   9.410  17.852  0.00  0.00    +0.000 NA
ATOM     27  N   UNL     1       1.928   8.765  17.373  0.00  0.00    +0.000 NA
ENDBRANCH  21  23
BRANCH  20  28
ATOM     28  C   UNL     1       3.067   5.529  19.751  0.00  0.00    +0.000 C 
ATOM     29  C   UNL     1       1.906   4.595  19.471  0.00  0.00    +0.000 C 
ATOM     30  C   UNL     1       3.077   4.109  20.251  0.00  0.00    +0.000 C 
ENDBRANCH  20  28
ENDBRANCH   1  20
TORSDOF 8
ENDMDL
MODEL 9
REMARK VINA RESULT:      -7.1      6.156      9.341
REMARK  Name = 
REMARK  9 active torsions:
REMARK  status: ('A' for Active; 'I' for Inactive)
REMARK    1  A    between atoms: C_1  and  C_2
REMARK    2  A    between atoms: C_5  and  C_6
REMARK    3  A    between atoms: C_6  and  C_7
REMARK    4  A    between atoms: C_6  and  N_18
REMARK    5  A    between atoms: N_9  and  C_10
REMARK    6  A    between atoms: C_10  and  C_11
REMARK    7  A    between atoms: C_11  and  C_12
REMARK    8  A    between atoms: N_18  and  C_26
REMARK    9  A    between atoms: C_19  and  C_21
REMARK                            x       y       z     vdW  Elec       q    Type
REMARK                         _______ _______ _______ _____ _____    ______ ____
ROOT
ATOM      1  C   UNL     1      -0.217  10.481  20.064  0.00  0.00    +0.000 C 
ENDROOT
BRANCH   1   6
ATOM      2  C   UNL     1      -2.818   9.581  16.025  0.00  0.00    +0.000 C 
ATOM      3  C   UNL     1      -2.225  10.431  17.076  0.00  0.00    +0.000 A 
ATOM      4  C   UNL     1      -2.180  11.799  17.216  0.00  0.00    +0.000 A 
ATOM      5  C   UNL     1      -1.413  12.060  18.355  0.00  0.00    +0.000 A 
ATOM      6  C   UNL     1      -1.110  10.833  18.925  0.00  0.00    +0.000 A 
ATOM      7  O   UNL     1      -1.569   9.824  18.110  0.00  0.00    +0.000 OA
ENDBRANCH   1   6
BRANCH   1   8
ATOM      8  C   UNL     1       0.810   9.466  19.502  0.00  0.00    +0.000 C 
ATOM      9  O   UNL     1       1.219   9.515  18.337  0.00  0.00    +0.000 OA
ATOM     10  N   UNL     1       1.280   8.517  20.414  0.00  0.00    +0.000 N 
ATOM     11  H   UNL     1       0.732   8.376  21.262  0.00  0.00    +0.000 HD
BRANCH  10  12
ATOM     12  C   UNL     1       2.055   7.374  19.964  0.00  0.00    +0.000 C 
BRANCH  12  13
ATOM     13  C   UNL     1       1.693   6.083  20.698  0.00  0.00    +0.000 C 
BRANCH  13  14
ATOM     14  C   UNL     1       1.758   4.883  19.795  0.00  0.00    +0.000 A 
ATOM     15  C   UNL     1       2.109   5.029  18.445  0.00  0.00    +0.000 A 
ATOM     16  C   UNL     1       2.175   3.913  17.612  0.00  0.00    +0.000 A 
ATOM     17  C   UNL     1       1.889   2.648  18.121  0.00  0.00    +0.000 A 
ATOM     18  C   UNL     1       1.537   2.496  19.462  0.00  0.00    +0.000 A 
ATOM     19  C   UNL     1       1.466   3.610  20.296  0.00  0.00    +0.000 A 
ENDBRANCH  13  14
ENDBRANCH  12  13
ENDBRANCH  10  12
ENDBRANCH   1   8
BRANCH   1  20
ATOM     20  N   UNL     1       0.302  11.690  20.781  0.00  0.00    +0.000 N 
ATOM     21  C   UNL     1       1.334  12.499  20.215  0.00  0.00    +0.000 C 
ATOM     22  O   UNL     1       1.808  12.276  19.107  0.00  0.00    +0.000 OA
BRANCH  21  23
ATOM     23  C   UNL     1       1.860  13.631  21.009  0.00  0.00    +0.000 A 
ATOM     24  C   UNL     1       1.169  14.824  21.221  0.00  0.00    +0.000 A 
ATOM     25  S   UNL     1       2.135  15.832  22.222  0.00  0.00    +0.000 S 
ATOM     26  N   UNL     1       3.355  14.702  22.342  0.00  0.00    +0.000 NA
ATOM     27  N   UNL     1       3.083  13.590  21.684  0.00  0.00    +0.000 NA
ENDBRANCH  21  23
BRANCH  20  28
ATOM     28  C   UNL     1      -0.186  11.921  22.128  0.00  0.00    +0.000 C 
ATOM     29  C   UNL     1      -1.613  12.325  22.443  0.00  0.00    +0.000 C 
ATOM     30  C   UNL     1      -1.136  10.959  22.791  0.00  0.00    +0.000 C 
ENDBRANCH  20  28
ENDBRANCH   1  20
TORSDOF 8
ENDMDL
