MODEL 1
REMARK VINA RESULT:      -6.7      0.000      0.000
REMARK  Name = 
REMARK  6 active torsions:
REMARK  status: ('A' for Active; 'I' for Inactive)
REMARK    1  A    between atoms: C_1  and  C_2
REMARK    2  A    between atoms: C_2  and  C_3
REMARK    3  A    between atoms: C_2  and  C_4
REMARK    4  A    between atoms: C_2  and  N_5
REMARK    5  A    between atoms: C_7  and  C_8
REMARK    6  A    between atoms: C_10  and  C_12
REMARK                            x       y       z     vdW  Elec       q    Type
REMARK                         _______ _______ _______ _____ _____    ______ ____
ROOT
ATOM      1  C   UNL     1      -1.364  12.085  19.413  0.00  0.00    +0.000 C 
ATOM      2  N   UNL     1      -0.555  10.874  19.267  0.00  0.00    +0.000 N 
ATOM      3  C   UNL     1       0.793  10.749  19.449  0.00  0.00    +0.000 C 
ATOM      4  O   UNL     1       1.499  11.691  19.794  0.00  0.00    +0.000 OA
ATOM      5  C   UNL     1      -1.631  10.061  18.731  0.00  0.00    +0.000 C 
ATOM      6  C   UNL     1      -2.351  11.387  18.403  0.00  0.00    +0.000 C 
ATOM      7  C   UNL     1      -3.848  11.462  18.735  0.00  0.00    +0.000 C 
ATOM      8  C   UNL     1      -4.647  10.672  17.710  0.00  0.00    +0.000 C 
ATOM      9  O   UNL     1      -4.403  11.179  16.399  0.00  0.00    +0.000 OA
ATOM     10  C   UNL     1      -3.038  11.017  16.016  0.00  0.00    +0.000 C 
ATOM     11  C   UNL     1      -2.126  11.820  16.938  0.00  0.00    +0.000 C 
ENDROOT
BRANCH   3  12
ATOM     12  C   UNL     1       1.443   9.442  19.181  0.00  0.00    +0.000 A 
ATOM     13  C   UNL     1       2.107   9.275  17.968  0.00  0.00    +0.000 A 
ATOM     14  N   UNL     1       2.703   8.116  17.587  0.00  0.00    +0.000 NA
ATOM     15  C   UNL     1       2.644   7.083  18.458  0.00  0.00    +0.000 A 
ATOM     16  C   UNL     1       2.030   7.167  19.698  0.00  0.00    +0.000 A 
ATOM     17 CL   UNL     1       1.974   5.815  20.752  0.00  0.00    +0.000 Cl
ATOM     18  C   UNL     1       1.442   8.370  20.072  0.00  0.00    +0.000 A 
ENDBRANCH   3  12
BRANCH   1  21
ATOM     19  N   UNL     1      -2.922  12.875  22.648  0.00  0.00    +0.000 N 
ATOM     20  C   UNL     1      -2.863  13.066  21.296  0.00  0.00    +0.000 A 
ATOM     21  C   UNL     1      -1.862  12.245  20.836  0.00  0.00    +0.000 A 
ATOM     22  C   UNL     1      -1.403  11.555  21.963  0.00  0.00    +0.000 A 
ATOM     23  N   UNL     1      -2.039  11.942  23.073  0.00  0.00    +0.000 NA
BRANCH  19  25
ATOM     24  C   UNL     1      -5.071  14.034  22.806  0.00  0.00    +0.000 C 
ATOM     25  C   UNL     1      -3.868  13.494  23.595  0.00  0.00    +0.000 C 
ATOM     26  C   UNL     1      -3.219  14.661  24.372  0.00  0.00    +0.000 C 
ATOM     27  C   UNL     1      -4.350  12.465  24.638  0.00  0.00    +0.000 C 
ENDBRANCH  19  25
ENDBRANCH   1  21
TORSDOF 3
ENDMDL
MODEL 2
REMARK VINA RESULT:      -6.6      1.501      1.950
REMARK  Name = 
REMARK  6 active torsions:
REMARK  status: ('A' for Active; 'I' for Inactive)
REMARK    1  A    between atoms: C_1  and  C_2
REMARK    2  A    between atoms: C_2  and  C_3
REMARK    3  A    between atoms: C_2  and  C_4
REMARK    4  A    between atoms: C_2  and  N_5
REMARK    5  A    between atoms: C_7  and  C_8
REMARK    6  A    between atoms: C_10  and  C_12
REMARK                            x       y       z     vdW  Elec       q    Type
REMARK                         _______ _______ _______ _____ _____    ______ ____
ROOT
ATOM      1  C   UNL     1      -1.065  12.326  18.396  0.00  0.00    +0.000 C 
ATOM      2  N   UNL     1      -0.395  11.060  18.701  0.00  0.00    +0.000 N 
ATOM      3  C   UNL     1       0.950  10.832  18.786  0.00  0.00    +0.000 C 
ATOM      4  O   UNL     1       1.778  11.723  18.628  0.00  0.00    +0.000 OA
ATOM      5  C   UNL     1      -1.604  10.260  18.668  0.00  0.00    +0.000 C 
ATOM      6  C   UNL     1      -2.247  11.421  17.880  0.00  0.00    +0.000 C 
ATOM      7  C   UNL     1      -3.666  11.837  18.293  0.00  0.00    +0.000 C 
ATOM      8  C   UNL     1      -4.673  10.817  17.783  0.00  0.00    +0.000 C 
ATOM      9  O   UNL     1      -4.583  10.702  16.364  0.00  0.00    +0.000 OA
ATOM     10  C   UNL     1      -3.309  10.207  15.955  0.00  0.00    +0.000 C 
ATOM     11  C   UNL     1      -2.204  11.179  16.355  0.00  0.00    +0.000 C 
ENDROOT
BRANCH   3  12
ATOM     12  C   UNL     1       1.436   9.453  19.037  0.00  0.00    +0.000 A 
ATOM     13  C   UNL     1       1.165   8.875  20.275  0.00  0.00    +0.000 A 
ATOM     14  N   UNL     1       1.590   7.639  20.641  0.00  0.00    +0.000 NA
ATOM     15  C   UNL     1       2.308   6.945  19.730  0.00  0.00    +0.000 A 
ATOM     16  C   UNL     1       2.601   7.427  18.464  0.00  0.00    +0.000 A 
ATOM     17 CL   UNL     1       3.531   6.503  17.356  0.00  0.00    +0.000 Cl
ATOM     18  C   UNL     1       2.139   8.689  18.106  0.00  0.00    +0.000 A 
ENDBRANCH   3  12
BRANCH   1  21
ATOM     19  N   UNL     1      -1.966  13.783  21.650  0.00  0.00    +0.000 N 
ATOM     20  C   UNL     1      -1.933  12.699  20.818  0.00  0.00    +0.000 A 
ATOM     21  C   UNL     1      -1.332  13.124  19.658  0.00  0.00    +0.000 A 
ATOM     22  C   UNL     1      -0.987  14.460  19.888  0.00  0.00    +0.000 A 
ATOM     23  N   UNL     1      -1.379  14.870  21.097  0.00  0.00    +0.000 NA
BRANCH  19  25
ATOM     24  C   UNL     1      -2.877  12.407  23.457  0.00  0.00    +0.000 C 
ATOM     25  C   UNL     1      -2.472  13.829  23.034  0.00  0.00    +0.000 C 
ATOM     26  C   UNL     1      -3.703  14.754  23.164  0.00  0.00    +0.000 C 
ATOM     27  C   UNL     1      -1.392  14.369  23.993  0.00  0.00    +0.000 C 
ENDBRANCH  19  25
ENDBRANCH   1  21
TORSDOF 3
ENDMDL
MODEL 3
REMARK VINA RESULT:      -6.6      3.640      6.874
REMARK  Name = 
REMARK  6 active torsions:
REMARK  status: ('A' for Active; 'I' for Inactive)
REMARK    1  A    between atoms: C_1  and  C_2
REMARK    2  A    between atoms: C_2  and  C_3
REMARK    3  A    between atoms: C_2  and  C_4
REMARK    4  A    between atoms: C_2  and  N_5
REMARK    5  A    between atoms: C_7  and  C_8
REMARK    6  A    between atoms: C_10  and  C_12
REMARK                            x       y       z     vdW  Elec       q    Type
REMARK                         _______ _______ _______ _____ _____    ______ ____
ROOT
ATOM      1  C   UNL     1       0.368  10.889  19.896  0.00  0.00    +0.000 C 
ATOM      2  N   UNL     1       0.866  12.148  19.341  0.00  0.00    +0.000 N 
ATOM      3  C   UNL     1       1.863  12.939  19.840  0.00  0.00    +0.000 C 
ATOM      4  O   UNL     1       2.492  12.642  20.851  0.00  0.00    +0.000 OA
ATOM      5  C   UNL     1      -0.153  12.253  18.315  0.00  0.00    +0.000 C 
ATOM      6  C   UNL     1      -0.973  11.246  19.150  0.00  0.00    +0.000 C 
ATOM      7  C   UNL     1      -1.660  10.107  18.382  0.00  0.00    +0.000 C 
ATOM      8  C   UNL     1      -2.887  10.638  17.657  0.00  0.00    +0.000 C 
ATOM      9  O   UNL     1      -3.793  11.228  18.588  0.00  0.00    +0.000 OA
ATOM     10  C   UNL     1      -3.220  12.363  19.235  0.00  0.00    +0.000 C 
ATOM     11  C   UNL     1      -2.003  11.951  20.058  0.00  0.00    +0.000 C 
ENDROOT
BRANCH   3  12
ATOM     12  C   UNL     1       2.175  14.224  19.166  0.00  0.00    +0.000 A 
ATOM     13  C   UNL     1       3.235  14.251  18.263  0.00  0.00    +0.000 A 
ATOM     14  N   UNL     1       3.646  15.371  17.615  0.00  0.00    +0.000 NA
ATOM     15  C   UNL     1       2.964  16.510  17.870  0.00  0.00    +0.000 A 
ATOM     16  C   UNL     1       1.879  16.572  18.731  0.00  0.00    +0.000 A 
ATOM     17 CL   UNL     1       1.064  18.052  19.026  0.00  0.00    +0.000 Cl
ATOM     18  C   UNL     1       1.467  15.407  19.369  0.00  0.00    +0.000 A 
ENDBRANCH   3  12
BRANCH   1  21
ATOM     19  N   UNL     1       2.095   7.750  19.067  0.00  0.00    +0.000 N 
ATOM     20  C   UNL     1       1.289   8.458  19.914  0.00  0.00    +0.000 A 
ATOM     21  C   UNL     1       1.144   9.704  19.354  0.00  0.00    +0.000 A 
ATOM     22  C   UNL     1       1.850   9.652  18.147  0.00  0.00    +0.000 A 
ATOM     23  N   UNL     1       2.440   8.466  17.971  0.00  0.00    +0.000 NA
BRANCH  19  25
ATOM     24  C   UNL     1       1.923   5.779  20.505  0.00  0.00    +0.000 C 
ATOM     25  C   UNL     1       2.511   6.342  19.201  0.00  0.00    +0.000 C 
ATOM     26  C   UNL     1       4.048   6.200  19.247  0.00  0.00    +0.000 C 
ATOM     27  C   UNL     1       2.011   5.509  18.004  0.00  0.00    +0.000 C 
ENDBRANCH  19  25
ENDBRANCH   1  21
TORSDOF 3
ENDMDL
MODEL 4
REMARK VINA RESULT:      -6.5      3.448      7.003
REMARK  Name = 
REMARK  6 active torsions:
REMARK  status: ('A' for Active; 'I' for Inactive)
REMARK    1  A    between atoms: C_1  and  C_2
REMARK    2  A    between atoms: C_2  and  C_3
REMARK    3  A    between atoms: C_2  and  C_4
REMARK    4  A    between atoms: C_2  and  N_5
REMARK    5  A    between atoms: C_7  and  C_8
REMARK    6  A    between atoms: C_10  and  C_12
REMARK                            x       y       z     vdW  Elec       q    Type
REMARK                         _______ _______ _______ _____ _____    ______ ____
ROOT
ATOM      1  C   UNL     1       0.026  10.578  19.544  0.00  0.00    +0.000 C 
ATOM      2  N   UNL     1       0.454  11.963  19.347  0.00  0.00    +0.000 N 
ATOM      3  C   UNL     1       1.254  12.710  20.166  0.00  0.00    +0.000 C 
ATOM      4  O   UNL     1       1.739  12.258  21.198  0.00  0.00    +0.000 OA
ATOM      5  C   UNL     1      -0.388  12.198  18.189  0.00  0.00    +0.000 C 
ATOM      6  C   UNL     1      -1.207  10.972  18.646  0.00  0.00    +0.000 C 
ATOM      7  C   UNL     1      -1.619   9.970  17.558  0.00  0.00    +0.000 C 
ATOM      8  C   UNL     1      -2.764  10.540  16.736  0.00  0.00    +0.000 C 
ATOM      9  O   UNL     1      -3.875  10.840  17.579  0.00  0.00    +0.000 OA
ATOM     10  C   UNL     1      -3.555  11.855  18.530  0.00  0.00    +0.000 C 
ATOM     11  C   UNL     1      -2.449  11.381  19.467  0.00  0.00    +0.000 C 
ENDROOT
BRANCH   3  12
ATOM     12  C   UNL     1       1.517  14.130  19.824  0.00  0.00    +0.000 A 
ATOM     13  C   UNL     1       0.988  15.114  20.655  0.00  0.00    +0.000 A 
ATOM     14  N   UNL     1       1.122  16.446  20.428  0.00  0.00    +0.000 NA
ATOM     15  C   UNL     1       1.823  16.812  19.331  0.00  0.00    +0.000 A 
ATOM     16  C   UNL     1       2.409  15.903  18.464  0.00  0.00    +0.000 A 
ATOM     17 CL   UNL     1       3.274  16.430  17.079  0.00  0.00    +0.000 Cl
ATOM     18  C   UNL     1       2.273  14.544  18.728  0.00  0.00    +0.000 A 
ENDBRANCH   3  12
BRANCH   1  21
ATOM     19  N   UNL     1       2.276   7.865  18.496  0.00  0.00    +0.000 N 
ATOM     20  C   UNL     1       1.304   8.324  19.341  0.00  0.00    +0.000 A 
ATOM     21  C   UNL     1       1.016   9.604  18.935  0.00  0.00    +0.000 A 
ATOM     22  C   UNL     1       1.818   9.824  17.809  0.00  0.00    +0.000 A 
ATOM     23  N   UNL     1       2.595   8.771  17.543  0.00  0.00    +0.000 NA
BRANCH  19  25
ATOM     24  C   UNL     1       4.223   6.600  17.725  0.00  0.00    +0.000 C 
ATOM     25  C   UNL     1       2.890   6.525  18.489  0.00  0.00    +0.000 C 
ATOM     26  C   UNL     1       1.982   5.481  17.800  0.00  0.00    +0.000 C 
ATOM     27  C   UNL     1       3.143   6.031  19.928  0.00  0.00    +0.000 C 
ENDBRANCH  19  25
ENDBRANCH   1  21
TORSDOF 3
ENDMDL
MODEL 5
REMARK VINA RESULT:      -6.5      3.582      7.015
REMARK  Name = 
REMARK  6 active torsions:
REMARK  status: ('A' for Active; 'I' for Inactive)
REMARK    1  A    between atoms: C_1  and  C_2
REMARK    2  A    between atoms: C_2  and  C_3
REMARK    3  A    between atoms: C_2  and  C_4
REMARK    4  A    between atoms: C_2  and  N_5
REMARK    5  A    between atoms: C_7  and  C_8
REMARK    6  A    between atoms: C_10  and  C_12
REMARK                            x       y       z     vdW  Elec       q    Type
REMARK                         _______ _______ _______ _____ _____    ______ ____
ROOT
ATOM      1  C   UNL     1       0.293  10.792  19.660  0.00  0.00    +0.000 C 
ATOM      2  N   UNL     1       0.736  12.133  19.273  0.00  0.00    +0.000 N 
ATOM      3  C   UNL     1       1.674  12.909  19.894  0.00  0.00    +0.000 C 
ATOM      4  O   UNL     1       2.291  12.527  20.883  0.00  0.00    +0.000 OA
ATOM      5  C   UNL     1      -0.261  12.305  18.233  0.00  0.00    +0.000 C 
ATOM      6  C   UNL     1      -1.045  11.165  18.917  0.00  0.00    +0.000 C 
ATOM      7  C   UNL     1      -1.648  10.092  18.000  0.00  0.00    +0.000 C 
ATOM      8  C   UNL     1      -2.883  10.641  17.302  0.00  0.00    +0.000 C 
ATOM      9  O   UNL     1      -3.844  11.068  18.265  0.00  0.00    +0.000 OA
ATOM     10  C   UNL     1      -3.352  12.146  19.060  0.00  0.00    +0.000 C 
ATOM     11  C   UNL     1      -2.136  11.703  19.868  0.00  0.00    +0.000 C 
ENDROOT
BRANCH   3  12
ATOM     12  C   UNL     1       1.932  14.279  19.386  0.00  0.00    +0.000 A 
ATOM     13  C   UNL     1       2.872  14.437  18.370  0.00  0.00    +0.000 A 
ATOM     14  N   UNL     1       3.227  15.639  17.850  0.00  0.00    +0.000 NA
ATOM     15  C   UNL     1       2.611  16.731  18.357  0.00  0.00    +0.000 A 
ATOM     16  C   UNL     1       1.643  16.668  19.348  0.00  0.00    +0.000 A 
ATOM     17 CL   UNL     1       0.909  18.091  19.962  0.00  0.00    +0.000 Cl
ATOM     18  C   UNL     1       1.284  15.422  19.852  0.00  0.00    +0.000 A 
ENDBRANCH   3  12
BRANCH   1  21
ATOM     19  N   UNL     1       2.255   7.887  18.550  0.00  0.00    +0.000 N 
ATOM     20  C   UNL     1       1.425   8.460  19.473  0.00  0.00    +0.000 A 
ATOM     21  C   UNL     1       1.148   9.722  19.008  0.00  0.00    +0.000 A 
ATOM     22  C   UNL     1       1.805   9.815  17.777  0.00  0.00    +0.000 A 
ATOM     23  N   UNL     1       2.489   8.702  17.497  0.00  0.00    +0.000 NA
BRANCH  19  25
ATOM     24  C   UNL     1       4.153   6.514  17.842  0.00  0.00    +0.000 C 
ATOM     25  C   UNL     1       2.798   6.516  18.570  0.00  0.00    +0.000 C 
ATOM     26  C   UNL     1       1.855   5.515  17.866  0.00  0.00    +0.000 C 
ATOM     27  C   UNL     1       2.986   6.023  20.019  0.00  0.00    +0.000 C 
ENDBRANCH  19  25
ENDBRANCH   1  21
TORSDOF 3
ENDMDL
MODEL 6
REMARK VINA RESULT:      -6.5      1.169      1.533
REMARK  Name = 
REMARK  6 active torsions:
REMARK  status: ('A' for Active; 'I' for Inactive)
REMARK    1  A    between atoms: C_1  and  C_2
REMARK    2  A    between atoms: C_2  and  C_3
REMARK    3  A    between atoms: C_2  and  C_4
REMARK    4  A    between atoms: C_2  and  N_5
REMARK    5  A    between atoms: C_7  and  C_8
REMARK    6  A    between atoms: C_10  and  C_12
REMARK                            x       y       z     vdW  Elec       q    Type
REMARK                         _______ _______ _______ _____ _____    ______ ____
ROOT
ATOM      1  C   UNL     1      -1.444  12.043  19.638  0.00  0.00    +0.000 C 
ATOM      2  N   UNL     1      -0.666  10.805  19.572  0.00  0.00    +0.000 N 
ATOM      3  C   UNL     1       0.648  10.631  19.904  0.00  0.00    +0.000 C 
ATOM      4  O   UNL     1       1.342  11.545  20.337  0.00  0.00    +0.000 OA
ATOM      5  C   UNL     1      -1.701  10.035  18.908  0.00  0.00    +0.000 C 
ATOM      6  C   UNL     1      -2.333  11.387  18.515  0.00  0.00    +0.000 C 
ATOM      7  C   UNL     1      -3.855  11.513  18.676  0.00  0.00    +0.000 C 
ATOM      8  C   UNL     1      -4.558  10.759  17.559  0.00  0.00    +0.000 C 
ATOM      9  O   UNL     1      -4.150  11.267  16.289  0.00  0.00    +0.000 OA
ATOM     10  C   UNL     1      -2.757  11.059  16.062  0.00  0.00    +0.000 C 
ATOM     11  C   UNL     1      -1.928  11.822  17.090  0.00  0.00    +0.000 C 
ENDROOT
BRANCH   3  12
ATOM     12  C   UNL     1       1.278   9.304  19.697  0.00  0.00    +0.000 A 
ATOM     13  C   UNL     1       1.170   8.359  20.714  0.00  0.00    +0.000 A 
ATOM     14  N   UNL     1       1.736   7.126  20.664  0.00  0.00    +0.000 NA
ATOM     15  C   UNL     1       2.433   6.819  19.546  0.00  0.00    +0.000 A 
ATOM     16  C   UNL     1       2.570   7.684  18.472  0.00  0.00    +0.000 A 
ATOM     17 CL   UNL     1       3.480   7.241  17.087  0.00  0.00    +0.000 Cl
ATOM     18  C   UNL     1       1.965   8.935  18.540  0.00  0.00    +0.000 A 
ENDBRANCH   3  12
BRANCH   1  21
ATOM     19  N   UNL     1      -3.426  12.748  22.654  0.00  0.00    +0.000 N 
ATOM     20  C   UNL     1      -3.281  12.835  21.298  0.00  0.00    +0.000 A 
ATOM     21  C   UNL     1      -2.095  12.210  20.998  0.00  0.00    +0.000 A 
ATOM     22  C   UNL     1      -1.611  11.729  22.219  0.00  0.00    +0.000 A 
ATOM     23  N   UNL     1      -2.414  12.062  23.234  0.00  0.00    +0.000 NA
BRANCH  19  25
ATOM     24  C   UNL     1      -4.331  14.709  23.803  0.00  0.00    +0.000 C 
ATOM     25  C   UNL     1      -4.562  13.227  23.462  0.00  0.00    +0.000 C 
ATOM     26  C   UNL     1      -4.707  12.431  24.778  0.00  0.00    +0.000 C 
ATOM     27  C   UNL     1      -5.887  13.074  22.687  0.00  0.00    +0.000 C 
ENDBRANCH  19  25
ENDBRANCH   1  21
TORSDOF 3
ENDMDL
MODEL 7
REMARK VINA RESULT:      -6.4      2.382      4.411
REMARK  Name = 
REMARK  6 active torsions:
REMARK  status: ('A' for Active; 'I' for Inactive)
REMARK    1  A    between atoms: C_1  and  C_2
REMARK    2  A    between atoms: C_2  and  C_3
REMARK    3  A    between atoms: C_2  and  C_4
REMARK    4  A    between atoms: C_2  and  N_5
REMARK    5  A    between atoms: C_7  and  C_8
REMARK    6  A    between atoms: C_10  and  C_12
REMARK                            x       y       z     vdW  Elec       q    Type
REMARK                         _______ _______ _______ _____ _____    ______ ____
ROOT
ATOM      1  C   UNL     1      -0.907  12.370  20.702  0.00  0.00    +0.000 C 
ATOM      2  N   UNL     1      -0.076  11.384  20.010  0.00  0.00    +0.000 N 
ATOM      3  C   UNL     1       0.098  10.068  20.336  0.00  0.00    +0.000 C 
ATOM      4  O   UNL     1      -0.477   9.546  21.286  0.00  0.00    +0.000 OA
ATOM      5  C   UNL     1       0.533  12.338  19.102  0.00  0.00    +0.000 C 
ATOM      6  C   UNL     1       0.082  13.434  20.092  0.00  0.00    +0.000 C 
ATOM      7  C   UNL     1      -0.548  14.696  19.488  0.00  0.00    +0.000 C 
ATOM      8  C   UNL     1       0.533  15.572  18.874  0.00  0.00    +0.000 C 
ATOM      9  O   UNL     1       1.501  15.924  19.861  0.00  0.00    +0.000 OA
ATOM     10  C   UNL     1       2.187  14.777  20.360  0.00  0.00    +0.000 C 
ATOM     11  C   UNL     1       1.213  13.836  21.063  0.00  0.00    +0.000 C 
ENDROOT
BRANCH   3  12
ATOM     12  C   UNL     1       1.045   9.244  19.545  0.00  0.00    +0.000 A 
ATOM     13  C   UNL     1       1.343   9.650  18.247  0.00  0.00    +0.000 A 
ATOM     14  N   UNL     1       2.160   8.961  17.409  0.00  0.00    +0.000 NA
ATOM     15  C   UNL     1       2.712   7.825  17.891  0.00  0.00    +0.000 A 
ATOM     16  C   UNL     1       2.496   7.360  19.178  0.00  0.00    +0.000 A 
ATOM     17 CL   UNL     1       3.213   5.901  19.726  0.00  0.00    +0.000 Cl
ATOM     18  C   UNL     1       1.669   8.092  20.023  0.00  0.00    +0.000 A 
ENDBRANCH   3  12
BRANCH   1  21
ATOM     19  N   UNL     1      -4.116  12.105  18.926  0.00  0.00    +0.000 N 
ATOM     20  C   UNL     1      -2.783  11.807  18.994  0.00  0.00    +0.000 A 
ATOM     21  C   UNL     1      -2.322  12.377  20.155  0.00  0.00    +0.000 A 
ATOM     22  C   UNL     1      -3.445  12.955  20.756  0.00  0.00    +0.000 A 
ATOM     23  N   UNL     1      -4.540  12.800  20.007  0.00  0.00    +0.000 NA
BRANCH  19  25
ATOM     24  C   UNL     1      -5.947  10.550  18.461  0.00  0.00    +0.000 C 
ATOM     25  C   UNL     1      -5.073  11.679  17.889  0.00  0.00    +0.000 C 
ATOM     26  C   UNL     1      -4.354  11.158  16.625  0.00  0.00    +0.000 C 
ATOM     27  C   UNL     1      -5.967  12.857  17.453  0.00  0.00    +0.000 C 
ENDBRANCH  19  25
ENDBRANCH   1  21
TORSDOF 3
ENDMDL
MODEL 8
REMARK VINA RESULT:      -6.3      1.281      1.529
REMARK  Name = 
REMARK  6 active torsions:
REMARK  status: ('A' for Active; 'I' for Inactive)
REMARK    1  A    between atoms: C_1  and  C_2
REMARK    2  A    between atoms: C_2  and  C_3
REMARK    3  A    between atoms: C_2  and  C_4
REMARK    4  A    between atoms: C_2  and  N_5
REMARK    5  A    between atoms: C_7  and  C_8
REMARK    6  A    between atoms: C_10  and  C_12
REMARK                            x       y       z     vdW  Elec       q    Type
REMARK                         _______ _______ _______ _____ _____    ______ ____
ROOT
ATOM      1  C   UNL     1      -1.385  12.338  19.077  0.00  0.00    +0.000 C 
ATOM      2  N   UNL     1      -0.637  11.084  19.179  0.00  0.00    +0.000 N 
ATOM      3  C   UNL     1       0.707  10.932  19.377  0.00  0.00    +0.000 C 
ATOM      4  O   UNL     1       1.461  11.888  19.519  0.00  0.00    +0.000 OA
ATOM      5  C   UNL     1      -1.757  10.234  18.825  0.00  0.00    +0.000 C 
ATOM      6  C   UNL     1      -2.418  11.498  18.235  0.00  0.00    +0.000 C 
ATOM      7  C   UNL     1      -3.905  11.714  18.551  0.00  0.00    +0.000 C 
ATOM      8  C   UNL     1      -4.755  10.772  17.713  0.00  0.00    +0.000 C 
ATOM      9  O   UNL     1      -4.506  10.988  16.325  0.00  0.00    +0.000 OA
ATOM     10  C   UNL     1      -3.156  10.683  15.978  0.00  0.00    +0.000 C 
ATOM     11  C   UNL     1      -2.193  11.611  16.712  0.00  0.00    +0.000 C 
ENDROOT
BRANCH   3  12
ATOM     12  C   UNL     1       1.289   9.567  19.380  0.00  0.00    +0.000 A 
ATOM     13  C   UNL     1       1.098   8.774  20.508  0.00  0.00    +0.000 A 
ATOM     14  N   UNL     1       1.614   7.526  20.651  0.00  0.00    +0.000 NA
ATOM     15  C   UNL     1       2.343   7.045  19.619  0.00  0.00    +0.000 A 
ATOM     16  C   UNL     1       2.561   7.750  18.446  0.00  0.00    +0.000 A 
ATOM     17 CL   UNL     1       3.509   7.091  17.177  0.00  0.00    +0.000 Cl
ATOM     18  C   UNL     1       2.007   9.020  18.317  0.00  0.00    +0.000 A 
ENDBRANCH   3  12
BRANCH   1  21
ATOM     19  N   UNL     1      -2.664  13.973  22.112  0.00  0.00    +0.000 N 
ATOM     20  C   UNL     1      -2.452  14.005  20.762  0.00  0.00    +0.000 A 
ATOM     21  C   UNL     1      -1.854  12.811  20.439  0.00  0.00    +0.000 A 
ATOM     22  C   UNL     1      -1.787  12.094  21.639  0.00  0.00    +0.000 A 
ATOM     23  N   UNL     1      -2.270  12.802  22.664  0.00  0.00    +0.000 NA
BRANCH  19  25
ATOM     24  C   UNL     1      -4.467  15.626  22.119  0.00  0.00    +0.000 C 
ATOM     25  C   UNL     1      -3.323  15.003  22.935  0.00  0.00    +0.000 C 
ATOM     26  C   UNL     1      -2.341  16.122  23.349  0.00  0.00    +0.000 C 
ATOM     27  C   UNL     1      -3.886  14.388  24.233  0.00  0.00    +0.000 C 
ENDBRANCH  19  25
ENDBRANCH   1  21
TORSDOF 3
ENDMDL
MODEL 9
REMARK VINA RESULT:      -6.3      4.419      7.276
REMARK  Name = 
REMARK  6 active torsions:
REMARK  status: ('A' for Active; 'I' for Inactive)
REMARK    1  A    between atoms: C_1  and  C_2
REMARK    2  A    between atoms: C_2  and  C_3
REMARK    3  A    between atoms: C_2  and  C_4
REMARK    4  A    between atoms: C_2  and  N_5
REMARK    5  A    between atoms: C_7  and  C_8
REMARK    6  A    between atoms: C_10  and  C_12
REMARK                            x       y       z     vdW  Elec       q    Type
REMARK                         _______ _______ _______ _____ _____    ______ ____
ROOT
ATOM      1  C   UNL     1       2.209   6.102  18.094  0.00  0.00    +0.000 C 
ATOM      2  N   UNL     1       3.623   5.752  18.230  0.00  0.00    +0.000 N 
ATOM      3  C   UNL     1       4.660   6.162  17.439  0.00  0.00    +0.000 C 
ATOM      4  O   UNL     1       4.502   6.928  16.495  0.00  0.00    +0.000 OA
ATOM      5  C   UNL     1       3.416   4.772  19.279  0.00  0.00    +0.000 C 
ATOM      6  C   UNL     1       1.938   4.740  18.837  0.00  0.00    +0.000 C 
ATOM      7  C   UNL     1       0.881   4.758  19.950  0.00  0.00    +0.000 C 
ATOM      8  C   UNL     1       0.804   3.392  20.614  0.00  0.00    +0.000 C 
ATOM      9  O   UNL     1       0.489   2.391  19.647  0.00  0.00    +0.000 OA
ATOM     10  C   UNL     1       1.513   2.271  18.660  0.00  0.00    +0.000 C 
ATOM     11  C   UNL     1       1.650   3.569  17.871  0.00  0.00    +0.000 C 
ENDROOT
BRANCH   3  12
ATOM     12  C   UNL     1       6.023   5.635  17.700  0.00  0.00    +0.000 A 
ATOM     13  C   UNL     1       6.685   4.983  16.662  0.00  0.00    +0.000 A 
ATOM     14  N   UNL     1       7.915   4.421  16.786  0.00  0.00    +0.000 NA
ATOM     15  C   UNL     1       8.514   4.523  17.994  0.00  0.00    +0.000 A 
ATOM     16  C   UNL     1       7.944   5.177  19.075  0.00  0.00    +0.000 A 
ATOM     17 CL   UNL     1       8.749   5.258  20.587  0.00  0.00    +0.000 Cl
ATOM     18  C   UNL     1       6.691   5.760  18.917  0.00  0.00    +0.000 A 
ENDBRANCH   3  12
BRANCH   1  21
ATOM     19  N   UNL     1       1.345   9.409  19.448  0.00  0.00    +0.000 N 
ATOM     20  C   UNL     1       1.508   8.590  18.366  0.00  0.00    +0.000 A 
ATOM     21  C   UNL     1       1.879   7.365  18.866  0.00  0.00    +0.000 A 
ATOM     22  C   UNL     1       1.868   7.513  20.257  0.00  0.00    +0.000 A 
ATOM     23  N   UNL     1       1.552   8.760  20.618  0.00  0.00    +0.000 NA
BRANCH  19  25
ATOM     24  C   UNL     1      -0.532  10.879  18.899  0.00  0.00    +0.000 C 
ATOM     25  C   UNL     1       0.905  10.816  19.443  0.00  0.00    +0.000 C 
ATOM     26  C   UNL     1       1.811  11.697  18.554  0.00  0.00    +0.000 C 
ATOM     27  C   UNL     1       0.947  11.408  20.866  0.00  0.00    +0.000 C 
ENDBRANCH  19  25
ENDBRANCH   1  21
TORSDOF 3
ENDMDL
