MODEL 1
REMARK VINA RESULT:      -9.2      0.000      0.000
REMARK  Name = 
REMARK  5 active torsions:
REMARK  status: ('A' for Active; 'I' for Inactive)
REMARK    1  A    between atoms: C_2  and  C_3
REMARK    2  A    between atoms: N_11  and  C_12
REMARK    3  A    between atoms: C_12  and  C_13
REMARK    4  A    between atoms: C_13  and  C_14
REMARK    5  A    between atoms: C_17  and  C_18
REMARK                            x       y       z     vdW  Elec       q    Type
REMARK                         _______ _______ _______ _____ _____    ______ ____
ROOT
ATOM      1  C   UNL     1       2.100   8.428  19.119  0.00  0.00    +0.000 C 
ATOM      2  C   UNL     1       1.821   9.345  17.918  0.00  0.00    +0.000 C 
ATOM      3  C   UNL     1       1.723  10.804  18.315  0.00  0.00    +0.000 C 
ATOM      4  C   UNL     1       0.664  11.059  19.389  0.00  0.00    +0.000 C 
ATOM      5  C   UNL     1       0.788  10.099  20.569  0.00  0.00    +0.000 C 
ATOM      6  C   UNL     1       1.040   8.634  20.213  0.00  0.00    +0.000 C 
ENDROOT
BRANCH   4   7
ATOM      7  C   UNL     1      -0.705  11.436  18.850  0.00  0.00    +0.000 A 
ATOM      8  C   UNL     1      -1.280  12.628  19.275  0.00  0.00    +0.000 A 
ATOM      9  N   UNL     1      -2.621  12.429  19.196  0.00  0.00    +0.000 N 
ATOM     10  C   UNL     1      -2.864  11.628  18.117  0.00  0.00    +0.000 A 
ATOM     11  C   UNL     1      -4.028  11.480  17.364  0.00  0.00    +0.000 A 
ATOM     12  C   UNL     1      -4.008  10.576  16.312  0.00  0.00    +0.000 A 
ATOM     13  C   UNL     1      -2.894   9.762  16.121  0.00  0.00    +0.000 A 
ATOM     14  C   UNL     1      -1.745   9.883  16.938  0.00  0.00    +0.000 A 
ATOM     15  C   UNL     1      -1.679  10.887  17.927  0.00  0.00    +0.000 A 
ATOM     16  H   UNL     1      -3.318  12.838  19.799  0.00  0.00    +0.000 HD
ENDBRANCH   4   7
BRANCH   1  17
ATOM     17  C   UNL     1       2.137   6.971  18.606  0.00  0.00    +0.000 C 
BRANCH  17  18
ATOM     18  C   UNL     1       3.187   6.066  19.267  0.00  0.00    +0.000 C 
BRANCH  18  23
ATOM     19  C   UNL     1       4.445   4.148  16.278  0.00  0.00    +0.000 C 
ATOM     20  C   UNL     1       5.403   4.935  15.771  0.00  0.00    +0.000 C 
ATOM     21  C   UNL     1       5.808   6.196  16.473  0.00  0.00    +0.000 C 
ATOM     22  C   UNL     1       4.720   6.669  17.448  0.00  0.00    +0.000 C 
ATOM     23  N   UNL     1       4.238   5.594  18.334  0.00  0.00    +0.000 NA
ATOM     24  C   UNL     1       3.712   4.452  17.555  0.00  0.00    +0.000 C 
BRANCH  20  25
ATOM     25  C   UNL     1       6.041   4.614  14.493  0.00  0.00    +0.000 A 
ATOM     26  C   UNL     1       7.214   5.269  14.114  0.00  0.00    +0.000 A 
ATOM     27  C   UNL     1       7.832   4.967  12.899  0.00  0.00    +0.000 A 
ATOM     28  C   UNL     1       7.262   4.030  12.035  0.00  0.00    +0.000 A 
ATOM     29  C   UNL     1       6.094   3.378  12.406  0.00  0.00    +0.000 A 
ATOM     30  C   UNL     1       5.480   3.665  13.630  0.00  0.00    +0.000 A 
ENDBRANCH  20  25
ENDBRANCH  18  23
ENDBRANCH  17  18
ENDBRANCH   1  17
TORSDOF 5
ENDMDL
MODEL 2
REMARK VINA RESULT:      -8.7      6.273      9.812
REMARK  Name = 
REMARK  5 active torsions:
REMARK  status: ('A' for Active; 'I' for Inactive)
REMARK    1  A    between atoms: C_2  and  C_3
REMARK    2  A    between atoms: N_11  and  C_12
REMARK    3  A    between atoms: C_12  and  C_13
REMARK    4  A    between atoms: C_13  and  C_14
REMARK    5  A    between atoms: C_17  and  C_18
REMARK                            x       y       z     vdW  Elec       q    Type
REMARK                         _______ _______ _______ _____ _____    ______ ____
ROOT
ATOM      1  C   UNL     1       7.815   7.000  17.918  0.00  0.00    +0.000 C 
ATOM      2  C   UNL     1       7.378   5.987  18.988  0.00  0.00    +0.000 C 
ATOM      3  C   UNL     1       6.664   4.790  18.393  0.00  0.00    +0.000 C 
ATOM      4  C   UNL     1       5.445   5.180  17.556  0.00  0.00    +0.000 C 
ATOM      5  C   UNL     1       5.760   6.282  16.547  0.00  0.00    +0.000 C 
ATOM      6  C   UNL     1       6.611   7.440  17.068  0.00  0.00    +0.000 C 
ENDROOT
BRANCH   4   7
ATOM      7  C   UNL     1       4.131   5.194  18.318  0.00  0.00    +0.000 A 
ATOM      8  C   UNL     1       3.217   6.206  18.046  0.00  0.00    +0.000 A 
ATOM      9  N   UNL     1       2.513   6.373  19.196  0.00  0.00    +0.000 N 
ATOM     10  C   UNL     1       2.376   5.150  19.785  0.00  0.00    +0.000 A 
ATOM     11  C   UNL     1       1.423   4.706  20.702  0.00  0.00    +0.000 A 
ATOM     12  C   UNL     1       1.523   3.399  21.157  0.00  0.00    +0.000 A 
ATOM     13  C   UNL     1       2.621   2.623  20.798  0.00  0.00    +0.000 A 
ATOM     14  C   UNL     1       3.614   3.115  19.917  0.00  0.00    +0.000 A 
ATOM     15  C   UNL     1       3.471   4.387  19.326  0.00  0.00    +0.000 A 
ATOM     16  H   UNL     1       2.119   7.239  19.530  0.00  0.00    +0.000 HD
ENDBRANCH   4   7
BRANCH   1  17
ATOM     17  C   UNL     1       8.490   8.189  18.637  0.00  0.00    +0.000 C 
BRANCH  17  18
ATOM     18  C   UNL     1       8.373   9.544  17.922  0.00  0.00    +0.000 C 
BRANCH  18  23
ATOM     19  C   UNL     1       9.377  13.093  18.694  0.00  0.00    +0.000 C 
ATOM     20  C   UNL     1       9.993  13.001  19.879  0.00  0.00    +0.000 C 
ATOM     21  C   UNL     1      10.234  11.665  20.516  0.00  0.00    +0.000 C 
ATOM     22  C   UNL     1       9.298  10.593  19.938  0.00  0.00    +0.000 C 
ATOM     23  N   UNL     1       9.281  10.582  18.464  0.00  0.00    +0.000 NA
ATOM     24  C   UNL     1       8.883  11.899  17.923  0.00  0.00    +0.000 C 
BRANCH  20  25
ATOM     25  C   UNL     1      10.402  14.204  20.608  0.00  0.00    +0.000 A 
ATOM     26  C   UNL     1      11.355  15.063  20.058  0.00  0.00    +0.000 A 
ATOM     27  C   UNL     1      11.749  16.214  20.743  0.00  0.00    +0.000 A 
ATOM     28  C   UNL     1      11.218  16.496  22.004  0.00  0.00    +0.000 A 
ATOM     29  C   UNL     1      10.273  15.643  22.556  0.00  0.00    +0.000 A 
ATOM     30  C   UNL     1       9.862  14.498  21.866  0.00  0.00    +0.000 A 
ENDBRANCH  20  25
ENDBRANCH  18  23
ENDBRANCH  17  18
ENDBRANCH   1  17
TORSDOF 5
ENDMDL
MODEL 3
REMARK VINA RESULT:      -8.7      1.086      1.700
REMARK  Name = 
REMARK  5 active torsions:
REMARK  status: ('A' for Active; 'I' for Inactive)
REMARK    1  A    between atoms: C_2  and  C_3
REMARK    2  A    between atoms: N_11  and  C_12
REMARK    3  A    between atoms: C_12  and  C_13
REMARK    4  A    between atoms: C_13  and  C_14
REMARK    5  A    between atoms: C_17  and  C_18
REMARK                            x       y       z     vdW  Elec       q    Type
REMARK                         _______ _______ _______ _____ _____    ______ ____
ROOT
ATOM      1  C   UNL     1       2.405   7.554  19.322  0.00  0.00    +0.000 C 
ATOM      2  C   UNL     1       2.008   8.101  17.942  0.00  0.00    +0.000 C 
ATOM      3  C   UNL     1       1.890   9.613  17.931  0.00  0.00    +0.000 C 
ATOM      4  C   UNL     1       0.903  10.139  18.974  0.00  0.00    +0.000 C 
ATOM      5  C   UNL     1       1.144   9.542  20.358  0.00  0.00    +0.000 C 
ATOM      6  C   UNL     1       1.420   8.040  20.398  0.00  0.00    +0.000 C 
ENDROOT
BRANCH   4   7
ATOM      7  C   UNL     1      -0.514  10.334  18.462  0.00  0.00    +0.000 A 
ATOM      8  C   UNL     1      -0.929   9.595  17.360  0.00  0.00    +0.000 A 
ATOM      9  N   UNL     1      -1.879  10.354  16.755  0.00  0.00    +0.000 N 
ATOM     10  C   UNL     1      -2.572  11.014  17.728  0.00  0.00    +0.000 A 
ATOM     11  C   UNL     1      -3.858  11.552  17.695  0.00  0.00    +0.000 A 
ATOM     12  C   UNL     1      -4.321  12.192  18.835  0.00  0.00    +0.000 A 
ATOM     13  C   UNL     1      -3.464  12.392  19.914  0.00  0.00    +0.000 A 
ATOM     14  C   UNL     1      -2.139  11.894  19.902  0.00  0.00    +0.000 A 
ATOM     15  C   UNL     1      -1.681  11.119  18.817  0.00  0.00    +0.000 A 
ATOM     16  H   UNL     1      -2.070  10.387  15.766  0.00  0.00    +0.000 HD
ENDBRANCH   4   7
BRANCH   1  17
ATOM     17  C   UNL     1       2.455   6.013  19.225  0.00  0.00    +0.000 C 
BRANCH  17  18
ATOM     18  C   UNL     1       3.765   5.366  19.698  0.00  0.00    +0.000 C 
BRANCH  18  23
ATOM     19  C   UNL     1       4.336   4.200  16.160  0.00  0.00    +0.000 C 
ATOM     20  C   UNL     1       5.589   4.588  15.893  0.00  0.00    +0.000 C 
ATOM     21  C   UNL     1       6.439   5.216  16.956  0.00  0.00    +0.000 C 
ATOM     22  C   UNL     1       5.582   5.777  18.100  0.00  0.00    +0.000 C 
ATOM     23  N   UNL     1       4.585   4.809  18.595  0.00  0.00    +0.000 NA
ATOM     24  C   UNL     1       3.689   4.360  17.508  0.00  0.00    +0.000 C 
BRANCH  20  25
ATOM     25  C   UNL     1       6.144   4.457  14.544  0.00  0.00    +0.000 A 
ATOM     26  C   UNL     1       7.257   5.213  14.171  0.00  0.00    +0.000 A 
ATOM     27  C   UNL     1       7.796   5.093  12.888  0.00  0.00    +0.000 A 
ATOM     28  C   UNL     1       7.203   4.240  11.955  0.00  0.00    +0.000 A 
ATOM     29  C   UNL     1       6.094   3.489  12.321  0.00  0.00    +0.000 A 
ATOM     30  C   UNL     1       5.562   3.593  13.610  0.00  0.00    +0.000 A 
ENDBRANCH  20  25
ENDBRANCH  18  23
ENDBRANCH  17  18
ENDBRANCH   1  17
TORSDOF 5
ENDMDL
MODEL 4
REMARK VINA RESULT:      -8.7      6.265      9.487
REMARK  Name = 
REMARK  5 active torsions:
REMARK  status: ('A' for Active; 'I' for Inactive)
REMARK    1  A    between atoms: C_2  and  C_3
REMARK    2  A    between atoms: N_11  and  C_12
REMARK    3  A    between atoms: C_12  and  C_13
REMARK    4  A    between atoms: C_13  and  C_14
REMARK    5  A    between atoms: C_17  and  C_18
REMARK                            x       y       z     vdW  Elec       q    Type
REMARK                         _______ _______ _______ _____ _____    ______ ____
ROOT
ATOM      1  C   UNL     1       7.488   6.858  17.615  0.00  0.00    +0.000 C 
ATOM      2  C   UNL     1       7.229   5.750  18.648  0.00  0.00    +0.000 C 
ATOM      3  C   UNL     1       6.456   4.584  18.063  0.00  0.00    +0.000 C 
ATOM      4  C   UNL     1       5.123   5.005  17.444  0.00  0.00    +0.000 C 
ATOM      5  C   UNL     1       5.269   6.194  16.497  0.00  0.00    +0.000 C 
ATOM      6  C   UNL     1       6.166   7.330  16.986  0.00  0.00    +0.000 C 
ENDROOT
BRANCH   4   7
ATOM      7  C   UNL     1       3.933   4.919  18.385  0.00  0.00    +0.000 A 
ATOM      8  C   UNL     1       3.713   5.966  19.274  0.00  0.00    +0.000 A 
ATOM      9  N   UNL     1       3.078   5.408  20.336  0.00  0.00    +0.000 N 
ATOM     10  C   UNL     1       2.263   4.420  19.866  0.00  0.00    +0.000 A 
ATOM     11  C   UNL     1       1.125   3.857  20.443  0.00  0.00    +0.000 A 
ATOM     12  C   UNL     1       0.481   2.843  19.748  0.00  0.00    +0.000 A 
ATOM     13  C   UNL     1       1.048   2.335  18.582  0.00  0.00    +0.000 A 
ATOM     14  C   UNL     1       2.241   2.878  18.047  0.00  0.00    +0.000 A 
ATOM     15  C   UNL     1       2.845   3.999  18.652  0.00  0.00    +0.000 A 
ATOM     16  H   UNL     1       3.158   5.704  21.297  0.00  0.00    +0.000 HD
ENDBRANCH   4   7
BRANCH   1  17
ATOM     17  C   UNL     1       8.240   8.005  18.327  0.00  0.00    +0.000 C 
BRANCH  17  18
ATOM     18  C   UNL     1       7.821   9.424  17.914  0.00  0.00    +0.000 C 
BRANCH  18  23
ATOM     19  C   UNL     1       9.223  12.922  17.894  0.00  0.00    +0.000 C 
ATOM     20  C   UNL     1      10.163  12.896  18.847  0.00  0.00    +0.000 C 
ATOM     21  C   UNL     1      10.504  11.618  19.551  0.00  0.00    +0.000 C 
ATOM     22  C   UNL     1       9.375  10.585  19.417  0.00  0.00    +0.000 C 
ATOM     23  N   UNL     1       8.911  10.422  18.027  0.00  0.00    +0.000 NA
ATOM     24  C   UNL     1       8.447  11.707  17.462  0.00  0.00    +0.000 C 
BRANCH  20  25
ATOM     25  C   UNL     1      10.844  14.124  19.263  0.00  0.00    +0.000 A 
ATOM     26  C   UNL     1      11.656  14.811  18.359  0.00  0.00    +0.000 A 
ATOM     27  C   UNL     1      12.308  15.985  18.745  0.00  0.00    +0.000 A 
ATOM     28  C   UNL     1      12.180  16.461  20.051  0.00  0.00    +0.000 A 
ATOM     29  C   UNL     1      11.376  15.779  20.954  0.00  0.00    +0.000 A 
ATOM     30  C   UNL     1      10.708  14.613  20.567  0.00  0.00    +0.000 A 
ENDBRANCH  20  25
ENDBRANCH  18  23
ENDBRANCH  17  18
ENDBRANCH   1  17
TORSDOF 5
ENDMDL
MODEL 5
REMARK VINA RESULT:      -8.6      6.247      9.873
REMARK  Name = 
REMARK  5 active torsions:
REMARK  status: ('A' for Active; 'I' for Inactive)
REMARK    1  A    between atoms: C_2  and  C_3
REMARK    2  A    between atoms: N_11  and  C_12
REMARK    3  A    between atoms: C_12  and  C_13
REMARK    4  A    between atoms: C_13  and  C_14
REMARK    5  A    between atoms: C_17  and  C_18
REMARK                            x       y       z     vdW  Elec       q    Type
REMARK                         _______ _______ _______ _____ _____    ______ ____
ROOT
ATOM      1  C   UNL     1       7.783   7.093  17.706  0.00  0.00    +0.000 C 
ATOM      2  C   UNL     1       7.764   5.859  18.622  0.00  0.00    +0.000 C 
ATOM      3  C   UNL     1       7.188   4.637  17.932  0.00  0.00    +0.000 C 
ATOM      4  C   UNL     1       5.779   4.871  17.387  0.00  0.00    +0.000 C 
ATOM      5  C   UNL     1       5.677   6.155  16.567  0.00  0.00    +0.000 C 
ATOM      6  C   UNL     1       6.377   7.379  17.155  0.00  0.00    +0.000 C 
ENDROOT
BRANCH   4   7
ATOM      7  C   UNL     1       4.660   4.479  18.336  0.00  0.00    +0.000 A 
ATOM      8  C   UNL     1       4.568   3.152  18.742  0.00  0.00    +0.000 A 
ATOM      9  N   UNL     1       3.252   2.947  19.005  0.00  0.00    +0.000 N 
ATOM     10  C   UNL     1       2.743   4.101  19.526  0.00  0.00    +0.000 A 
ATOM     11  C   UNL     1       1.620   4.294  20.330  0.00  0.00    +0.000 A 
ATOM     12  C   UNL     1       1.315   5.591  20.715  0.00  0.00    +0.000 A 
ATOM     13  C   UNL     1       2.044   6.657  20.194  0.00  0.00    +0.000 A 
ATOM     14  C   UNL     1       3.141   6.444  19.326  0.00  0.00    +0.000 A 
ATOM     15  C   UNL     1       3.565   5.133  19.026  0.00  0.00    +0.000 A 
ATOM     16  H   UNL     1       2.751   2.080  18.882  0.00  0.00    +0.000 HD
ENDBRANCH   4   7
BRANCH   1  17
ATOM     17  C   UNL     1       8.347   8.280  18.520  0.00  0.00    +0.000 C 
BRANCH  17  18
ATOM     18  C   UNL     1       8.208   9.658  17.857  0.00  0.00    +0.000 C 
BRANCH  18  23
ATOM     19  C   UNL     1       9.365  13.168  18.592  0.00  0.00    +0.000 C 
ATOM     20  C   UNL     1      10.017  13.053  19.756  0.00  0.00    +0.000 C 
ATOM     21  C   UNL     1      10.230  11.710  20.386  0.00  0.00    +0.000 C 
ATOM     22  C   UNL     1       9.237  10.672  19.840  0.00  0.00    +0.000 C 
ATOM     23  N   UNL     1       9.170  10.663  18.367  0.00  0.00    +0.000 NA
ATOM     24  C   UNL     1       8.802  11.994  17.839  0.00  0.00    +0.000 C 
BRANCH  20  25
ATOM     25  C   UNL     1      10.493  14.240  20.470  0.00  0.00    +0.000 A 
ATOM     26  C   UNL     1      11.498  15.033  19.913  0.00  0.00    +0.000 A 
ATOM     27  C   UNL     1      11.956  16.168  20.585  0.00  0.00    +0.000 A 
ATOM     28  C   UNL     1      11.437  16.500  21.838  0.00  0.00    +0.000 A 
ATOM     29  C   UNL     1      10.440  15.712  22.397  0.00  0.00    +0.000 A 
ATOM     30  C   UNL     1       9.965  14.584  21.721  0.00  0.00    +0.000 A 
ENDBRANCH  20  25
ENDBRANCH  18  23
ENDBRANCH  17  18
ENDBRANCH   1  17
TORSDOF 5
ENDMDL
MODEL 6
REMARK VINA RESULT:      -8.4      2.976     11.061
REMARK  Name = 
REMARK  5 active torsions:
REMARK  status: ('A' for Active; 'I' for Inactive)
REMARK    1  A    between atoms: C_2  and  C_3
REMARK    2  A    between atoms: N_11  and  C_12
REMARK    3  A    between atoms: C_12  and  C_13
REMARK    4  A    between atoms: C_13  and  C_14
REMARK    5  A    between atoms: C_17  and  C_18
REMARK                            x       y       z     vdW  Elec       q    Type
REMARK                         _______ _______ _______ _____ _____    ______ ____
ROOT
ATOM      1  C   UNL     1       1.434   6.164  20.330  0.00  0.00    +0.000 C 
ATOM      2  C   UNL     1       2.014   6.564  18.965  0.00  0.00    +0.000 C 
ATOM      3  C   UNL     1       1.993   5.420  17.971  0.00  0.00    +0.000 C 
ATOM      4  C   UNL     1       2.730   4.179  18.476  0.00  0.00    +0.000 C 
ATOM      5  C   UNL     1       2.305   3.785  19.889  0.00  0.00    +0.000 C 
ATOM      6  C   UNL     1       2.166   4.932  20.888  0.00  0.00    +0.000 C 
ENDROOT
BRANCH   4   7
ATOM      7  C   UNL     1       4.190   4.099  18.067  0.00  0.00    +0.000 A 
ATOM      8  C   UNL     1       5.108   3.587  18.978  0.00  0.00    +0.000 A 
ATOM      9  N   UNL     1       6.289   4.182  18.671  0.00  0.00    +0.000 N 
ATOM     10  C   UNL     1       6.338   4.346  17.317  0.00  0.00    +0.000 A 
ATOM     11  C   UNL     1       7.442   4.494  16.478  0.00  0.00    +0.000 A 
ATOM     12  C   UNL     1       7.206   4.659  15.121  0.00  0.00    +0.000 A 
ATOM     13  C   UNL     1       5.901   4.801  14.658  0.00  0.00    +0.000 A 
ATOM     14  C   UNL     1       4.794   4.713  15.536  0.00  0.00    +0.000 A 
ATOM     15  C   UNL     1       4.992   4.407  16.898  0.00  0.00    +0.000 A 
ATOM     16  H   UNL     1       7.022   4.417  19.323  0.00  0.00    +0.000 HD
ENDBRANCH   4   7
BRANCH   1  17
ATOM     17  C   UNL     1       1.543   7.386  21.270  0.00  0.00    +0.000 C 
BRANCH  17  18
ATOM     18  C   UNL     1       1.308   8.751  20.605  0.00  0.00    +0.000 C 
BRANCH  18  23
ATOM     19  C   UNL     1      -0.464  11.973  21.429  0.00  0.00    +0.000 C 
ATOM     20  C   UNL     1      -1.133  11.692  22.555  0.00  0.00    +0.000 C 
ATOM     21  C   UNL     1      -0.966  10.366  23.234  0.00  0.00    +0.000 C 
ATOM     22  C   UNL     1      -0.406   9.310  22.270  0.00  0.00    +0.000 C 
ATOM     23  N   UNL     1       0.780   9.781  21.531  0.00  0.00    +0.000 NA
ATOM     24  C   UNL     1       0.482  11.010  20.765  0.00  0.00    +0.000 C 
BRANCH  20  25
ATOM     25  C   UNL     1      -2.082  12.651  23.123  0.00  0.00    +0.000 A 
ATOM     26  C   UNL     1      -3.252  12.196  23.733  0.00  0.00    +0.000 A 
ATOM     27  C   UNL     1      -4.163  13.103  24.281  0.00  0.00    +0.000 A 
ATOM     28  C   UNL     1      -3.926  14.476  24.191  0.00  0.00    +0.000 A 
ATOM     29  C   UNL     1      -2.765  14.933  23.582  0.00  0.00    +0.000 A 
ATOM     30  C   UNL     1      -1.842  14.028  23.047  0.00  0.00    +0.000 A 
ENDBRANCH  20  25
ENDBRANCH  18  23
ENDBRANCH  17  18
ENDBRANCH   1  17
TORSDOF 5
ENDMDL
MODEL 7
REMARK VINA RESULT:      -8.4      6.064      9.630
REMARK  Name = 
REMARK  5 active torsions:
REMARK  status: ('A' for Active; 'I' for Inactive)
REMARK    1  A    between atoms: C_2  and  C_3
REMARK    2  A    between atoms: N_11  and  C_12
REMARK    3  A    between atoms: C_12  and  C_13
REMARK    4  A    between atoms: C_13  and  C_14
REMARK    5  A    between atoms: C_17  and  C_18
REMARK                            x       y       z     vdW  Elec       q    Type
REMARK                         _______ _______ _______ _____ _____    ______ ____
ROOT
ATOM      1  C   UNL     1       7.473   7.079  17.269  0.00  0.00    +0.000 C 
ATOM      2  C   UNL     1       7.598   6.258  18.562  0.00  0.00    +0.000 C 
ATOM      3  C   UNL     1       7.345   4.781  18.335  0.00  0.00    +0.000 C 
ATOM      4  C   UNL     1       5.982   4.501  17.702  0.00  0.00    +0.000 C 
ATOM      5  C   UNL     1       5.718   5.373  16.477  0.00  0.00    +0.000 C 
ATOM      6  C   UNL     1       6.102   6.846  16.612  0.00  0.00    +0.000 C 
ENDROOT
BRANCH   4   7
ATOM      7  C   UNL     1       4.867   4.222  18.696  0.00  0.00    +0.000 A 
ATOM      8  C   UNL     1       4.834   2.982  19.324  0.00  0.00    +0.000 A 
ATOM      9  N   UNL     1       3.525   2.758  19.609  0.00  0.00    +0.000 N 
ATOM     10  C   UNL     1       2.952   3.958  19.920  0.00  0.00    +0.000 A 
ATOM     11  C   UNL     1       1.808   4.229  20.670  0.00  0.00    +0.000 A 
ATOM     12  C   UNL     1       1.436   5.557  20.824  0.00  0.00    +0.000 A 
ATOM     13  C   UNL     1       2.120   6.553  20.132  0.00  0.00    +0.000 A 
ATOM     14  C   UNL     1       3.241   6.249  19.322  0.00  0.00    +0.000 A 
ATOM     15  C   UNL     1       3.731   4.929  19.256  0.00  0.00    +0.000 A 
ATOM     16  H   UNL     1       3.068   1.860  19.634  0.00  0.00    +0.000 HD
ENDBRANCH   4   7
BRANCH   1  17
ATOM     17  C   UNL     1       7.708   8.564  17.624  0.00  0.00    +0.000 C 
BRANCH  17  18
ATOM     18  C   UNL     1       8.583   8.815  18.861  0.00  0.00    +0.000 C 
BRANCH  18  23
ATOM     19  C   UNL     1       9.278  12.402  17.941  0.00  0.00    +0.000 C 
ATOM     20  C   UNL     1      10.095  12.830  18.913  0.00  0.00    +0.000 C 
ATOM     21  C   UNL     1      10.596  11.885  19.963  0.00  0.00    +0.000 C 
ATOM     22  C   UNL     1       9.709  10.635  20.062  0.00  0.00    +0.000 C 
ATOM     23  N   UNL     1       9.441  10.018  18.749  0.00  0.00    +0.000 NA
ATOM     24  C   UNL     1       8.804  10.980  17.825  0.00  0.00    +0.000 C 
BRANCH  20  25
ATOM     25  C   UNL     1      10.477  14.240  19.006  0.00  0.00    +0.000 A 
ATOM     26  C   UNL     1      10.508  15.032  17.856  0.00  0.00    +0.000 A 
ATOM     27  C   UNL     1      10.868  16.379  17.935  0.00  0.00    +0.000 A 
ATOM     28  C   UNL     1      11.236  16.937  19.161  0.00  0.00    +0.000 A 
ATOM     29  C   UNL     1      11.210  16.152  20.306  0.00  0.00    +0.000 A 
ATOM     30  C   UNL     1      10.833  14.807  20.235  0.00  0.00    +0.000 A 
ENDBRANCH  20  25
ENDBRANCH  18  23
ENDBRANCH  17  18
ENDBRANCH   1  17
TORSDOF 5
ENDMDL
MODEL 8
REMARK VINA RESULT:      -8.4      5.940      9.764
REMARK  Name = 
REMARK  5 active torsions:
REMARK  status: ('A' for Active; 'I' for Inactive)
REMARK    1  A    between atoms: C_2  and  C_3
REMARK    2  A    between atoms: N_11  and  C_12
REMARK    3  A    between atoms: C_12  and  C_13
REMARK    4  A    between atoms: C_13  and  C_14
REMARK    5  A    between atoms: C_17  and  C_18
REMARK                            x       y       z     vdW  Elec       q    Type
REMARK                         _______ _______ _______ _____ _____    ______ ____
ROOT
ATOM      1  C   UNL     1       7.431   6.987  17.360  0.00  0.00    +0.000 C 
ATOM      2  C   UNL     1       7.445   5.618  18.056  0.00  0.00    +0.000 C 
ATOM      3  C   UNL     1       6.851   4.523  17.192  0.00  0.00    +0.000 C 
ATOM      4  C   UNL     1       5.424   4.833  16.738  0.00  0.00    +0.000 C 
ATOM      5  C   UNL     1       5.291   6.234  16.148  0.00  0.00    +0.000 C 
ATOM      6  C   UNL     1       6.006   7.349  16.910  0.00  0.00    +0.000 C 
ENDROOT
BRANCH   4   7
ATOM      7  C   UNL     1       4.337   4.279  17.645  0.00  0.00    +0.000 A 
ATOM      8  C   UNL     1       4.120   2.905  17.656  0.00  0.00    +0.000 A 
ATOM      9  N   UNL     1       2.811   2.751  17.984  0.00  0.00    +0.000 N 
ATOM     10  C   UNL     1       2.481   3.738  18.867  0.00  0.00    +0.000 A 
ATOM     11  C   UNL     1       1.450   3.783  19.805  0.00  0.00    +0.000 A 
ATOM     12  C   UNL     1       1.330   4.928  20.580  0.00  0.00    +0.000 A 
ATOM     13  C   UNL     1       2.139   6.029  20.318  0.00  0.00    +0.000 A 
ATOM     14  C   UNL     1       3.138   5.986  19.315  0.00  0.00    +0.000 A 
ATOM     15  C   UNL     1       3.381   4.792  18.605  0.00  0.00    +0.000 A 
ATOM     16  H   UNL     1       2.203   2.011  17.668  0.00  0.00    +0.000 HD
ENDBRANCH   4   7
BRANCH   1  17
ATOM     17  C   UNL     1       8.018   8.026  18.342  0.00  0.00    +0.000 C 
BRANCH  17  18
ATOM     18  C   UNL     1       8.589   9.296  17.694  0.00  0.00    +0.000 C 
BRANCH  18  23
ATOM     19  C   UNL     1       9.771  11.543  20.478  0.00  0.00    +0.000 C 
ATOM     20  C   UNL     1       9.514  12.777  20.026  0.00  0.00    +0.000 C 
ATOM     21  C   UNL     1       8.792  12.981  18.728  0.00  0.00    +0.000 C 
ATOM     22  C   UNL     1       8.868  11.729  17.841  0.00  0.00    +0.000 C 
ATOM     23  N   UNL     1       8.509  10.494  18.563  0.00  0.00    +0.000 NA
ATOM     24  C   UNL     1       9.375  10.292  19.744  0.00  0.00    +0.000 C 
BRANCH  20  25
ATOM     25  C   UNL     1       9.975  13.957  20.760  0.00  0.00    +0.000 A 
ATOM     26  C   UNL     1      10.955  14.783  20.207  0.00  0.00    +0.000 A 
ATOM     27  C   UNL     1      11.399  15.913  20.898  0.00  0.00    +0.000 A 
ATOM     28  C   UNL     1      10.890  16.206  22.165  0.00  0.00    +0.000 A 
ATOM     29  C   UNL     1       9.918  15.385  22.720  0.00  0.00    +0.000 A 
ATOM     30  C   UNL     1       9.457  14.262  22.024  0.00  0.00    +0.000 A 
ENDBRANCH  20  25
ENDBRANCH  18  23
ENDBRANCH  17  18
ENDBRANCH   1  17
TORSDOF 5
ENDMDL
MODEL 9
REMARK VINA RESULT:      -8.4      5.948      8.601
REMARK  Name = 
REMARK  5 active torsions:
REMARK  status: ('A' for Active; 'I' for Inactive)
REMARK    1  A    between atoms: C_2  and  C_3
REMARK    2  A    between atoms: N_11  and  C_12
REMARK    3  A    between atoms: C_12  and  C_13
REMARK    4  A    between atoms: C_13  and  C_14
REMARK    5  A    between atoms: C_17  and  C_18
REMARK                            x       y       z     vdW  Elec       q    Type
REMARK                         _______ _______ _______ _____ _____    ______ ____
ROOT
ATOM      1  C   UNL     1       8.797  10.152  17.886  0.00  0.00    +0.000 C 
ATOM      2  C   UNL     1       8.008  11.470  17.838  0.00  0.00    +0.000 C 
ATOM      3  C   UNL     1       8.900  12.684  18.005  0.00  0.00    +0.000 C 
ATOM      4  C   UNL     1       9.721  12.645  19.295  0.00  0.00    +0.000 C 
ATOM      5  C   UNL     1      10.440  11.313  19.488  0.00  0.00    +0.000 C 
ATOM      6  C   UNL     1       9.618  10.061  19.182  0.00  0.00    +0.000 C 
ENDROOT
BRANCH   4   7
ATOM      7  C   UNL     1       9.074  13.344  20.478  0.00  0.00    +0.000 A 
ATOM      8  C   UNL     1       8.774  14.697  20.367  0.00  0.00    +0.000 A 
ATOM      9  N   UNL     1       8.828  15.183  21.634  0.00  0.00    +0.000 N 
ATOM     10  C   UNL     1       8.372  14.210  22.476  0.00  0.00    +0.000 A 
ATOM     11  C   UNL     1       7.834  14.324  23.758  0.00  0.00    +0.000 A 
ATOM     12  C   UNL     1       7.455  13.158  24.406  0.00  0.00    +0.000 A 
ATOM     13  C   UNL     1       7.736  11.923  23.830  0.00  0.00    +0.000 A 
ATOM     14  C   UNL     1       8.344  11.827  22.554  0.00  0.00    +0.000 A 
ATOM     15  C   UNL     1       8.614  12.992  21.808  0.00  0.00    +0.000 A 
ATOM     16  H   UNL     1       9.110  16.114  21.901  0.00  0.00    +0.000 HD
ENDBRANCH   4   7
BRANCH   1  17
ATOM     17  C   UNL     1       7.789   8.989  17.748  0.00  0.00    +0.000 C 
BRANCH  17  18
ATOM     18  C   UNL     1       8.294   7.619  18.224  0.00  0.00    +0.000 C 
BRANCH  18  23
ATOM     19  C   UNL     1       5.845   4.923  19.191  0.00  0.00    +0.000 C 
ATOM     20  C   UNL     1       4.937   4.947  18.207  0.00  0.00    +0.000 C 
ATOM     21  C   UNL     1       5.121   5.839  17.016  0.00  0.00    +0.000 C 
ATOM     22  C   UNL     1       6.105   6.980  17.318  0.00  0.00    +0.000 C 
ATOM     23  N   UNL     1       7.357   6.507  17.938  0.00  0.00    +0.000 NA
ATOM     24  C   UNL     1       7.089   5.768  19.190  0.00  0.00    +0.000 C 
BRANCH  20  25
ATOM     25  C   UNL     1       3.717   4.142  18.291  0.00  0.00    +0.000 A 
ATOM     26  C   UNL     1       3.782   2.823  18.744  0.00  0.00    +0.000 A 
ATOM     27  C   UNL     1       2.624   2.047  18.831  0.00  0.00    +0.000 A 
ATOM     28  C   UNL     1       1.394   2.575  18.432  0.00  0.00    +0.000 A 
ATOM     29  C   UNL     1       1.326   3.885  17.978  0.00  0.00    +0.000 A 
ATOM     30  C   UNL     1       2.480   4.671  17.905  0.00  0.00    +0.000 A 
ENDBRANCH  20  25
ENDBRANCH  18  23
ENDBRANCH  17  18
ENDBRANCH   1  17
TORSDOF 5
ENDMDL
