MODEL 1
REMARK VINA RESULT:      -6.2      0.000      0.000
REMARK  Name = 
REMARK  7 active torsions:
REMARK  status: ('A' for Active; 'I' for Inactive)
REMARK    1  A    between atoms: C_1  and  C_2
REMARK    2  A    between atoms: C_7  and  C_8
REMARK    3  A    between atoms: C_8  and  N_9
REMARK    4  A    between atoms: N_9  and  C_10
REMARK    5  A    between atoms: N_9  and  C_11
REMARK    6  A    between atoms: C_11  and  C_12
REMARK    7  A    between atoms: N_16  and  C_17
REMARK                            x       y       z     vdW  Elec       q    Type
REMARK                         _______ _______ _______ _____ _____    ______ ____
ROOT
ATOM      1  N   UNL     1       3.913   6.475  17.743  0.00  0.00    +0.000 NA
ATOM      2  C   UNL     1       3.088   7.676  17.920  0.00  0.00    +0.000 C 
ENDROOT
BRANCH   1   3
ATOM      3  C   UNL     1       3.936   5.647  18.979  0.00  0.00    +0.000 C 
BRANCH   3  10
ATOM      4  C   UNL     1       1.539   5.964  20.850  0.00  0.00    +0.000 C 
ATOM      5  C   UNL     1       1.771   4.734  20.024  0.00  0.00    +0.000 A 
ATOM      6  C   UNL     1       0.877   3.660  20.164  0.00  0.00    +0.000 A 
ATOM      7  C   UNL     1       1.082   2.481  19.464  0.00  0.00    +0.000 A 
ATOM      8  C   UNL     1       2.194   2.398  18.653  0.00  0.00    +0.000 A 
ATOM      9  N   UNL     1       3.087   3.398  18.503  0.00  0.00    +0.000 NA
ATOM     10  C   UNL     1       2.869   4.570  19.166  0.00  0.00    +0.000 A 
ENDBRANCH   3  10
ENDBRANCH   1   3
BRANCH   1  11
ATOM     11  C   UNL     1       5.252   6.867  17.267  0.00  0.00    +0.000 C 
BRANCH  11  12
ATOM     12  C   UNL     1       5.886   5.934  16.272  0.00  0.00    +0.000 A 
ATOM     13  N   UNL     1       5.553   5.861  14.995  0.00  0.00    +0.000 NA
ATOM     14  C   UNL     1       6.359   4.907  14.441  0.00  0.00    +0.000 A 
ATOM     15  C   UNL     1       7.180   4.358  15.391  0.00  0.00    +0.000 A 
ATOM     16  N   UNL     1       6.860   5.001  16.558  0.00  0.00    +0.000 N 
ATOM     17  C   UNL     1       7.444   4.711  17.845  0.00  0.00    +0.000 C 
ENDBRANCH  11  12
ENDBRANCH   1  11
TORSDOF 4
ENDMDL
MODEL 2
REMARK VINA RESULT:      -6.1      2.092      5.703
REMARK  Name = 
REMARK  7 active torsions:
REMARK  status: ('A' for Active; 'I' for Inactive)
REMARK    1  A    between atoms: C_1  and  C_2
REMARK    2  A    between atoms: C_7  and  C_8
REMARK    3  A    between atoms: C_8  and  N_9
REMARK    4  A    between atoms: N_9  and  C_10
REMARK    5  A    between atoms: N_9  and  C_11
REMARK    6  A    between atoms: C_11  and  C_12
REMARK    7  A    between atoms: N_16  and  C_17
REMARK                            x       y       z     vdW  Elec       q    Type
REMARK                         _______ _______ _______ _____ _____    ______ ____
ROOT
ATOM      1  N   UNL     1       2.786   5.186  18.388  0.00  0.00    +0.000 NA
ATOM      2  C   UNL     1       1.800   4.224  18.895  0.00  0.00    +0.000 C 
ENDROOT
BRANCH   1   3
ATOM      3  C   UNL     1       4.061   4.512  18.022  0.00  0.00    +0.000 C 
BRANCH   3  10
ATOM      4  C   UNL     1       5.097   6.486  15.929  0.00  0.00    +0.000 C 
ATOM      5  C   UNL     1       5.830   6.189  17.203  0.00  0.00    +0.000 A 
ATOM      6  C   UNL     1       7.076   6.803  17.413  0.00  0.00    +0.000 A 
ATOM      7  C   UNL     1       7.817   6.517  18.549  0.00  0.00    +0.000 A 
ATOM      8  C   UNL     1       7.300   5.603  19.443  0.00  0.00    +0.000 A 
ATOM      9  N   UNL     1       6.117   4.977  19.272  0.00  0.00    +0.000 NA
ATOM     10  C   UNL     1       5.372   5.281  18.171  0.00  0.00    +0.000 A 
ENDBRANCH   3  10
ENDBRANCH   1   3
BRANCH   1  11
ATOM     11  C   UNL     1       2.951   6.279  19.363  0.00  0.00    +0.000 C 
BRANCH  11  12
ATOM     12  C   UNL     1       2.347   7.598  18.968  0.00  0.00    +0.000 A 
ATOM     13  N   UNL     1       2.506   8.172  17.788  0.00  0.00    +0.000 NA
ATOM     14  C   UNL     1       1.799   9.342  17.830  0.00  0.00    +0.000 A 
ATOM     15  C   UNL     1       1.221   9.511  19.061  0.00  0.00    +0.000 A 
ATOM     16  N   UNL     1       1.590   8.409  19.787  0.00  0.00    +0.000 N 
ATOM     17  C   UNL     1       1.247   8.181  21.170  0.00  0.00    +0.000 C 
ENDBRANCH  11  12
ENDBRANCH   1  11
TORSDOF 4
ENDMDL
MODEL 3
REMARK VINA RESULT:      -6.1      0.913      1.665
REMARK  Name = 
REMARK  7 active torsions:
REMARK  status: ('A' for Active; 'I' for Inactive)
REMARK    1  A    between atoms: C_1  and  C_2
REMARK    2  A    between atoms: C_7  and  C_8
REMARK    3  A    between atoms: C_8  and  N_9
REMARK    4  A    between atoms: N_9  and  C_10
REMARK    5  A    between atoms: N_9  and  C_11
REMARK    6  A    between atoms: C_11  and  C_12
REMARK    7  A    between atoms: N_16  and  C_17
REMARK                            x       y       z     vdW  Elec       q    Type
REMARK                         _______ _______ _______ _____ _____    ______ ____
ROOT
ATOM      1  N   UNL     1       3.847   6.491  17.867  0.00  0.00    +0.000 NA
ATOM      2  C   UNL     1       3.009   7.671  18.106  0.00  0.00    +0.000 C 
ENDROOT
BRANCH   1   3
ATOM      3  C   UNL     1       3.923   5.627  19.075  0.00  0.00    +0.000 C 
BRANCH   3  10
ATOM      4  C   UNL     1       3.363   3.324  17.143  0.00  0.00    +0.000 C 
ATOM      5  C   UNL     1       2.592   3.529  18.414  0.00  0.00    +0.000 A 
ATOM      6  C   UNL     1       1.529   2.655  18.695  0.00  0.00    +0.000 A 
ATOM      7  C   UNL     1       0.751   2.838  19.829  0.00  0.00    +0.000 A 
ATOM      8  C   UNL     1       1.047   3.908  20.647  0.00  0.00    +0.000 A 
ATOM      9  N   UNL     1       2.046   4.781  20.406  0.00  0.00    +0.000 NA
ATOM     10  C   UNL     1       2.832   4.584  19.308  0.00  0.00    +0.000 A 
ENDBRANCH   3  10
ENDBRANCH   1   3
BRANCH   1  11
ATOM     11  C   UNL     1       5.163   6.920  17.360  0.00  0.00    +0.000 C 
BRANCH  11  12
ATOM     12  C   UNL     1       5.805   5.999  16.359  0.00  0.00    +0.000 A 
ATOM     13  N   UNL     1       5.515   5.974  15.070  0.00  0.00    +0.000 NA
ATOM     14  C   UNL     1       6.313   5.014  14.514  0.00  0.00    +0.000 A 
ATOM     15  C   UNL     1       7.085   4.414  15.475  0.00  0.00    +0.000 A 
ATOM     16  N   UNL     1       6.743   5.031  16.649  0.00  0.00    +0.000 N 
ATOM     17  C   UNL     1       7.274   4.687  17.945  0.00  0.00    +0.000 C 
ENDBRANCH  11  12
ENDBRANCH   1  11
TORSDOF 4
ENDMDL
MODEL 4
REMARK VINA RESULT:      -6.1      0.933      1.691
REMARK  Name = 
REMARK  7 active torsions:
REMARK  status: ('A' for Active; 'I' for Inactive)
REMARK    1  A    between atoms: C_1  and  C_2
REMARK    2  A    between atoms: C_7  and  C_8
REMARK    3  A    between atoms: C_8  and  N_9
REMARK    4  A    between atoms: N_9  and  C_10
REMARK    5  A    between atoms: N_9  and  C_11
REMARK    6  A    between atoms: C_11  and  C_12
REMARK    7  A    between atoms: N_16  and  C_17
REMARK                            x       y       z     vdW  Elec       q    Type
REMARK                         _______ _______ _______ _____ _____    ______ ____
ROOT
ATOM      1  N   UNL     1       3.665   6.550  17.482  0.00  0.00    +0.000 NA
ATOM      2  C   UNL     1       3.015   7.805  17.876  0.00  0.00    +0.000 C 
ENDROOT
BRANCH   1   3
ATOM      3  C   UNL     1       3.774   5.612  18.631  0.00  0.00    +0.000 C 
BRANCH   3  10
ATOM      4  C   UNL     1       1.554   5.494  20.731  0.00  0.00    +0.000 C 
ATOM      5  C   UNL     1       1.762   4.421  19.704  0.00  0.00    +0.000 A 
ATOM      6  C   UNL     1       0.935   3.287  19.750  0.00  0.00    +0.000 A 
ATOM      7  C   UNL     1       1.125   2.243  18.857  0.00  0.00    +0.000 A 
ATOM      8  C   UNL     1       2.157   2.353  17.948  0.00  0.00    +0.000 A 
ATOM      9  N   UNL     1       2.985   3.415  17.881  0.00  0.00    +0.000 NA
ATOM     10  C   UNL     1       2.780   4.456  18.738  0.00  0.00    +0.000 A 
ENDBRANCH   3  10
ENDBRANCH   1   3
BRANCH   1  11
ATOM     11  C   UNL     1       4.956   6.848  16.836  0.00  0.00    +0.000 C 
BRANCH  11  12
ATOM     12  C   UNL     1       6.137   6.079  17.359  0.00  0.00    +0.000 A 
ATOM     13  N   UNL     1       6.961   6.515  18.296  0.00  0.00    +0.000 NA
ATOM     14  C   UNL     1       7.886   5.527  18.487  0.00  0.00    +0.000 A 
ATOM     15  C   UNL     1       7.652   4.478  17.636  0.00  0.00    +0.000 A 
ATOM     16  N   UNL     1       6.552   4.844  16.907  0.00  0.00    +0.000 N 
ATOM     17  C   UNL     1       5.969   4.059  15.845  0.00  0.00    +0.000 C 
ENDBRANCH  11  12
ENDBRANCH   1  11
TORSDOF 4
ENDMDL
MODEL 5
REMARK VINA RESULT:      -6.0      2.252      6.051
REMARK  Name = 
REMARK  7 active torsions:
REMARK  status: ('A' for Active; 'I' for Inactive)
REMARK    1  A    between atoms: C_1  and  C_2
REMARK    2  A    between atoms: C_7  and  C_8
REMARK    3  A    between atoms: C_8  and  N_9
REMARK    4  A    between atoms: N_9  and  C_10
REMARK    5  A    between atoms: N_9  and  C_11
REMARK    6  A    between atoms: C_11  and  C_12
REMARK    7  A    between atoms: N_16  and  C_17
REMARK                            x       y       z     vdW  Elec       q    Type
REMARK                         _______ _______ _______ _____ _____    ______ ____
ROOT
ATOM      1  N   UNL     1       3.840   3.632  17.686  0.00  0.00    +0.000 NA
ATOM      2  C   UNL     1       4.813   3.420  16.608  0.00  0.00    +0.000 C 
ENDROOT
BRANCH   1   3
ATOM      3  C   UNL     1       4.002   4.975  18.305  0.00  0.00    +0.000 C 
BRANCH   3  10
ATOM      4  C   UNL     1       5.038   6.973  16.235  0.00  0.00    +0.000 C 
ATOM      5  C   UNL     1       5.854   6.520  17.409  0.00  0.00    +0.000 A 
ATOM      6  C   UNL     1       7.171   6.991  17.527  0.00  0.00    +0.000 A 
ATOM      7  C   UNL     1       7.983   6.557  18.564  0.00  0.00    +0.000 A 
ATOM      8  C   UNL     1       7.458   5.640  19.451  0.00  0.00    +0.000 A 
ATOM      9  N   UNL     1       6.206   5.148  19.366  0.00  0.00    +0.000 NA
ATOM     10  C   UNL     1       5.396   5.598  18.364  0.00  0.00    +0.000 A 
ENDBRANCH   3  10
ENDBRANCH   1   3
BRANCH   1  11
ATOM     11  C   UNL     1       3.927   2.521  18.649  0.00  0.00    +0.000 C 
BRANCH  11  12
ATOM     12  C   UNL     1       3.028   2.630  19.850  0.00  0.00    +0.000 A 
ATOM     13  N   UNL     1       3.452   2.689  21.101  0.00  0.00    +0.000 NA
ATOM     14  C   UNL     1       2.334   2.788  21.882  0.00  0.00    +0.000 A 
ATOM     15  C   UNL     1       1.202   2.759  21.109  0.00  0.00    +0.000 A 
ATOM     16  N   UNL     1       1.650   2.637  19.820  0.00  0.00    +0.000 N 
ATOM     17  C   UNL     1       0.798   2.519  18.661  0.00  0.00    +0.000 C 
ENDBRANCH  11  12
ENDBRANCH   1  11
TORSDOF 4
ENDMDL
MODEL 6
REMARK VINA RESULT:      -5.9      1.507      2.019
REMARK  Name = 
REMARK  7 active torsions:
REMARK  status: ('A' for Active; 'I' for Inactive)
REMARK    1  A    between atoms: C_1  and  C_2
REMARK    2  A    between atoms: C_7  and  C_8
REMARK    3  A    between atoms: C_8  and  N_9
REMARK    4  A    between atoms: N_9  and  C_10
REMARK    5  A    between atoms: N_9  and  C_11
REMARK    6  A    between atoms: C_11  and  C_12
REMARK    7  A    between atoms: N_16  and  C_17
REMARK                            x       y       z     vdW  Elec       q    Type
REMARK                         _______ _______ _______ _____ _____    ______ ____
ROOT
ATOM      1  N   UNL     1       4.173   6.310  18.873  0.00  0.00    +0.000 NA
ATOM      2  C   UNL     1       4.973   5.148  19.275  0.00  0.00    +0.000 C 
ENDROOT
BRANCH   1   3
ATOM      3  C   UNL     1       2.777   6.206  19.376  0.00  0.00    +0.000 C 
BRANCH   3  10
ATOM      4  C   UNL     1       1.416   4.169  17.547  0.00  0.00    +0.000 C 
ATOM      5  C   UNL     1       1.649   3.924  19.009  0.00  0.00    +0.000 A 
ATOM      6  C   UNL     1       1.166   2.730  19.569  0.00  0.00    +0.000 A 
ATOM      7  C   UNL     1       1.308   2.484  20.926  0.00  0.00    +0.000 A 
ATOM      8  C   UNL     1       1.914   3.454  21.697  0.00  0.00    +0.000 A 
ATOM      9  N   UNL     1       2.376   4.622  21.203  0.00  0.00    +0.000 NA
ATOM     10  C   UNL     1       2.265   4.851  19.863  0.00  0.00    +0.000 A 
ENDBRANCH   3  10
ENDBRANCH   1   3
BRANCH   1  11
ATOM     11  C   UNL     1       4.265   6.488  17.413  0.00  0.00    +0.000 C 
BRANCH  11  12
ATOM     12  C   UNL     1       5.210   5.557  16.704  0.00  0.00    +0.000 A 
ATOM     13  N   UNL     1       4.856   4.416  16.140  0.00  0.00    +0.000 NA
ATOM     14  C   UNL     1       5.995   3.881  15.605  0.00  0.00    +0.000 A 
ATOM     15  C   UNL     1       7.074   4.684  15.868  0.00  0.00    +0.000 A 
ATOM     16  N   UNL     1       6.572   5.738  16.585  0.00  0.00    +0.000 N 
ATOM     17  C   UNL     1       7.363   6.818  17.123  0.00  0.00    +0.000 C 
ENDBRANCH  11  12
ENDBRANCH   1  11
TORSDOF 4
ENDMDL
MODEL 7
REMARK VINA RESULT:      -5.8      1.815      2.907
REMARK  Name = 
REMARK  7 active torsions:
REMARK  status: ('A' for Active; 'I' for Inactive)
REMARK    1  A    between atoms: C_1  and  C_2
REMARK    2  A    between atoms: C_7  and  C_8
REMARK    3  A    between atoms: C_8  and  N_9
REMARK    4  A    between atoms: N_9  and  C_10
REMARK    5  A    between atoms: N_9  and  C_11
REMARK    6  A    between atoms: C_11  and  C_12
REMARK    7  A    between atoms: N_16  and  C_17
REMARK                            x       y       z     vdW  Elec       q    Type
REMARK                         _______ _______ _______ _____ _____    ______ ____
ROOT
ATOM      1  N   UNL     1       5.290   4.349  17.491  0.00  0.00    +0.000 NA
ATOM      2  C   UNL     1       4.471   5.474  17.026  0.00  0.00    +0.000 C 
ENDROOT
BRANCH   1   3
ATOM      3  C   UNL     1       5.060   4.072  18.934  0.00  0.00    +0.000 C 
BRANCH   3  10
ATOM      4  C   UNL     1       3.372   1.594  18.334  0.00  0.00    +0.000 C 
ATOM      5  C   UNL     1       2.867   2.745  19.153  0.00  0.00    +0.000 A 
ATOM      6  C   UNL     1       1.542   2.703  19.614  0.00  0.00    +0.000 A 
ATOM      7  C   UNL     1       1.013   3.768  20.327  0.00  0.00    +0.000 A 
ATOM      8  C   UNL     1       1.823   4.863  20.546  0.00  0.00    +0.000 A 
ATOM      9  N   UNL     1       3.095   4.952  20.107  0.00  0.00    +0.000 NA
ATOM     10  C   UNL     1       3.627   3.892  19.432  0.00  0.00    +0.000 A 
ENDBRANCH   3  10
ENDBRANCH   1   3
BRANCH   1  11
ATOM     11  C   UNL     1       6.703   4.599  17.154  0.00  0.00    +0.000 C 
BRANCH  11  12
ATOM     12  C   UNL     1       7.215   5.975  17.478  0.00  0.00    +0.000 A 
ATOM     13  N   UNL     1       7.161   7.008  16.656  0.00  0.00    +0.000 NA
ATOM     14  C   UNL     1       7.719   8.062  17.325  0.00  0.00    +0.000 A 
ATOM     15  C   UNL     1       8.154   7.670  18.564  0.00  0.00    +0.000 A 
ATOM     16  N   UNL     1       7.850   6.337  18.647  0.00  0.00    +0.000 N 
ATOM     17  C   UNL     1       8.171   5.488  19.769  0.00  0.00    +0.000 C 
ENDBRANCH  11  12
ENDBRANCH   1  11
TORSDOF 4
ENDMDL
MODEL 8
REMARK VINA RESULT:      -5.8      1.835      5.395
REMARK  Name = 
REMARK  7 active torsions:
REMARK  status: ('A' for Active; 'I' for Inactive)
REMARK    1  A    between atoms: C_1  and  C_2
REMARK    2  A    between atoms: C_7  and  C_8
REMARK    3  A    between atoms: C_8  and  N_9
REMARK    4  A    between atoms: N_9  and  C_10
REMARK    5  A    between atoms: N_9  and  C_11
REMARK    6  A    between atoms: C_11  and  C_12
REMARK    7  A    between atoms: N_16  and  C_17
REMARK                            x       y       z     vdW  Elec       q    Type
REMARK                         _______ _______ _______ _____ _____    ______ ____
ROOT
ATOM      1  N   UNL     1       3.032   6.354  18.020  0.00  0.00    +0.000 NA
ATOM      2  C   UNL     1       2.628   7.765  18.035  0.00  0.00    +0.000 C 
ENDROOT
BRANCH   1   3
ATOM      3  C   UNL     1       4.174   6.128  17.093  0.00  0.00    +0.000 C 
BRANCH   3  10
ATOM      4  C   UNL     1       5.419   4.356  19.252  0.00  0.00    +0.000 C 
ATOM      5  C   UNL     1       6.156   5.489  18.602  0.00  0.00    +0.000 A 
ATOM      6  C   UNL     1       7.455   5.781  19.049  0.00  0.00    +0.000 A 
ATOM      7  C   UNL     1       8.156   6.854  18.518  0.00  0.00    +0.000 A 
ATOM      8  C   UNL     1       7.527   7.623  17.561  0.00  0.00    +0.000 A 
ATOM      9  N   UNL     1       6.276   7.389  17.116  0.00  0.00    +0.000 NA
ATOM     10  C   UNL     1       5.597   6.316  17.615  0.00  0.00    +0.000 A 
ENDBRANCH   3  10
ENDBRANCH   1   3
BRANCH   1  11
ATOM     11  C   UNL     1       1.859   5.511  17.732  0.00  0.00    +0.000 C 
BRANCH  11  12
ATOM     12  C   UNL     1       1.944   4.090  18.219  0.00  0.00    +0.000 A 
ATOM     13  N   UNL     1       2.111   3.038  17.437  0.00  0.00    +0.000 NA
ATOM     14  C   UNL     1       2.142   1.947  18.260  0.00  0.00    +0.000 A 
ATOM     15  C   UNL     1       1.960   2.324  19.566  0.00  0.00    +0.000 A 
ATOM     16  N   UNL     1       1.813   3.686  19.531  0.00  0.00    +0.000 N 
ATOM     17  C   UNL     1       1.550   4.515  20.681  0.00  0.00    +0.000 C 
ENDBRANCH  11  12
ENDBRANCH   1  11
TORSDOF 4
ENDMDL
MODEL 9
REMARK VINA RESULT:      -5.8      1.687      2.591
REMARK  Name = 
REMARK  7 active torsions:
REMARK  status: ('A' for Active; 'I' for Inactive)
REMARK    1  A    between atoms: C_1  and  C_2
REMARK    2  A    between atoms: C_7  and  C_8
REMARK    3  A    between atoms: C_8  and  N_9
REMARK    4  A    between atoms: N_9  and  C_10
REMARK    5  A    between atoms: N_9  and  C_11
REMARK    6  A    between atoms: C_11  and  C_12
REMARK    7  A    between atoms: N_16  and  C_17
REMARK                            x       y       z     vdW  Elec       q    Type
REMARK                         _______ _______ _______ _____ _____    ______ ____
ROOT
ATOM      1  N   UNL     1       6.703   5.750  18.320  0.00  0.00    +0.000 NA
ATOM      2  C   UNL     1       7.920   6.370  18.855  0.00  0.00    +0.000 C 
ENDROOT
BRANCH   1   3
ATOM      3  C   UNL     1       5.686   5.544  19.386  0.00  0.00    +0.000 C 
BRANCH   3  10
ATOM      4  C   UNL     1       3.614   7.087  17.750  0.00  0.00    +0.000 C 
ATOM      5  C   UNL     1       3.384   5.691  18.248  0.00  0.00    +0.000 A 
ATOM      6  C   UNL     1       2.139   5.092  17.999  0.00  0.00    +0.000 A 
ATOM      7  C   UNL     1       1.859   3.824  18.487  0.00  0.00    +0.000 A 
ATOM      8  C   UNL     1       2.832   3.193  19.234  0.00  0.00    +0.000 A 
ATOM      9  N   UNL     1       4.033   3.738  19.512  0.00  0.00    +0.000 NA
ATOM     10  C   UNL     1       4.322   4.972  19.005  0.00  0.00    +0.000 A 
ENDBRANCH   3  10
ENDBRANCH   1   3
BRANCH   1  11
ATOM     11  C   UNL     1       7.059   4.519  17.593  0.00  0.00    +0.000 C 
BRANCH  11  12
ATOM     12  C   UNL     1       6.845   4.557  16.105  0.00  0.00    +0.000 A 
ATOM     13  N   UNL     1       7.625   5.196  15.252  0.00  0.00    +0.000 NA
ATOM     14  C   UNL     1       7.096   4.981  14.010  0.00  0.00    +0.000 A 
ATOM     15  C   UNL     1       5.956   4.225  14.097  0.00  0.00    +0.000 A 
ATOM     16  N   UNL     1       5.790   3.976  15.434  0.00  0.00    +0.000 N 
ATOM     17  C   UNL     1       4.683   3.248  16.004  0.00  0.00    +0.000 C 
ENDBRANCH  11  12
ENDBRANCH   1  11
TORSDOF 4
ENDMDL
