MODEL 1
REMARK VINA RESULT:      -6.9      0.000      0.000
REMARK  Name = 
REMARK  4 active torsions:
REMARK  status: ('A' for Active; 'I' for Inactive)
REMARK    1  A    between atoms: C_1  and  S_2
REMARK    2  A    between atoms: S_2  and  C_3
REMARK    3  A    between atoms: C_6  and  C_7
REMARK    4  A    between atoms: N_8  and  N_9
REMARK                            x       y       z     vdW  Elec       q    Type
REMARK                         _______ _______ _______ _____ _____    ______ ____
ROOT
ATOM      1  C   UNL     1       4.996   4.736  15.906  0.00  0.00    +0.000 C 
ATOM      2  N   UNL     1       5.936   3.949  15.486  0.00  0.00    +0.000 NA
ENDROOT
BRANCH   2   3
ATOM      3  N   UNL     1       6.730   4.472  14.501  0.00  0.00    +0.000 N 
ATOM      4  N   UNL     1       7.636   5.460  14.685  0.00  0.00    +0.000 NA
ATOM      5  N   UNL     1       8.209   5.657  13.508  0.00  0.00    +0.000 NA
ATOM      6  N   UNL     1       7.690   4.823  12.554  0.00  0.00    +0.000 NA
ATOM      7  C   UNL     1       6.777   4.095  13.152  0.00  0.00    +0.000 A 
ATOM      8  N   UNL     1       5.985   3.147  12.597  0.00  0.00    +0.000 N 
ATOM      9  H   UNL     1       5.946   3.128  11.582  0.00  0.00    +0.000 HD
ATOM     10  H   UNL     1       5.110   2.905  13.053  0.00  0.00    +0.000 HD
ENDBRANCH   2   3
BRANCH   1  14
ATOM     11  C   UNL     1       2.311   3.675  19.086  0.00  0.00    +0.000 A 
ATOM     12  C   UNL     1       3.044   2.686  18.415  0.00  0.00    +0.000 A 
ATOM     13  C   UNL     1       3.926   3.020  17.383  0.00  0.00    +0.000 A 
ATOM     14  C   UNL     1       4.077   4.352  17.003  0.00  0.00    +0.000 A 
ATOM     15  C   UNL     1       3.353   5.350  17.663  0.00  0.00    +0.000 A 
ATOM     16  C   UNL     1       2.471   5.010  18.698  0.00  0.00    +0.000 A 
BRANCH  11  18
ATOM     17  C   UNL     1       2.260   2.831  21.766  0.00  0.00    +0.000 C 
ATOM     18  S   UNL     1       1.169   3.133  20.350  0.00  0.00    +0.000 S 
ENDBRANCH  11  18
ENDBRANCH   1  14
TORSDOF 3
ENDMDL
MODEL 2
REMARK VINA RESULT:      -6.8      0.267      1.231
REMARK  Name = 
REMARK  4 active torsions:
REMARK  status: ('A' for Active; 'I' for Inactive)
REMARK    1  A    between atoms: C_1  and  S_2
REMARK    2  A    between atoms: S_2  and  C_3
REMARK    3  A    between atoms: C_6  and  C_7
REMARK    4  A    between atoms: N_8  and  N_9
REMARK                            x       y       z     vdW  Elec       q    Type
REMARK                         _______ _______ _______ _____ _____    ______ ____
ROOT
ATOM      1  C   UNL     1       5.063   4.689  15.960  0.00  0.00    +0.000 C 
ATOM      2  N   UNL     1       5.715   3.843  15.227  0.00  0.00    +0.000 NA
ENDROOT
BRANCH   2   3
ATOM      3  N   UNL     1       6.597   4.404  14.343  0.00  0.00    +0.000 N 
ATOM      4  N   UNL     1       7.468   5.394  14.647  0.00  0.00    +0.000 NA
ATOM      5  N   UNL     1       8.153   5.634  13.540  0.00  0.00    +0.000 NA
ATOM      6  N   UNL     1       7.742   4.825  12.514  0.00  0.00    +0.000 NA
ATOM      7  C   UNL     1       6.783   4.070  12.995  0.00  0.00    +0.000 A 
ATOM      8  N   UNL     1       6.063   3.133  12.334  0.00  0.00    +0.000 N 
ATOM      9  H   UNL     1       6.126   3.145  11.320  0.00  0.00    +0.000 HD
ATOM     10  H   UNL     1       5.150   2.868  12.693  0.00  0.00    +0.000 HD
ENDBRANCH   2   3
BRANCH   1  14
ATOM     11  C   UNL     1       2.307   3.377  18.982  0.00  0.00    +0.000 A 
ATOM     12  C   UNL     1       2.520   4.745  18.760  0.00  0.00    +0.000 A 
ATOM     13  C   UNL     1       3.410   5.185  17.775  0.00  0.00    +0.000 A 
ATOM     14  C   UNL     1       4.106   4.255  17.005  0.00  0.00    +0.000 A 
ATOM     15  C   UNL     1       3.903   2.887  17.213  0.00  0.00    +0.000 A 
ATOM     16  C   UNL     1       3.010   2.452  18.201  0.00  0.00    +0.000 A 
BRANCH  11  18
ATOM     17  C   UNL     1       2.108   3.434  21.784  0.00  0.00    +0.000 C 
ATOM     18  S   UNL     1       1.193   2.925  20.304  0.00  0.00    +0.000 S 
ENDBRANCH  11  18
ENDBRANCH   1  14
TORSDOF 3
ENDMDL
MODEL 3
REMARK VINA RESULT:      -6.6      1.141      1.247
REMARK  Name = 
REMARK  4 active torsions:
REMARK  status: ('A' for Active; 'I' for Inactive)
REMARK    1  A    between atoms: C_1  and  S_2
REMARK    2  A    between atoms: S_2  and  C_3
REMARK    3  A    between atoms: C_6  and  C_7
REMARK    4  A    between atoms: N_8  and  N_9
REMARK                            x       y       z     vdW  Elec       q    Type
REMARK                         _______ _______ _______ _____ _____    ______ ____
ROOT
ATOM      1  C   UNL     1       5.432   4.599  15.824  0.00  0.00    +0.000 C 
ATOM      2  N   UNL     1       6.178   3.785  15.146  0.00  0.00    +0.000 NA
ENDROOT
BRANCH   2   3
ATOM      3  N   UNL     1       6.793   4.338  14.055  0.00  0.00    +0.000 N 
ATOM      4  N   UNL     1       7.596   5.426  14.091  0.00  0.00    +0.000 NA
ATOM      5  N   UNL     1       8.007   5.621  12.847  0.00  0.00    +0.000 NA
ATOM      6  N   UNL     1       7.482   4.687  11.996  0.00  0.00    +0.000 NA
ATOM      7  C   UNL     1       6.730   3.896  12.726  0.00  0.00    +0.000 A 
ATOM      8  N   UNL     1       5.994   2.841  12.305  0.00  0.00    +0.000 N 
ATOM      9  H   UNL     1       5.844   2.764  11.304  0.00  0.00    +0.000 HD
ATOM     10  H   UNL     1       5.209   2.530  12.871  0.00  0.00    +0.000 HD
ENDBRANCH   2   3
BRANCH   1  14
ATOM     11  C   UNL     1       3.450   3.414  19.445  0.00  0.00    +0.000 A 
ATOM     12  C   UNL     1       2.785   3.338  18.213  0.00  0.00    +0.000 A 
ATOM     13  C   UNL     1       3.421   3.714  17.027  0.00  0.00    +0.000 A 
ATOM     14  C   UNL     1       4.734   4.183  17.062  0.00  0.00    +0.000 A 
ATOM     15  C   UNL     1       5.410   4.264  18.284  0.00  0.00    +0.000 A 
ATOM     16  C   UNL     1       4.768   3.885  19.470  0.00  0.00    +0.000 A 
BRANCH  11  18
ATOM     17  C   UNL     1       0.807   3.208  20.378  0.00  0.00    +0.000 C 
ATOM     18  S   UNL     1       2.524   2.964  20.906  0.00  0.00    +0.000 S 
ENDBRANCH  11  18
ENDBRANCH   1  14
TORSDOF 3
ENDMDL
MODEL 4
REMARK VINA RESULT:      -6.6      1.104      1.274
REMARK  Name = 
REMARK  4 active torsions:
REMARK  status: ('A' for Active; 'I' for Inactive)
REMARK    1  A    between atoms: C_1  and  S_2
REMARK    2  A    between atoms: S_2  and  C_3
REMARK    3  A    between atoms: C_6  and  C_7
REMARK    4  A    between atoms: N_8  and  N_9
REMARK                            x       y       z     vdW  Elec       q    Type
REMARK                         _______ _______ _______ _____ _____    ______ ____
ROOT
ATOM      1  C   UNL     1       5.374   4.540  15.740  0.00  0.00    +0.000 C 
ATOM      2  N   UNL     1       6.353   3.863  15.229  0.00  0.00    +0.000 NA
ENDROOT
BRANCH   2   3
ATOM      3  N   UNL     1       6.892   4.396  14.089  0.00  0.00    +0.000 N 
ATOM      4  N   UNL     1       7.690   5.488  14.050  0.00  0.00    +0.000 NA
ATOM      5  N   UNL     1       8.017   5.661  12.779  0.00  0.00    +0.000 NA
ATOM      6  N   UNL     1       7.441   4.708  11.982  0.00  0.00    +0.000 NA
ATOM      7  C   UNL     1       6.743   3.929  12.775  0.00  0.00    +0.000 A 
ATOM      8  N   UNL     1       5.986   2.864  12.425  0.00  0.00    +0.000 N 
ATOM      9  H   UNL     1       5.769   2.766  11.437  0.00  0.00    +0.000 HD
ATOM     10  H   UNL     1       5.241   2.561  13.047  0.00  0.00    +0.000 HD
ENDBRANCH   2   3
BRANCH   1  14
ATOM     11  C   UNL     1       3.404   3.346  19.365  0.00  0.00    +0.000 A 
ATOM     12  C   UNL     1       4.723   3.821  19.396  0.00  0.00    +0.000 A 
ATOM     13  C   UNL     1       5.373   4.218  18.223  0.00  0.00    +0.000 A 
ATOM     14  C   UNL     1       4.709   4.135  17.001  0.00  0.00    +0.000 A 
ATOM     15  C   UNL     1       3.393   3.664  16.954  0.00  0.00    +0.000 A 
ATOM     16  C   UNL     1       2.747   3.268  18.132  0.00  0.00    +0.000 A 
BRANCH  11  18
ATOM     17  C   UNL     1       0.949   3.281  20.731  0.00  0.00    +0.000 C 
ATOM     18  S   UNL     1       2.690   2.809  20.913  0.00  0.00    +0.000 S 
ENDBRANCH  11  18
ENDBRANCH   1  14
TORSDOF 3
ENDMDL
MODEL 5
REMARK VINA RESULT:      -6.5      7.903      8.951
REMARK  Name = 
REMARK  4 active torsions:
REMARK  status: ('A' for Active; 'I' for Inactive)
REMARK    1  A    between atoms: C_1  and  S_2
REMARK    2  A    between atoms: S_2  and  C_3
REMARK    3  A    between atoms: C_6  and  C_7
REMARK    4  A    between atoms: N_8  and  N_9
REMARK                            x       y       z     vdW  Elec       q    Type
REMARK                         _______ _______ _______ _____ _____    ______ ____
ROOT
ATOM      1  C   UNL     1       8.429   9.363  18.119  0.00  0.00    +0.000 C 
ATOM      2  N   UNL     1       8.578   8.208  18.687  0.00  0.00    +0.000 NA
ENDROOT
BRANCH   2   3
ATOM      3  N   UNL     1       8.012   7.157  18.018  0.00  0.00    +0.000 N 
ATOM      4  N   UNL     1       7.669   7.171  16.709  0.00  0.00    +0.000 NA
ATOM      5  N   UNL     1       7.183   5.968  16.442  0.00  0.00    +0.000 NA
ATOM      6  N   UNL     1       7.194   5.169  17.554  0.00  0.00    +0.000 NA
ATOM      7  C   UNL     1       7.696   5.890  18.528  0.00  0.00    +0.000 A 
ATOM      8  N   UNL     1       7.878   5.520  19.818  0.00  0.00    +0.000 N 
ATOM      9  H   UNL     1       7.402   4.674  20.118  0.00  0.00    +0.000 HD
ATOM     10  H   UNL     1       7.943   6.238  20.534  0.00  0.00    +0.000 HD
ENDBRANCH   2   3
BRANCH   1  14
ATOM     11  C   UNL     1      10.124  12.978  19.700  0.00  0.00    +0.000 A 
ATOM     12  C   UNL     1      10.155  11.793  20.448  0.00  0.00    +0.000 A 
ATOM     13  C   UNL     1       9.613  10.608  19.941  0.00  0.00    +0.000 A 
ATOM     14  C   UNL     1       9.022  10.600  18.679  0.00  0.00    +0.000 A 
ATOM     15  C   UNL     1       8.984  11.775  17.921  0.00  0.00    +0.000 A 
ATOM     16  C   UNL     1       9.530  12.959  18.433  0.00  0.00    +0.000 A 
BRANCH  11  18
ATOM     17  C   UNL     1       9.748  14.640  21.935  0.00  0.00    +0.000 C 
ATOM     18  S   UNL     1      10.793  14.448  20.466  0.00  0.00    +0.000 S 
ENDBRANCH  11  18
ENDBRANCH   1  14
TORSDOF 3
ENDMDL
MODEL 6
REMARK VINA RESULT:      -6.5      7.917      9.096
REMARK  Name = 
REMARK  4 active torsions:
REMARK  status: ('A' for Active; 'I' for Inactive)
REMARK    1  A    between atoms: C_1  and  S_2
REMARK    2  A    between atoms: S_2  and  C_3
REMARK    3  A    between atoms: C_6  and  C_7
REMARK    4  A    between atoms: N_8  and  N_9
REMARK                            x       y       z     vdW  Elec       q    Type
REMARK                         _______ _______ _______ _____ _____    ______ ____
ROOT
ATOM      1  C   UNL     1       8.484   9.267  18.097  0.00  0.00    +0.000 C 
ATOM      2  N   UNL     1       8.463   8.171  18.787  0.00  0.00    +0.000 NA
ENDROOT
BRANCH   2   3
ATOM      3  N   UNL     1       7.973   7.079  18.123  0.00  0.00    +0.000 N 
ATOM      4  N   UNL     1       7.630   7.062  16.814  0.00  0.00    +0.000 NA
ATOM      5  N   UNL     1       7.231   5.827  16.554  0.00  0.00    +0.000 NA
ATOM      6  N   UNL     1       7.299   5.036  17.669  0.00  0.00    +0.000 NA
ATOM      7  C   UNL     1       7.748   5.796  18.640  0.00  0.00    +0.000 A 
ATOM      8  N   UNL     1       7.955   5.446  19.932  0.00  0.00    +0.000 N 
ATOM      9  H   UNL     1       7.540   4.570  20.236  0.00  0.00    +0.000 HD
ATOM     10  H   UNL     1       7.968   6.171  20.644  0.00  0.00    +0.000 HD
ENDBRANCH   2   3
BRANCH   1  14
ATOM     11  C   UNL     1      10.091  12.906  19.718  0.00  0.00    +0.000 A 
ATOM     12  C   UNL     1       9.487  12.897  18.452  0.00  0.00    +0.000 A 
ATOM     13  C   UNL     1       8.955  11.720  17.917  0.00  0.00    +0.000 A 
ATOM     14  C   UNL     1       9.030  10.532  18.641  0.00  0.00    +0.000 A 
ATOM     15  C   UNL     1       9.628  10.526  19.906  0.00  0.00    +0.000 A 
ATOM     16  C   UNL     1      10.160  11.708  20.438  0.00  0.00    +0.000 A 
BRANCH  11  18
ATOM     17  C   UNL     1      10.016  15.663  19.177  0.00  0.00    +0.000 C 
ATOM     18  S   UNL     1      10.791  14.451  20.281  0.00  0.00    +0.000 S 
ENDBRANCH  11  18
ENDBRANCH   1  14
TORSDOF 3
ENDMDL
MODEL 7
REMARK VINA RESULT:      -6.3      3.337      4.314
REMARK  Name = 
REMARK  4 active torsions:
REMARK  status: ('A' for Active; 'I' for Inactive)
REMARK    1  A    between atoms: C_1  and  S_2
REMARK    2  A    between atoms: S_2  and  C_3
REMARK    3  A    between atoms: C_6  and  C_7
REMARK    4  A    between atoms: N_8  and  N_9
REMARK                            x       y       z     vdW  Elec       q    Type
REMARK                         _______ _______ _______ _____ _____    ______ ____
ROOT
ATOM      1  C   UNL     1       4.232   6.346  17.546  0.00  0.00    +0.000 C 
ATOM      2  N   UNL     1       5.454   6.746  17.385  0.00  0.00    +0.000 NA
ENDROOT
BRANCH   2   3
ATOM      3  N   UNL     1       6.244   5.908  16.645  0.00  0.00    +0.000 N 
ATOM      4  N   UNL     1       6.402   5.982  15.303  0.00  0.00    +0.000 NA
ATOM      5  N   UNL     1       7.256   5.024  14.980  0.00  0.00    +0.000 NA
ATOM      6  N   UNL     1       7.655   4.318  16.083  0.00  0.00    +0.000 NA
ATOM      7  C   UNL     1       7.035   4.849  17.111  0.00  0.00    +0.000 A 
ATOM      8  N   UNL     1       7.107   4.462  18.406  0.00  0.00    +0.000 N 
ATOM      9  H   UNL     1       7.521   3.551  18.584  0.00  0.00    +0.000 HD
ATOM     10  H   UNL     1       6.350   4.707  19.038  0.00  0.00    +0.000 HD
ENDBRANCH   2   3
BRANCH   1  14
ATOM     11  C   UNL     1       1.308   8.717  19.613  0.00  0.00    +0.000 A 
ATOM     12  C   UNL     1       1.842   7.566  20.211  0.00  0.00    +0.000 A 
ATOM     13  C   UNL     1       2.799   6.790  19.550  0.00  0.00    +0.000 A 
ATOM     14  C   UNL     1       3.227   7.154  18.275  0.00  0.00    +0.000 A 
ATOM     15  C   UNL     1       2.705   8.299  17.666  0.00  0.00    +0.000 A 
ATOM     16  C   UNL     1       1.746   9.074  18.333  0.00  0.00    +0.000 A 
BRANCH  11  18
ATOM     17  C   UNL     1       0.627   9.471  22.233  0.00  0.00    +0.000 C 
ATOM     18  S   UNL     1       0.048   9.603  20.520  0.00  0.00    +0.000 S 
ENDBRANCH  11  18
ENDBRANCH   1  14
TORSDOF 3
ENDMDL
MODEL 8
REMARK VINA RESULT:      -6.1      1.095      1.117
REMARK  Name = 
REMARK  4 active torsions:
REMARK  status: ('A' for Active; 'I' for Inactive)
REMARK    1  A    between atoms: C_1  and  S_2
REMARK    2  A    between atoms: S_2  and  C_3
REMARK    3  A    between atoms: C_6  and  C_7
REMARK    4  A    between atoms: N_8  and  N_9
REMARK                            x       y       z     vdW  Elec       q    Type
REMARK                         _______ _______ _______ _____ _____    ______ ____
ROOT
ATOM      1  C   UNL     1       5.351   5.043  15.554  0.00  0.00    +0.000 C 
ATOM      2  N   UNL     1       6.038   4.098  14.994  0.00  0.00    +0.000 NA
ENDROOT
BRANCH   2   3
ATOM      3  N   UNL     1       6.755   4.481  13.892  0.00  0.00    +0.000 N 
ATOM      4  N   UNL     1       7.646   5.498  13.866  0.00  0.00    +0.000 NA
ATOM      5  N   UNL     1       8.136   5.527  12.636  0.00  0.00    +0.000 NA
ATOM      6  N   UNL     1       7.577   4.552  11.854  0.00  0.00    +0.000 NA
ATOM      7  C   UNL     1       6.723   3.907  12.613  0.00  0.00    +0.000 A 
ATOM      8  N   UNL     1       5.921   2.876  12.258  0.00  0.00    +0.000 N 
ATOM      9  H   UNL     1       5.817   2.705  11.262  0.00  0.00    +0.000 HD
ATOM     10  H   UNL     1       5.084   2.691  12.804  0.00  0.00    +0.000 HD
ENDBRANCH   2   3
BRANCH   1  14
ATOM     11  C   UNL     1       3.045   4.447  19.128  0.00  0.00    +0.000 A 
ATOM     12  C   UNL     1       3.509   3.349  18.390  0.00  0.00    +0.000 A 
ATOM     13  C   UNL     1       4.266   3.530  17.229  0.00  0.00    +0.000 A 
ATOM     14  C   UNL     1       4.560   4.819  16.787  0.00  0.00    +0.000 A 
ATOM     15  C   UNL     1       4.105   5.924  17.513  0.00  0.00    +0.000 A 
ATOM     16  C   UNL     1       3.347   5.736  18.676  0.00  0.00    +0.000 A 
BRANCH  11  18
ATOM     17  C   UNL     1       1.418   5.746  21.016  0.00  0.00    +0.000 C 
ATOM     18  S   UNL     1       2.038   4.103  20.564  0.00  0.00    +0.000 S 
ENDBRANCH  11  18
ENDBRANCH   1  14
TORSDOF 3
ENDMDL
MODEL 9
REMARK VINA RESULT:      -6.1      3.473      4.648
REMARK  Name = 
REMARK  4 active torsions:
REMARK  status: ('A' for Active; 'I' for Inactive)
REMARK    1  A    between atoms: C_1  and  S_2
REMARK    2  A    between atoms: S_2  and  C_3
REMARK    3  A    between atoms: C_6  and  C_7
REMARK    4  A    between atoms: N_8  and  N_9
REMARK                            x       y       z     vdW  Elec       q    Type
REMARK                         _______ _______ _______ _____ _____    ______ ____
ROOT
ATOM      1  C   UNL     1       3.913   6.803  17.340  0.00  0.00    +0.000 C 
ATOM      2  N   UNL     1       4.991   6.266  17.819  0.00  0.00    +0.000 NA
ENDROOT
BRANCH   2   3
ATOM      3  N   UNL     1       5.810   5.685  16.889  0.00  0.00    +0.000 N 
ATOM      4  N   UNL     1       6.743   6.343  16.164  0.00  0.00    +0.000 NA
ATOM      5  N   UNL     1       7.332   5.431  15.407  0.00  0.00    +0.000 NA
ATOM      6  N   UNL     1       6.797   4.189  15.616  0.00  0.00    +0.000 NA
ATOM      7  C   UNL     1       5.858   4.333  16.521  0.00  0.00    +0.000 A 
ATOM      8  N   UNL     1       5.044   3.375  17.023  0.00  0.00    +0.000 N 
ATOM      9  H   UNL     1       5.014   2.495  16.517  0.00  0.00    +0.000 HD
ATOM     10  H   UNL     1       4.158   3.648  17.439  0.00  0.00    +0.000 HD
ENDBRANCH   2   3
BRANCH   1  14
ATOM     11  C   UNL     1       1.108   8.848  19.869  0.00  0.00    +0.000 A 
ATOM     12  C   UNL     1       1.410   9.347  18.594  0.00  0.00    +0.000 A 
ATOM     13  C   UNL     1       2.316   8.686  17.759  0.00  0.00    +0.000 A 
ATOM     14  C   UNL     1       2.941   7.520  18.198  0.00  0.00    +0.000 A 
ATOM     15  C   UNL     1       2.649   7.010  19.467  0.00  0.00    +0.000 A 
ATOM     16  C   UNL     1       1.740   7.676  20.300  0.00  0.00    +0.000 A 
BRANCH  11  18
ATOM     17  C   UNL     1      -0.556  11.109  19.740  0.00  0.00    +0.000 C 
ATOM     18  S   UNL     1      -0.019   9.803  20.876  0.00  0.00    +0.000 S 
ENDBRANCH  11  18
ENDBRANCH   1  14
TORSDOF 3
ENDMDL
