MODEL 1
REMARK VINA RESULT:      -8.0      0.000      0.000
REMARK  Name = 
REMARK  10 active torsions:
REMARK  status: ('A' for Active; 'I' for Inactive)
REMARK    1  A    between atoms: C_1  and  O_2
REMARK    2  A    between atoms: O_2  and  C_3
REMARK    3  A    between atoms: C_8  and  N_9
REMARK    4  A    between atoms: N_12  and  C_13
REMARK    5  A    between atoms: C_13  and  C_14
REMARK    6  A    between atoms: C_14  and  C_15
REMARK    7  A    between atoms: C_15  and  C_16
REMARK    8  A    between atoms: C_16  and  N_17
REMARK    9  A    between atoms: C_18  and  C_20
REMARK   10  A    between atoms: C_23  and  C_24
REMARK                            x       y       z     vdW  Elec       q    Type
REMARK                         _______ _______ _______ _____ _____    ______ ____
ROOT
ATOM      1  C   UNL     1       1.419   3.724  21.293  0.00  0.00    +0.000 C 
ENDROOT
BRANCH   1   2
ATOM      2  C   UNL     1       1.885   2.482  20.542  0.00  0.00    +0.000 C 
BRANCH   2   3
ATOM      3  C   UNL     1       1.267   2.399  19.148  0.00  0.00    +0.000 C 
BRANCH   3   7
ATOM      4  N   UNL     1       4.296   4.144  18.088  0.00  0.00    +0.000 N 
ATOM      5  C   UNL     1       2.969   4.466  17.566  0.00  0.00    +0.000 C 
ATOM      6  C   UNL     1       2.339   3.167  17.052  0.00  0.00    +0.000 C 
ATOM      7  N   UNL     1       2.261   2.123  18.096  0.00  0.00    +0.000 NA
ATOM      8  C   UNL     1       3.595   1.863  18.661  0.00  0.00    +0.000 C 
ATOM      9  C   UNL     1       4.324   3.128  19.149  0.00  0.00    +0.000 C 
BRANCH   4  15
ATOM     10  C   UNL     1       6.079   4.726  16.452  0.00  0.00    +0.000 A 
ATOM     11  C   UNL     1       7.249   5.449  16.176  0.00  0.00    +0.000 A 
ATOM     12  C   UNL     1       7.798   6.319  17.113  0.00  0.00    +0.000 A 
ATOM     13  C   UNL     1       7.180   6.473  18.340  0.00  0.00    +0.000 A 
ATOM     14  C   UNL     1       6.017   5.754  18.625  0.00  0.00    +0.000 A 
ATOM     15  C   UNL     1       5.431   4.851  17.711  0.00  0.00    +0.000 A 
BRANCH  10  17
ATOM     16  C   UNL     1       5.459   4.286  14.203  0.00  0.00    +0.000 C 
ATOM     17  O   UNL     1       5.605   3.805  15.539  0.00  0.00    +0.000 OA
ENDBRANCH  10  17
ENDBRANCH   4  15
ENDBRANCH   3   7
ENDBRANCH   2   3
ENDBRANCH   1   2
BRANCH   1  18
ATOM     18  C   UNL     1       2.126   4.948  20.749  0.00  0.00    +0.000 C 
BRANCH  18  19
ATOM     19  N   UNL     1       1.465   6.153  21.173  0.00  0.00    +0.000 N 
ATOM     20  C   UNL     1       1.652   7.322  20.478  0.00  0.00    +0.000 C 
ATOM     21  O   UNL     1       2.362   7.409  19.483  0.00  0.00    +0.000 OA
ATOM     22  H   UNL     1       0.941   6.140  22.037  0.00  0.00    +0.000 HD
BRANCH  20  23
ATOM     23  C   UNL     1       0.973   8.519  21.025  0.00  0.00    +0.000 A 
ATOM     24  C   UNL     1       0.867   9.637  20.198  0.00  0.00    +0.000 A 
ATOM     25  C   UNL     1       0.260  10.800  20.669  0.00  0.00    +0.000 A 
ATOM     26  C   UNL     1      -0.268  10.872  21.972  0.00  0.00    +0.000 A 
ATOM     27  C   UNL     1      -0.150   9.731  22.789  0.00  0.00    +0.000 A 
ATOM     28  C   UNL     1       0.455   8.562  22.322  0.00  0.00    +0.000 A 
BRANCH  26  29
ATOM     29  C   UNL     1      -0.919  12.090  22.476  0.00  0.00    +0.000 A 
ATOM     30  C   UNL     1      -2.193  12.074  23.045  0.00  0.00    +0.000 A 
ATOM     31  C   UNL     1      -2.756  13.267  23.488  0.00  0.00    +0.000 A 
ATOM     32  C   UNL     1      -2.033  14.444  23.361  0.00  0.00    +0.000 A 
ATOM     33  C   UNL     1      -0.775  14.378  22.801  0.00  0.00    +0.000 A 
ATOM     34  N   UNL     1      -0.202  13.239  22.359  0.00  0.00    +0.000 NA
ENDBRANCH  26  29
ENDBRANCH  20  23
ENDBRANCH  18  19
ENDBRANCH   1  18
TORSDOF 9
ENDMDL
MODEL 2
REMARK VINA RESULT:      -8.0      1.270      2.086
REMARK  Name = 
REMARK  10 active torsions:
REMARK  status: ('A' for Active; 'I' for Inactive)
REMARK    1  A    between atoms: C_1  and  O_2
REMARK    2  A    between atoms: O_2  and  C_3
REMARK    3  A    between atoms: C_8  and  N_9
REMARK    4  A    between atoms: N_12  and  C_13
REMARK    5  A    between atoms: C_13  and  C_14
REMARK    6  A    between atoms: C_14  and  C_15
REMARK    7  A    between atoms: C_15  and  C_16
REMARK    8  A    between atoms: C_16  and  N_17
REMARK    9  A    between atoms: C_18  and  C_20
REMARK   10  A    between atoms: C_23  and  C_24
REMARK                            x       y       z     vdW  Elec       q    Type
REMARK                         _______ _______ _______ _____ _____    ______ ____
ROOT
ATOM      1  C   UNL     1       1.188   4.907  19.464  0.00  0.00    +0.000 C 
ENDROOT
BRANCH   1   2
ATOM      2  C   UNL     1       0.975   3.431  19.778  0.00  0.00    +0.000 C 
BRANCH   2   3
ATOM      3  C   UNL     1       2.164   2.835  20.530  0.00  0.00    +0.000 C 
BRANCH   3   7
ATOM      4  N   UNL     1       4.573   3.727  17.931  0.00  0.00    +0.000 N 
ATOM      5  C   UNL     1       3.149   3.529  17.663  0.00  0.00    +0.000 C 
ATOM      6  C   UNL     1       2.751   2.159  18.221  0.00  0.00    +0.000 C 
ATOM      7  N   UNL     1       3.043   2.029  19.665  0.00  0.00    +0.000 NA
ATOM      8  C   UNL     1       4.466   2.302  19.926  0.00  0.00    +0.000 C 
ATOM      9  C   UNL     1       4.963   3.637  19.345  0.00  0.00    +0.000 C 
BRANCH   4  15
ATOM     10  C   UNL     1       6.752   4.670  17.186  0.00  0.00    +0.000 A 
ATOM     11  C   UNL     1       7.569   5.075  16.120  0.00  0.00    +0.000 A 
ATOM     12  C   UNL     1       7.159   4.929  14.799  0.00  0.00    +0.000 A 
ATOM     13  C   UNL     1       5.920   4.375  14.530  0.00  0.00    +0.000 A 
ATOM     14  C   UNL     1       5.097   3.974  15.585  0.00  0.00    +0.000 A 
ATOM     15  C   UNL     1       5.466   4.114  16.941  0.00  0.00    +0.000 A 
BRANCH  10  17
ATOM     16  C   UNL     1       7.879   6.114  18.695  0.00  0.00    +0.000 C 
ATOM     17  O   UNL     1       7.147   4.907  18.488  0.00  0.00    +0.000 OA
ENDBRANCH  10  17
ENDBRANCH   4  15
ENDBRANCH   3   7
ENDBRANCH   2   3
ENDBRANCH   1   2
BRANCH   1  18
ATOM     18  C   UNL     1       1.941   5.570  20.598  0.00  0.00    +0.000 C 
BRANCH  18  19
ATOM     19  N   UNL     1       1.182   6.658  21.152  0.00  0.00    +0.000 N 
ATOM     20  C   UNL     1       1.267   7.911  20.596  0.00  0.00    +0.000 C 
ATOM     21  O   UNL     1       1.965   8.171  19.622  0.00  0.00    +0.000 OA
ATOM     22  H   UNL     1       0.663   6.503  22.005  0.00  0.00    +0.000 HD
BRANCH  20  23
ATOM     23  C   UNL     1       0.491   8.976  21.271  0.00  0.00    +0.000 A 
ATOM     24  C   UNL     1       0.101  10.076  20.506  0.00  0.00    +0.000 A 
ATOM     25  C   UNL     1      -0.610  11.120  21.096  0.00  0.00    +0.000 A 
ATOM     26  C   UNL     1      -0.961  11.087  22.459  0.00  0.00    +0.000 A 
ATOM     27  C   UNL     1      -0.558   9.966  23.210  0.00  0.00    +0.000 A 
ATOM     28  C   UNL     1       0.153   8.916  22.626  0.00  0.00    +0.000 A 
BRANCH  26  29
ATOM     29  C   UNL     1      -1.720  12.177  23.089  0.00  0.00    +0.000 A 
ATOM     30  C   UNL     1      -1.180  13.449  23.280  0.00  0.00    +0.000 A 
ATOM     31  C   UNL     1      -1.950  14.430  23.897  0.00  0.00    +0.000 A 
ATOM     32  C   UNL     1      -3.241  14.122  24.301  0.00  0.00    +0.000 A 
ATOM     33  C   UNL     1      -3.710  12.847  24.065  0.00  0.00    +0.000 A 
ATOM     34  N   UNL     1      -2.989  11.873  23.472  0.00  0.00    +0.000 NA
ENDBRANCH  26  29
ENDBRANCH  20  23
ENDBRANCH  18  19
ENDBRANCH   1  18
TORSDOF 9
ENDMDL
MODEL 3
REMARK VINA RESULT:      -7.8      3.470     11.023
REMARK  Name = 
REMARK  10 active torsions:
REMARK  status: ('A' for Active; 'I' for Inactive)
REMARK    1  A    between atoms: C_1  and  O_2
REMARK    2  A    between atoms: O_2  and  C_3
REMARK    3  A    between atoms: C_8  and  N_9
REMARK    4  A    between atoms: N_12  and  C_13
REMARK    5  A    between atoms: C_13  and  C_14
REMARK    6  A    between atoms: C_14  and  C_15
REMARK    7  A    between atoms: C_15  and  C_16
REMARK    8  A    between atoms: C_16  and  N_17
REMARK    9  A    between atoms: C_18  and  C_20
REMARK   10  A    between atoms: C_23  and  C_24
REMARK                            x       y       z     vdW  Elec       q    Type
REMARK                         _______ _______ _______ _____ _____    ______ ____
ROOT
ATOM      1  C   UNL     1       1.305   9.403  19.917  0.00  0.00    +0.000 C 
ENDROOT
BRANCH   1   2
ATOM      2  C   UNL     1       0.109   9.753  20.795  0.00  0.00    +0.000 C 
BRANCH   2   3
ATOM      3  C   UNL     1       0.335  11.051  21.568  0.00  0.00    +0.000 C 
BRANCH   3   7
ATOM      4  N   UNL     1       0.576  14.181  19.699  0.00  0.00    +0.000 N 
ATOM      5  C   UNL     1       0.863  14.084  21.130  0.00  0.00    +0.000 C 
ATOM      6  C   UNL     1      -0.341  13.421  21.807  0.00  0.00    +0.000 C 
ATOM      7  N   UNL     1      -0.652  12.093  21.236  0.00  0.00    +0.000 NA
ATOM      8  C   UNL     1      -0.867  12.198  19.783  0.00  0.00    +0.000 C 
ATOM      9  C   UNL     1       0.273  12.908  19.032  0.00  0.00    +0.000 C 
BRANCH   4  15
ATOM     10  C   UNL     1       1.966  15.914  18.578  0.00  0.00    +0.000 A 
ATOM     11  C   UNL     1       2.018  17.146  17.908  0.00  0.00    +0.000 A 
ATOM     12  C   UNL     1       0.860  17.858  17.615  0.00  0.00    +0.000 A 
ATOM     13  C   UNL     1      -0.368  17.344  17.993  0.00  0.00    +0.000 A 
ATOM     14  C   UNL     1      -0.428  16.121  18.664  0.00  0.00    +0.000 A 
ATOM     15  C   UNL     1       0.721  15.369  18.994  0.00  0.00    +0.000 A 
BRANCH  10  17
ATOM     16  C   UNL     1       4.292  16.105  19.014  0.00  0.00    +0.000 C 
ATOM     17  O   UNL     1       3.136  15.271  18.933  0.00  0.00    +0.000 OA
ENDBRANCH  10  17
ENDBRANCH   4  15
ENDBRANCH   3   7
ENDBRANCH   2   3
ENDBRANCH   1   2
BRANCH   1  18
ATOM     18  C   UNL     1       1.721   7.968  20.163  0.00  0.00    +0.000 C 
BRANCH  18  19
ATOM     19  N   UNL     1       2.409   7.430  19.021  0.00  0.00    +0.000 N 
ATOM     20  C   UNL     1       3.129   6.266  19.136  0.00  0.00    +0.000 C 
ATOM     21  O   UNL     1       3.222   5.630  20.179  0.00  0.00    +0.000 OA
ATOM     22  H   UNL     1       2.427   7.969  18.167  0.00  0.00    +0.000 HD
BRANCH  20  23
ATOM     23  C   UNL     1       3.846   5.823  17.918  0.00  0.00    +0.000 A 
ATOM     24  C   UNL     1       4.544   6.789  17.192  0.00  0.00    +0.000 A 
ATOM     25  C   UNL     1       5.217   6.434  16.024  0.00  0.00    +0.000 A 
ATOM     26  C   UNL     1       5.220   5.106  15.557  0.00  0.00    +0.000 A 
ATOM     27  C   UNL     1       4.509   4.149  16.306  0.00  0.00    +0.000 A 
ATOM     28  C   UNL     1       3.835   4.497  17.479  0.00  0.00    +0.000 A 
BRANCH  26  29
ATOM     29  C   UNL     1       5.934   4.718  14.332  0.00  0.00    +0.000 A 
ATOM     30  C   UNL     1       5.448   3.743  13.462  0.00  0.00    +0.000 A 
ATOM     31  C   UNL     1       6.183   3.414  12.327  0.00  0.00    +0.000 A 
ATOM     32  C   UNL     1       7.381   4.071  12.084  0.00  0.00    +0.000 A 
ATOM     33  C   UNL     1       7.789   5.034  12.983  0.00  0.00    +0.000 A 
ATOM     34  N   UNL     1       7.102   5.373  14.093  0.00  0.00    +0.000 NA
ENDBRANCH  26  29
ENDBRANCH  20  23
ENDBRANCH  18  19
ENDBRANCH   1  18
TORSDOF 9
ENDMDL
MODEL 4
REMARK VINA RESULT:      -7.7      2.855     12.004
REMARK  Name = 
REMARK  10 active torsions:
REMARK  status: ('A' for Active; 'I' for Inactive)
REMARK    1  A    between atoms: C_1  and  O_2
REMARK    2  A    between atoms: O_2  and  C_3
REMARK    3  A    between atoms: C_8  and  N_9
REMARK    4  A    between atoms: N_12  and  C_13
REMARK    5  A    between atoms: C_13  and  C_14
REMARK    6  A    between atoms: C_14  and  C_15
REMARK    7  A    between atoms: C_15  and  C_16
REMARK    8  A    between atoms: C_16  and  N_17
REMARK    9  A    between atoms: C_18  and  C_20
REMARK   10  A    between atoms: C_23  and  C_24
REMARK                            x       y       z     vdW  Elec       q    Type
REMARK                         _______ _______ _______ _____ _____    ______ ____
ROOT
ATOM      1  C   UNL     1       1.340   9.245  19.850  0.00  0.00    +0.000 C 
ENDROOT
BRANCH   1   2
ATOM      2  C   UNL     1      -0.016   9.593  20.453  0.00  0.00    +0.000 C 
BRANCH   2   3
ATOM      3  C   UNL     1      -0.699  10.728  19.693  0.00  0.00    +0.000 C 
BRANCH   3   7
ATOM      4  N   UNL     1      -2.772  12.934  21.738  0.00  0.00    +0.000 N 
ATOM      5  C   UNL     1      -2.789  12.955  20.276  0.00  0.00    +0.000 C 
ATOM      6  C   UNL     1      -1.345  13.116  19.791  0.00  0.00    +0.000 C 
ATOM      7  N   UNL     1      -0.455  12.049  20.297  0.00  0.00    +0.000 NA
ATOM      8  C   UNL     1      -0.505  11.995  21.768  0.00  0.00    +0.000 C 
ATOM      9  C   UNL     1      -1.929  11.893  22.341  0.00  0.00    +0.000 C 
BRANCH   4  15
ATOM     10  C   UNL     1      -4.945  13.429  22.845  0.00  0.00    +0.000 A 
ATOM     11  C   UNL     1      -5.725  14.333  23.582  0.00  0.00    +0.000 A 
ATOM     12  C   UNL     1      -5.207  15.550  24.012  0.00  0.00    +0.000 A 
ATOM     13  C   UNL     1      -3.899  15.878  23.706  0.00  0.00    +0.000 A 
ATOM     14  C   UNL     1      -3.117  14.986  22.968  0.00  0.00    +0.000 A 
ATOM     15  C   UNL     1      -3.603  13.746  22.500  0.00  0.00    +0.000 A 
BRANCH  10  17
ATOM     16  C   UNL     1      -6.863  12.383  21.915  0.00  0.00    +0.000 C 
ATOM     17  O   UNL     1      -5.511  12.267  22.357  0.00  0.00    +0.000 OA
ENDBRANCH  10  17
ENDBRANCH   4  15
ENDBRANCH   3   7
ENDBRANCH   2   3
ENDBRANCH   1   2
BRANCH   1  18
ATOM     18  C   UNL     1       1.616   7.767  20.024  0.00  0.00    +0.000 C 
BRANCH  18  19
ATOM     19  N   UNL     1       2.325   7.240  18.889  0.00  0.00    +0.000 N 
ATOM     20  C   UNL     1       3.224   6.214  19.054  0.00  0.00    +0.000 C 
ATOM     21  O   UNL     1       3.464   5.696  20.138  0.00  0.00    +0.000 OA
ATOM     22  H   UNL     1       2.218   7.698  17.995  0.00  0.00    +0.000 HD
BRANCH  20  23
ATOM     23  C   UNL     1       3.943   5.780  17.835  0.00  0.00    +0.000 A 
ATOM     24  C   UNL     1       4.578   6.762  17.074  0.00  0.00    +0.000 A 
ATOM     25  C   UNL     1       5.249   6.413  15.903  0.00  0.00    +0.000 A 
ATOM     26  C   UNL     1       5.315   5.076  15.469  0.00  0.00    +0.000 A 
ATOM     27  C   UNL     1       4.668   4.102  16.253  0.00  0.00    +0.000 A 
ATOM     28  C   UNL     1       3.996   4.444  17.428  0.00  0.00    +0.000 A 
BRANCH  26  29
ATOM     29  C   UNL     1       6.028   4.696  14.241  0.00  0.00    +0.000 A 
ATOM     30  C   UNL     1       5.541   3.727  13.364  0.00  0.00    +0.000 A 
ATOM     31  C   UNL     1       6.276   3.405  12.227  0.00  0.00    +0.000 A 
ATOM     32  C   UNL     1       7.475   4.062  11.988  0.00  0.00    +0.000 A 
ATOM     33  C   UNL     1       7.884   5.019  12.894  0.00  0.00    +0.000 A 
ATOM     34  N   UNL     1       7.196   5.351  14.005  0.00  0.00    +0.000 NA
ENDBRANCH  26  29
ENDBRANCH  20  23
ENDBRANCH  18  19
ENDBRANCH   1  18
TORSDOF 9
ENDMDL
MODEL 5
REMARK VINA RESULT:      -7.7      7.740     11.456
REMARK  Name = 
REMARK  10 active torsions:
REMARK  status: ('A' for Active; 'I' for Inactive)
REMARK    1  A    between atoms: C_1  and  O_2
REMARK    2  A    between atoms: O_2  and  C_3
REMARK    3  A    between atoms: C_8  and  N_9
REMARK    4  A    between atoms: N_12  and  C_13
REMARK    5  A    between atoms: C_13  and  C_14
REMARK    6  A    between atoms: C_14  and  C_15
REMARK    7  A    between atoms: C_15  and  C_16
REMARK    8  A    between atoms: C_16  and  N_17
REMARK    9  A    between atoms: C_18  and  C_20
REMARK   10  A    between atoms: C_23  and  C_24
REMARK                            x       y       z     vdW  Elec       q    Type
REMARK                         _______ _______ _______ _____ _____    ______ ____
ROOT
ATOM      1  C   UNL     1       8.925  10.152  18.678  0.00  0.00    +0.000 C 
ENDROOT
BRANCH   1   2
ATOM      2  C   UNL     1       9.120  11.544  18.089  0.00  0.00    +0.000 C 
BRANCH   2   3
ATOM      3  C   UNL     1      10.599  11.883  17.915  0.00  0.00    +0.000 C 
BRANCH   3   7
ATOM      4  N   UNL     1      11.239  15.069  19.585  0.00  0.00    +0.000 N 
ATOM      5  C   UNL     1       9.892  14.561  19.329  0.00  0.00    +0.000 C 
ATOM      6  C   UNL     1       9.792  14.223  17.837  0.00  0.00    +0.000 C 
ATOM      7  N   UNL     1      10.818  13.249  17.408  0.00  0.00    +0.000 NA
ATOM      8  C   UNL     1      12.165  13.744  17.738  0.00  0.00    +0.000 C 
ATOM      9  C   UNL     1      12.333  14.163  19.209  0.00  0.00    +0.000 C 
BRANCH   4  15
ATOM     10  C   UNL     1      11.971  17.446  19.668  0.00  0.00    +0.000 A 
ATOM     11  C   UNL     1      12.210  18.589  20.446  0.00  0.00    +0.000 A 
ATOM     12  C   UNL     1      11.943  18.603  21.811  0.00  0.00    +0.000 A 
ATOM     13  C   UNL     1      11.434  17.468  22.415  0.00  0.00    +0.000 A 
ATOM     14  C   UNL     1      11.197  16.324  21.650  0.00  0.00    +0.000 A 
ATOM     15  C   UNL     1      11.465  16.259  20.265  0.00  0.00    +0.000 A 
BRANCH  10  17
ATOM     16  C   UNL     1      11.302  17.827  17.423  0.00  0.00    +0.000 C 
ATOM     17  O   UNL     1      12.327  17.431  18.334  0.00  0.00    +0.000 OA
ENDBRANCH  10  17
ENDBRANCH   4  15
ENDBRANCH   3   7
ENDBRANCH   2   3
ENDBRANCH   1   2
BRANCH   1  18
ATOM     18  C   UNL     1       8.565   9.175  17.578  0.00  0.00    +0.000 C 
BRANCH  18  19
ATOM     19  N   UNL     1       7.459   8.345  17.971  0.00  0.00    +0.000 N 
ATOM     20  C   UNL     1       7.198   7.179  17.293  0.00  0.00    +0.000 C 
ATOM     21  O   UNL     1       7.872   6.782  16.350  0.00  0.00    +0.000 OA
ATOM     22  H   UNL     1       6.831   8.681  18.687  0.00  0.00    +0.000 HD
BRANCH  20  23
ATOM     23  C   UNL     1       6.005   6.423  17.738  0.00  0.00    +0.000 A 
ATOM     24  C   UNL     1       6.211   5.323  18.572  0.00  0.00    +0.000 A 
ATOM     25  C   UNL     1       5.126   4.560  19.001  0.00  0.00    +0.000 A 
ATOM     26  C   UNL     1       3.810   4.881  18.620  0.00  0.00    +0.000 A 
ATOM     27  C   UNL     1       3.627   5.995  17.779  0.00  0.00    +0.000 A 
ATOM     28  C   UNL     1       4.708   6.766  17.347  0.00  0.00    +0.000 A 
BRANCH  26  29
ATOM     29  C   UNL     1       2.657   4.089  19.075  0.00  0.00    +0.000 A 
ATOM     30  C   UNL     1       1.960   3.230  18.225  0.00  0.00    +0.000 A 
ATOM     31  C   UNL     1       0.869   2.521  18.719  0.00  0.00    +0.000 A 
ATOM     32  C   UNL     1       0.505   2.681  20.048  0.00  0.00    +0.000 A 
ATOM     33  C   UNL     1       1.252   3.537  20.829  0.00  0.00    +0.000 A 
ATOM     34  N   UNL     1       2.311   4.240  20.381  0.00  0.00    +0.000 NA
ENDBRANCH  26  29
ENDBRANCH  20  23
ENDBRANCH  18  19
ENDBRANCH   1  18
TORSDOF 9
ENDMDL
MODEL 6
REMARK VINA RESULT:      -7.5      3.150     11.540
REMARK  Name = 
REMARK  10 active torsions:
REMARK  status: ('A' for Active; 'I' for Inactive)
REMARK    1  A    between atoms: C_1  and  O_2
REMARK    2  A    between atoms: O_2  and  C_3
REMARK    3  A    between atoms: C_8  and  N_9
REMARK    4  A    between atoms: N_12  and  C_13
REMARK    5  A    between atoms: C_13  and  C_14
REMARK    6  A    between atoms: C_14  and  C_15
REMARK    7  A    between atoms: C_15  and  C_16
REMARK    8  A    between atoms: C_16  and  N_17
REMARK    9  A    between atoms: C_18  and  C_20
REMARK   10  A    between atoms: C_23  and  C_24
REMARK                            x       y       z     vdW  Elec       q    Type
REMARK                         _______ _______ _______ _____ _____    ______ ____
ROOT
ATOM      1  C   UNL     1       1.794  12.646  20.206  0.00  0.00    +0.000 C 
ENDROOT
BRANCH   1   2
ATOM      2  C   UNL     1       1.307  13.843  21.014  0.00  0.00    +0.000 C 
BRANCH   2   3
ATOM      3  C   UNL     1      -0.202  14.037  20.886  0.00  0.00    +0.000 C 
BRANCH   3   7
ATOM      4  N   UNL     1      -3.604  13.252  21.962  0.00  0.00    +0.000 N 
ATOM      5  C   UNL     1      -3.223  14.553  21.414  0.00  0.00    +0.000 C 
ATOM      6  C   UNL     1      -2.021  15.067  22.214  0.00  0.00    +0.000 C 
ATOM      7  N   UNL     1      -0.881  14.126  22.190  0.00  0.00    +0.000 NA
ATOM      8  C   UNL     1      -1.301  12.801  22.678  0.00  0.00    +0.000 C 
ATOM      9  C   UNL     1      -2.542  12.237  21.965  0.00  0.00    +0.000 C 
BRANCH   4  15
ATOM     10  C   UNL     1      -5.903  12.463  21.425  0.00  0.00    +0.000 A 
ATOM     11  C   UNL     1      -7.214  12.233  21.868  0.00  0.00    +0.000 A 
ATOM     12  C   UNL     1      -7.579  12.458  23.191  0.00  0.00    +0.000 A 
ATOM     13  C   UNL     1      -6.633  12.919  24.088  0.00  0.00    +0.000 A 
ATOM     14  C   UNL     1      -5.326  13.156  23.655  0.00  0.00    +0.000 A 
ATOM     15  C   UNL     1      -4.913  12.954  22.320  0.00  0.00    +0.000 A 
BRANCH  10  17
ATOM     16  C   UNL     1      -6.345  13.126  19.189  0.00  0.00    +0.000 C 
ATOM     17  O   UNL     1      -5.589  12.315  20.088  0.00  0.00    +0.000 OA
ENDBRANCH  10  17
ENDBRANCH   4  15
ENDBRANCH   3   7
ENDBRANCH   2   3
ENDBRANCH   1   2
BRANCH   1  18
ATOM     18  C   UNL     1       0.609  11.897  19.634  0.00  0.00    +0.000 C 
BRANCH  18  19
ATOM     19  N   UNL     1       0.958  10.534  19.335  0.00  0.00    +0.000 N 
ATOM     20  C   UNL     1       1.118   9.626  20.352  0.00  0.00    +0.000 C 
ATOM     21  O   UNL     1       0.971   9.905  21.537  0.00  0.00    +0.000 OA
ATOM     22  H   UNL     1       1.171  10.287  18.379  0.00  0.00    +0.000 HD
BRANCH  20  23
ATOM     23  C   UNL     1       1.532   8.263  19.946  0.00  0.00    +0.000 A 
ATOM     24  C   UNL     1       1.342   7.229  20.864  0.00  0.00    +0.000 A 
ATOM     25  C   UNL     1       1.736   5.931  20.544  0.00  0.00    +0.000 A 
ATOM     26  C   UNL     1       2.317   5.629  19.299  0.00  0.00    +0.000 A 
ATOM     27  C   UNL     1       2.498   6.687  18.389  0.00  0.00    +0.000 A 
ATOM     28  C   UNL     1       2.103   7.990  18.700  0.00  0.00    +0.000 A 
BRANCH  26  29
ATOM     29  C   UNL     1       2.727   4.261  18.947  0.00  0.00    +0.000 A 
ATOM     30  C   UNL     1       2.140   3.552  17.899  0.00  0.00    +0.000 A 
ATOM     31  C   UNL     1       2.566   2.255  17.631  0.00  0.00    +0.000 A 
ATOM     32  C   UNL     1       3.572   1.699  18.409  0.00  0.00    +0.000 A 
ATOM     33  C   UNL     1       4.113   2.468  19.419  0.00  0.00    +0.000 A 
ATOM     34  N   UNL     1       3.720   3.725  19.706  0.00  0.00    +0.000 NA
ENDBRANCH  26  29
ENDBRANCH  20  23
ENDBRANCH  18  19
ENDBRANCH   1  18
TORSDOF 9
ENDMDL
MODEL 7
REMARK VINA RESULT:      -7.4      3.598     10.476
REMARK  Name = 
REMARK  10 active torsions:
REMARK  status: ('A' for Active; 'I' for Inactive)
REMARK    1  A    between atoms: C_1  and  O_2
REMARK    2  A    between atoms: O_2  and  C_3
REMARK    3  A    between atoms: C_8  and  N_9
REMARK    4  A    between atoms: N_12  and  C_13
REMARK    5  A    between atoms: C_13  and  C_14
REMARK    6  A    between atoms: C_14  and  C_15
REMARK    7  A    between atoms: C_15  and  C_16
REMARK    8  A    between atoms: C_16  and  N_17
REMARK    9  A    between atoms: C_18  and  C_20
REMARK   10  A    between atoms: C_23  and  C_24
REMARK                            x       y       z     vdW  Elec       q    Type
REMARK                         _______ _______ _______ _____ _____    ______ ____
ROOT
ATOM      1  C   UNL     1      -0.206   8.473  21.226  0.00  0.00    +0.000 C 
ENDROOT
BRANCH   1   2
ATOM      2  C   UNL     1      -0.284   9.787  20.456  0.00  0.00    +0.000 C 
BRANCH   2   3
ATOM      3  C   UNL     1       0.266  10.954  21.273  0.00  0.00    +0.000 C 
BRANCH   3   7
ATOM      4  N   UNL     1       1.304  13.926  19.417  0.00  0.00    +0.000 N 
ATOM      5  C   UNL     1       1.588  13.735  20.839  0.00  0.00    +0.000 C 
ATOM      6  C   UNL     1       0.266  13.415  21.544  0.00  0.00    +0.000 C 
ATOM      7  N   UNL     1      -0.408  12.230  20.974  0.00  0.00    +0.000 NA
ATOM      8  C   UNL     1      -0.622  12.408  19.528  0.00  0.00    +0.000 C 
ATOM      9  C   UNL     1       0.650  12.791  18.751  0.00  0.00    +0.000 C 
BRANCH   4  15
ATOM     10  C   UNL     1       1.037  16.265  18.612  0.00  0.00    +0.000 A 
ATOM     11  C   UNL     1       1.546  17.322  17.842  0.00  0.00    +0.000 A 
ATOM     12  C   UNL     1       2.762  17.211  17.177  0.00  0.00    +0.000 A 
ATOM     13  C   UNL     1       3.485  16.036  17.274  0.00  0.00    +0.000 A 
ATOM     14  C   UNL     1       2.985  14.976  18.034  0.00  0.00    +0.000 A 
ATOM     15  C   UNL     1       1.749  15.039  18.716  0.00  0.00    +0.000 A 
BRANCH  10  17
ATOM     16  C   UNL     1      -0.966  17.522  18.813  0.00  0.00    +0.000 C 
ATOM     17  O   UNL     1      -0.213  16.370  19.190  0.00  0.00    +0.000 OA
ENDBRANCH  10  17
ENDBRANCH   4  15
ENDBRANCH   3   7
ENDBRANCH   2   3
ENDBRANCH   1   2
BRANCH   1  18
ATOM     18  C   UNL     1       1.226   8.205  21.639  0.00  0.00    +0.000 C 
BRANCH  18  19
ATOM     19  N   UNL     1       2.001   7.726  20.526  0.00  0.00    +0.000 N 
ATOM     20  C   UNL     1       2.065   6.381  20.260  0.00  0.00    +0.000 C 
ATOM     21  O   UNL     1       1.481   5.532  20.924  0.00  0.00    +0.000 OA
ATOM     22  H   UNL     1       2.565   8.386  20.009  0.00  0.00    +0.000 HD
BRANCH  20  23
ATOM     23  C   UNL     1       2.933   5.984  19.127  0.00  0.00    +0.000 A 
ATOM     24  C   UNL     1       3.382   6.992  18.273  0.00  0.00    +0.000 A 
ATOM     25  C   UNL     1       4.181   6.673  17.176  0.00  0.00    +0.000 A 
ATOM     26  C   UNL     1       4.561   5.344  16.911  0.00  0.00    +0.000 A 
ATOM     27  C   UNL     1       4.097   4.344  17.787  0.00  0.00    +0.000 A 
ATOM     28  C   UNL     1       3.298   4.656  18.889  0.00  0.00    +0.000 A 
BRANCH  26  29
ATOM     29  C   UNL     1       5.412   4.998  15.763  0.00  0.00    +0.000 A 
ATOM     30  C   UNL     1       6.752   5.379  15.685  0.00  0.00    +0.000 A 
ATOM     31  C   UNL     1       7.495   5.030  14.561  0.00  0.00    +0.000 A 
ATOM     32  C   UNL     1       6.887   4.303  13.547  0.00  0.00    +0.000 A 
ATOM     33  C   UNL     1       5.563   3.951  13.704  0.00  0.00    +0.000 A 
ATOM     34  N   UNL     1       4.815   4.276  14.778  0.00  0.00    +0.000 NA
ENDBRANCH  26  29
ENDBRANCH  20  23
ENDBRANCH  18  19
ENDBRANCH   1  18
TORSDOF 9
ENDMDL
MODEL 8
REMARK VINA RESULT:      -7.4      6.417     11.207
REMARK  Name = 
REMARK  10 active torsions:
REMARK  status: ('A' for Active; 'I' for Inactive)
REMARK    1  A    between atoms: C_1  and  O_2
REMARK    2  A    between atoms: O_2  and  C_3
REMARK    3  A    between atoms: C_8  and  N_9
REMARK    4  A    between atoms: N_12  and  C_13
REMARK    5  A    between atoms: C_13  and  C_14
REMARK    6  A    between atoms: C_14  and  C_15
REMARK    7  A    between atoms: C_15  and  C_16
REMARK    8  A    between atoms: C_16  and  N_17
REMARK    9  A    between atoms: C_18  and  C_20
REMARK   10  A    between atoms: C_23  and  C_24
REMARK                            x       y       z     vdW  Elec       q    Type
REMARK                         _______ _______ _______ _____ _____    ______ ____
ROOT
ATOM      1  C   UNL     1       8.959  10.375  18.822  0.00  0.00    +0.000 C 
ENDROOT
BRANCH   1   2
ATOM      2  C   UNL     1      10.111  11.284  18.408  0.00  0.00    +0.000 C 
BRANCH   2   3
ATOM      3  C   UNL     1       9.608  12.584  17.784  0.00  0.00    +0.000 C 
BRANCH   3   7
ATOM      4  N   UNL     1       8.032  15.409  19.484  0.00  0.00    +0.000 N 
ATOM      5  C   UNL     1       8.266  15.378  18.041  0.00  0.00    +0.000 C 
ATOM      6  C   UNL     1       9.747  15.057  17.811  0.00  0.00    +0.000 C 
ATOM      7  N   UNL     1      10.155  13.784  18.443  0.00  0.00    +0.000 NA
ATOM      8  C   UNL     1       9.846  13.804  19.883  0.00  0.00    +0.000 C 
ATOM      9  C   UNL     1       8.388  14.178  20.204  0.00  0.00    +0.000 C 
BRANCH   4  15
ATOM     10  C   UNL     1       7.950  17.257  21.148  0.00  0.00    +0.000 A 
ATOM     11  C   UNL     1       7.204  18.281  21.751  0.00  0.00    +0.000 A 
ATOM     12  C   UNL     1       5.907  18.569  21.338  0.00  0.00    +0.000 A 
ATOM     13  C   UNL     1       5.340  17.830  20.315  0.00  0.00    +0.000 A 
ATOM     14  C   UNL     1       6.073  16.805  19.713  0.00  0.00    +0.000 A 
ATOM     15  C   UNL     1       7.387  16.469  20.107  0.00  0.00    +0.000 A 
BRANCH  10  17
ATOM     16  C   UNL     1       9.827  17.944  22.429  0.00  0.00    +0.000 C 
ATOM     17  O   UNL     1       9.201  16.935  21.636  0.00  0.00    +0.000 OA
ENDBRANCH  10  17
ENDBRANCH   4  15
ENDBRANCH   3   7
ENDBRANCH   2   3
ENDBRANCH   1   2
BRANCH   1  18
ATOM     18  C   UNL     1       8.560   9.490  17.660  0.00  0.00    +0.000 C 
BRANCH  18  19
ATOM     19  N   UNL     1       7.515   8.579  18.043  0.00  0.00    +0.000 N 
ATOM     20  C   UNL     1       7.346   7.399  17.361  0.00  0.00    +0.000 C 
ATOM     21  O   UNL     1       8.054   7.056  16.421  0.00  0.00    +0.000 OA
ATOM     22  H   UNL     1       6.859   8.866  18.755  0.00  0.00    +0.000 HD
BRANCH  20  23
ATOM     23  C   UNL     1       6.210   6.555  17.796  0.00  0.00    +0.000 A 
ATOM     24  C   UNL     1       4.993   6.718  17.132  0.00  0.00    +0.000 A 
ATOM     25  C   UNL     1       3.883   5.968  17.516  0.00  0.00    +0.000 A 
ATOM     26  C   UNL     1       3.961   5.030  18.562  0.00  0.00    +0.000 A 
ATOM     27  C   UNL     1       5.198   4.883  19.217  0.00  0.00    +0.000 A 
ATOM     28  C   UNL     1       6.315   5.629  18.836  0.00  0.00    +0.000 A 
BRANCH  26  29
ATOM     29  C   UNL     1       2.798   4.226  18.968  0.00  0.00    +0.000 A 
ATOM     30  C   UNL     1       2.045   4.524  20.103  0.00  0.00    +0.000 A 
ATOM     31  C   UNL     1       0.966   3.711  20.438  0.00  0.00    +0.000 A 
ATOM     32  C   UNL     1       0.660   2.627  19.628  0.00  0.00    +0.000 A 
ATOM     33  C   UNL     1       1.443   2.405  18.515  0.00  0.00    +0.000 A 
ATOM     34  N   UNL     1       2.496   3.171  18.165  0.00  0.00    +0.000 NA
ENDBRANCH  26  29
ENDBRANCH  20  23
ENDBRANCH  18  19
ENDBRANCH   1  18
TORSDOF 9
ENDMDL
MODEL 9
REMARK VINA RESULT:      -7.3      1.578      2.670
REMARK  Name = 
REMARK  10 active torsions:
REMARK  status: ('A' for Active; 'I' for Inactive)
REMARK    1  A    between atoms: C_1  and  O_2
REMARK    2  A    between atoms: O_2  and  C_3
REMARK    3  A    between atoms: C_8  and  N_9
REMARK    4  A    between atoms: N_12  and  C_13
REMARK    5  A    between atoms: C_13  and  C_14
REMARK    6  A    between atoms: C_14  and  C_15
REMARK    7  A    between atoms: C_15  and  C_16
REMARK    8  A    between atoms: C_16  and  N_17
REMARK    9  A    between atoms: C_18  and  C_20
REMARK   10  A    between atoms: C_23  and  C_24
REMARK                            x       y       z     vdW  Elec       q    Type
REMARK                         _______ _______ _______ _____ _____    ______ ____
ROOT
ATOM      1  C   UNL     1       1.257   5.874  21.032  0.00  0.00    +0.000 C 
ENDROOT
BRANCH   1   2
ATOM      2  C   UNL     1       2.132   4.825  20.356  0.00  0.00    +0.000 C 
BRANCH   2   3
ATOM      3  C   UNL     1       1.346   3.558  20.029  0.00  0.00    +0.000 C 
BRANCH   3   7
ATOM      4  N   UNL     1       4.077   4.146  17.674  0.00  0.00    +0.000 N 
ATOM      5  C   UNL     1       2.887   4.994  17.742  0.00  0.00    +0.000 C 
ATOM      6  C   UNL     1       1.656   4.088  17.630  0.00  0.00    +0.000 C 
ATOM      7  N   UNL     1       1.625   3.044  18.676  0.00  0.00    +0.000 NA
ATOM      8  C   UNL     1       2.861   2.245  18.640  0.00  0.00    +0.000 C 
ATOM      9  C   UNL     1       4.150   3.085  18.688  0.00  0.00    +0.000 C 
BRANCH   4  15
ATOM     10  C   UNL     1       6.207   5.293  17.093  0.00  0.00    +0.000 A 
ATOM     11  C   UNL     1       7.203   5.537  16.135  0.00  0.00    +0.000 A 
ATOM     12  C   UNL     1       7.177   4.914  14.891  0.00  0.00    +0.000 A 
ATOM     13  C   UNL     1       6.148   4.039  14.592  0.00  0.00    +0.000 A 
ATOM     14  C   UNL     1       5.150   3.794  15.537  0.00  0.00    +0.000 A 
ATOM     15  C   UNL     1       5.128   4.413  16.806  0.00  0.00    +0.000 A 
BRANCH  10  17
ATOM     16  C   UNL     1       7.217   5.602  19.219  0.00  0.00    +0.000 C 
ATOM     17  O   UNL     1       6.210   5.991  18.285  0.00  0.00    +0.000 OA
ENDBRANCH  10  17
ENDBRANCH   4  15
ENDBRANCH   3   7
ENDBRANCH   2   3
ENDBRANCH   1   2
BRANCH   1  18
ATOM     18  C   UNL     1       1.768   7.261  20.701  0.00  0.00    +0.000 C 
BRANCH  18  19
ATOM     19  N   UNL     1       0.854   8.269  21.166  0.00  0.00    +0.000 N 
ATOM     20  C   UNL     1       0.666   9.417  20.436  0.00  0.00    +0.000 C 
ATOM     21  O   UNL     1       1.237   9.644  19.375  0.00  0.00    +0.000 OA
ATOM     22  H   UNL     1       0.431   8.157  22.077  0.00  0.00    +0.000 HD
BRANCH  20  23
ATOM     23  C   UNL     1      -0.252  10.418  21.026  0.00  0.00    +0.000 A 
ATOM     24  C   UNL     1      -0.401  10.420  22.413  0.00  0.00    +0.000 A 
ATOM     25  C   UNL     1      -1.271  11.324  23.021  0.00  0.00    +0.000 A 
ATOM     26  C   UNL     1      -2.004  12.255  22.262  0.00  0.00    +0.000 A 
ATOM     27  C   UNL     1      -1.837  12.235  20.865  0.00  0.00    +0.000 A 
ATOM     28  C   UNL     1      -0.966  11.334  20.249  0.00  0.00    +0.000 A 
BRANCH  26  29
ATOM     29  C   UNL     1      -2.916  13.220  22.894  0.00  0.00    +0.000 A 
ATOM     30  C   UNL     1      -2.506  14.076  23.916  0.00  0.00    +0.000 A 
ATOM     31  C   UNL     1      -3.427  14.955  24.479  0.00  0.00    +0.000 A 
ATOM     32  C   UNL     1      -4.731  14.963  24.004  0.00  0.00    +0.000 A 
ATOM     33  C   UNL     1      -5.057  14.097  22.982  0.00  0.00    +0.000 A 
ATOM     34  N   UNL     1      -4.190  13.233  22.417  0.00  0.00    +0.000 NA
ENDBRANCH  26  29
ENDBRANCH  20  23
ENDBRANCH  18  19
ENDBRANCH   1  18
TORSDOF 9
ENDMDL
