MODEL 1
REMARK VINA RESULT:      -7.2      0.000      0.000
REMARK  Name = 
REMARK  6 active torsions:
REMARK  status: ('A' for Active; 'I' for Inactive)
REMARK    1  A    between atoms: C_1  and  C_2
REMARK    2  A    between atoms: C_2  and  N_3
REMARK    3  A    between atoms: N_3  and  C_15
REMARK    4  A    between atoms: N_6  and  C_7
REMARK    5  A    between atoms: N_6  and  C_9
REMARK    6  A    between atoms: C_7  and  C_8
REMARK                            x       y       z     vdW  Elec       q    Type
REMARK                         _______ _______ _______ _____ _____    ______ ____
ROOT
ATOM      1  N   UNL     1       4.358   4.639  18.396  0.00  0.00    +0.000 N 
ATOM      2  C   UNL     1       3.702   5.870  18.617  0.00  0.00    +0.000 C 
ATOM      3  O   UNL     1       3.997   6.846  17.906  0.00  0.00    +0.000 OA
ATOM      4  N   UNL     1       2.661   6.010  19.559  0.00  0.00    +0.000 N 
ENDROOT
BRANCH   4   5
ATOM      5  C   UNL     1       2.071   7.328  19.673  0.00  0.00    +0.000 A 
ATOM      6  C   UNL     1       1.915   8.135  18.539  0.00  0.00    +0.000 A 
ATOM      7  C   UNL     1       1.299   9.387  18.635  0.00  0.00    +0.000 A 
ATOM      8  C   UNL     1       0.816   9.834  19.863  0.00  0.00    +0.000 A 
ATOM      9  C   UNL     1       0.955   9.038  20.996  0.00  0.00    +0.000 A 
ATOM     10  C   UNL     1       1.584   7.790  20.901  0.00  0.00    +0.000 A 
ENDBRANCH   4   5
BRANCH   1  11
ATOM     11  C   UNL     1       5.256   4.583  17.266  0.00  0.00    +0.000 A 
ATOM     12  C   UNL     1       4.771   4.357  15.970  0.00  0.00    +0.000 A 
ATOM     13  C   UNL     1       5.645   4.294  14.879  0.00  0.00    +0.000 A 
ATOM     14  C   UNL     1       7.017   4.448  15.070  0.00  0.00    +0.000 A 
ATOM     15  C   UNL     1       7.515   4.648  16.354  0.00  0.00    +0.000 A 
ATOM     16  C   UNL     1       6.640   4.702  17.447  0.00  0.00    +0.000 A 
ENDBRANCH   1  11
BRANCH   1  18
ATOM     17  C   UNL     1       3.470   2.174  18.460  0.00  0.00    +0.000 C 
ATOM     18  C   UNL     1       4.117   3.390  19.119  0.00  0.00    +0.000 C 
ENDBRANCH   1  18
BRANCH   4  19
ATOM     19  C   UNL     1       2.189   5.113  20.644  0.00  0.00    +0.000 C 
ATOM     20  C   UNL     1       0.955   4.271  20.342  0.00  0.00    +0.000 C 
ENDBRANCH   4  19
TORSDOF 4
ENDMDL
MODEL 2
REMARK VINA RESULT:      -7.1      0.221      1.099
REMARK  Name = 
REMARK  6 active torsions:
REMARK  status: ('A' for Active; 'I' for Inactive)
REMARK    1  A    between atoms: C_1  and  C_2
REMARK    2  A    between atoms: C_2  and  N_3
REMARK    3  A    between atoms: N_3  and  C_15
REMARK    4  A    between atoms: N_6  and  C_7
REMARK    5  A    between atoms: N_6  and  C_9
REMARK    6  A    between atoms: C_7  and  C_8
REMARK                            x       y       z     vdW  Elec       q    Type
REMARK                         _______ _______ _______ _____ _____    ______ ____
ROOT
ATOM      1  N   UNL     1       4.408   4.582  18.172  0.00  0.00    +0.000 N 
ATOM      2  C   UNL     1       3.752   5.806  18.433  0.00  0.00    +0.000 C 
ATOM      3  O   UNL     1       4.025   6.796  17.734  0.00  0.00    +0.000 OA
ATOM      4  N   UNL     1       2.734   5.921  19.403  0.00  0.00    +0.000 N 
ENDROOT
BRANCH   4   5
ATOM      5  C   UNL     1       2.141   7.234  19.557  0.00  0.00    +0.000 A 
ATOM      6  C   UNL     1       1.970   8.069  18.447  0.00  0.00    +0.000 A 
ATOM      7  C   UNL     1       1.350   9.316  18.581  0.00  0.00    +0.000 A 
ATOM      8  C   UNL     1       0.879   9.729  19.825  0.00  0.00    +0.000 A 
ATOM      9  C   UNL     1       1.033   8.904  20.936  0.00  0.00    +0.000 A 
ATOM     10  C   UNL     1       1.665   7.661  20.802  0.00  0.00    +0.000 A 
ENDBRANCH   4   5
BRANCH   1  11
ATOM     11  C   UNL     1       5.279   4.553  17.020  0.00  0.00    +0.000 A 
ATOM     12  C   UNL     1       6.659   4.760  17.154  0.00  0.00    +0.000 A 
ATOM     13  C   UNL     1       7.499   4.740  16.034  0.00  0.00    +0.000 A 
ATOM     14  C   UNL     1       6.968   4.519  14.765  0.00  0.00    +0.000 A 
ATOM     15  C   UNL     1       5.597   4.336  14.613  0.00  0.00    +0.000 A 
ATOM     16  C   UNL     1       4.756   4.365  15.733  0.00  0.00    +0.000 A 
ENDBRANCH   1  11
BRANCH   1  18
ATOM     17  C   UNL     1       3.428   2.153  18.251  0.00  0.00    +0.000 C 
ATOM     18  C   UNL     1       4.191   3.318  18.876  0.00  0.00    +0.000 C 
ENDBRANCH   1  18
BRANCH   4  19
ATOM     19  C   UNL     1       2.293   5.001  20.482  0.00  0.00    +0.000 C 
ATOM     20  C   UNL     1       1.012   4.217  20.224  0.00  0.00    +0.000 C 
ENDBRANCH   4  19
TORSDOF 4
ENDMDL
MODEL 3
REMARK VINA RESULT:      -7.1      0.083      1.526
REMARK  Name = 
REMARK  6 active torsions:
REMARK  status: ('A' for Active; 'I' for Inactive)
REMARK    1  A    between atoms: C_1  and  C_2
REMARK    2  A    between atoms: C_2  and  N_3
REMARK    3  A    between atoms: N_3  and  C_15
REMARK    4  A    between atoms: N_6  and  C_7
REMARK    5  A    between atoms: N_6  and  C_9
REMARK    6  A    between atoms: C_7  and  C_8
REMARK                            x       y       z     vdW  Elec       q    Type
REMARK                         _______ _______ _______ _____ _____    ______ ____
ROOT
ATOM      1  N   UNL     1       4.356   4.592  18.462  0.00  0.00    +0.000 N 
ATOM      2  C   UNL     1       3.671   5.813  18.651  0.00  0.00    +0.000 C 
ATOM      3  O   UNL     1       3.950   6.778  17.921  0.00  0.00    +0.000 OA
ATOM      4  N   UNL     1       2.620   5.949  19.582  0.00  0.00    +0.000 N 
ENDROOT
BRANCH   4   5
ATOM      5  C   UNL     1       2.001   7.257  19.663  0.00  0.00    +0.000 A 
ATOM      6  C   UNL     1       1.551   7.754  20.892  0.00  0.00    +0.000 A 
ATOM      7  C   UNL     1       1.002   9.037  20.984  0.00  0.00    +0.000 A 
ATOM      8  C   UNL     1       0.913   9.840  19.849  0.00  0.00    +0.000 A 
ATOM      9  C   UNL     1       1.366   9.363  18.623  0.00  0.00    +0.000 A 
ATOM     10  C   UNL     1       1.905   8.073  18.530  0.00  0.00    +0.000 A 
ENDBRANCH   4   5
BRANCH   1  11
ATOM     11  C   UNL     1       5.264   4.530  17.341  0.00  0.00    +0.000 A 
ATOM     12  C   UNL     1       6.643   4.715  17.519  0.00  0.00    +0.000 A 
ATOM     13  C   UNL     1       7.519   4.665  16.429  0.00  0.00    +0.000 A 
ATOM     14  C   UNL     1       7.028   4.435  15.145  0.00  0.00    +0.000 A 
ATOM     15  C   UNL     1       5.659   4.274  14.950  0.00  0.00    +0.000 A 
ATOM     16  C   UNL     1       4.782   4.334  16.040  0.00  0.00    +0.000 A 
ENDBRANCH   1  11
BRANCH   1  18
ATOM     17  C   UNL     1       3.514   2.113  18.577  0.00  0.00    +0.000 C 
ATOM     18  C   UNL     1       4.137   3.354  19.211  0.00  0.00    +0.000 C 
ENDBRANCH   1  18
BRANCH   4  19
ATOM     19  C   UNL     1       2.160   5.067  20.684  0.00  0.00    +0.000 C 
ATOM     20  C   UNL     1       0.947   4.191  20.390  0.00  0.00    +0.000 C 
ENDBRANCH   4  19
TORSDOF 4
ENDMDL
MODEL 4
REMARK VINA RESULT:      -7.1      0.095      1.082
REMARK  Name = 
REMARK  6 active torsions:
REMARK  status: ('A' for Active; 'I' for Inactive)
REMARK    1  A    between atoms: C_1  and  C_2
REMARK    2  A    between atoms: C_2  and  N_3
REMARK    3  A    between atoms: N_3  and  C_15
REMARK    4  A    between atoms: N_6  and  C_7
REMARK    5  A    between atoms: N_6  and  C_9
REMARK    6  A    between atoms: C_7  and  C_8
REMARK                            x       y       z     vdW  Elec       q    Type
REMARK                         _______ _______ _______ _____ _____    ______ ____
ROOT
ATOM      1  N   UNL     1       4.336   4.647  18.485  0.00  0.00    +0.000 N 
ATOM      2  C   UNL     1       3.652   5.868  18.678  0.00  0.00    +0.000 C 
ATOM      3  O   UNL     1       3.935   6.837  17.953  0.00  0.00    +0.000 OA
ATOM      4  N   UNL     1       2.599   6.002  19.607  0.00  0.00    +0.000 N 
ENDROOT
BRANCH   4   5
ATOM      5  C   UNL     1       1.981   7.309  19.692  0.00  0.00    +0.000 A 
ATOM      6  C   UNL     1       1.518   7.797  20.920  0.00  0.00    +0.000 A 
ATOM      7  C   UNL     1       0.969   9.079  21.017  0.00  0.00    +0.000 A 
ATOM      8  C   UNL     1       0.896   9.893  19.888  0.00  0.00    +0.000 A 
ATOM      9  C   UNL     1       1.361   9.425  18.663  0.00  0.00    +0.000 A 
ATOM     10  C   UNL     1       1.900   8.136  18.565  0.00  0.00    +0.000 A 
ENDBRANCH   4   5
BRANCH   1  11
ATOM     11  C   UNL     1       5.247   4.590  17.366  0.00  0.00    +0.000 A 
ATOM     12  C   UNL     1       4.778   4.362  16.065  0.00  0.00    +0.000 A 
ATOM     13  C   UNL     1       5.664   4.298  14.984  0.00  0.00    +0.000 A 
ATOM     14  C   UNL     1       7.033   4.454  15.191  0.00  0.00    +0.000 A 
ATOM     15  C   UNL     1       7.517   4.657  16.480  0.00  0.00    +0.000 A 
ATOM     16  C   UNL     1       6.629   4.712  17.562  0.00  0.00    +0.000 A 
ENDBRANCH   1  11
BRANCH   1  18
ATOM     17  C   UNL     1       3.565   2.144  18.567  0.00  0.00    +0.000 C 
ATOM     18  C   UNL     1       4.114   3.406  19.228  0.00  0.00    +0.000 C 
ENDBRANCH   1  18
BRANCH   4  19
ATOM     19  C   UNL     1       2.135   5.115  20.703  0.00  0.00    +0.000 C 
ATOM     20  C   UNL     1       0.953   4.205  20.386  0.00  0.00    +0.000 C 
ENDBRANCH   4  19
TORSDOF 4
ENDMDL
MODEL 5
REMARK VINA RESULT:      -7.0      0.138      6.036
REMARK  Name = 
REMARK  6 active torsions:
REMARK  status: ('A' for Active; 'I' for Inactive)
REMARK    1  A    between atoms: C_1  and  C_2
REMARK    2  A    between atoms: C_2  and  N_3
REMARK    3  A    between atoms: N_3  and  C_15
REMARK    4  A    between atoms: N_6  and  C_7
REMARK    5  A    between atoms: N_6  and  C_9
REMARK    6  A    between atoms: C_7  and  C_8
REMARK                            x       y       z     vdW  Elec       q    Type
REMARK                         _______ _______ _______ _____ _____    ______ ____
ROOT
ATOM      1  N   UNL     1       2.596   6.013  19.539  0.00  0.00    +0.000 N 
ATOM      2  C   UNL     1       3.547   5.795  18.517  0.00  0.00    +0.000 C 
ATOM      3  O   UNL     1       3.775   6.706  17.703  0.00  0.00    +0.000 OA
ATOM      4  N   UNL     1       4.310   4.611  18.440  0.00  0.00    +0.000 N 
ENDROOT
BRANCH   4   5
ATOM      5  C   UNL     1       5.255   4.528  17.345  0.00  0.00    +0.000 A 
ATOM      6  C   UNL     1       4.807   4.311  16.036  0.00  0.00    +0.000 A 
ATOM      7  C   UNL     1       5.709   4.283  14.969  0.00  0.00    +0.000 A 
ATOM      8  C   UNL     1       7.068   4.490  15.200  0.00  0.00    +0.000 A 
ATOM      9  C   UNL     1       7.526   4.717  16.494  0.00  0.00    +0.000 A 
ATOM     10  C   UNL     1       6.622   4.732  17.563  0.00  0.00    +0.000 A 
ENDBRANCH   4   5
BRANCH   1  11
ATOM     11  C   UNL     1       2.036   7.342  19.624  0.00  0.00    +0.000 A 
ATOM     12  C   UNL     1       1.544   7.841  20.839  0.00  0.00    +0.000 A 
ATOM     13  C   UNL     1       0.994   9.125  20.915  0.00  0.00    +0.000 A 
ATOM     14  C   UNL     1       0.922   9.926  19.777  0.00  0.00    +0.000 A 
ATOM     15  C   UNL     1       1.384   9.435  18.559  0.00  0.00    +0.000 A 
ATOM     16  C   UNL     1       1.926   8.146  18.482  0.00  0.00    +0.000 A 
ENDBRANCH   1  11
BRANCH   1  18
ATOM     17  C   UNL     1       0.989   4.175  20.490  0.00  0.00    +0.000 C 
ATOM     18  C   UNL     1       2.224   5.065  20.590  0.00  0.00    +0.000 C 
ENDBRANCH   1  18
BRANCH   4  19
ATOM     19  C   UNL     1       4.176   3.307  19.136  0.00  0.00    +0.000 C 
ATOM     20  C   UNL     1       3.413   2.215  18.395  0.00  0.00    +0.000 C 
ENDBRANCH   4  19
TORSDOF 4
ENDMDL
MODEL 6
REMARK VINA RESULT:      -7.0      2.815      4.456
REMARK  Name = 
REMARK  6 active torsions:
REMARK  status: ('A' for Active; 'I' for Inactive)
REMARK    1  A    between atoms: C_1  and  C_2
REMARK    2  A    between atoms: C_2  and  N_3
REMARK    3  A    between atoms: N_3  and  C_15
REMARK    4  A    between atoms: N_6  and  C_7
REMARK    5  A    between atoms: N_6  and  C_9
REMARK    6  A    between atoms: C_7  and  C_8
REMARK                            x       y       z     vdW  Elec       q    Type
REMARK                         _______ _______ _______ _____ _____    ______ ____
ROOT
ATOM      1  N   UNL     1       6.042   5.010  17.689  0.00  0.00    +0.000 N 
ATOM      2  C   UNL     1       5.069   4.728  18.674  0.00  0.00    +0.000 C 
ATOM      3  O   UNL     1       5.001   5.457  19.678  0.00  0.00    +0.000 OA
ATOM      4  N   UNL     1       4.113   3.702  18.517  0.00  0.00    +0.000 N 
ENDROOT
BRANCH   4   5
ATOM      5  C   UNL     1       3.169   3.534  19.602  0.00  0.00    +0.000 A 
ATOM      6  C   UNL     1       1.953   4.227  19.598  0.00  0.00    +0.000 A 
ATOM      7  C   UNL     1       1.014   4.028  20.616  0.00  0.00    +0.000 A 
ATOM      8  C   UNL     1       1.278   3.118  21.638  0.00  0.00    +0.000 A 
ATOM      9  C   UNL     1       2.479   2.414  21.649  0.00  0.00    +0.000 A 
ATOM     10  C   UNL     1       3.422   2.624  20.635  0.00  0.00    +0.000 A 
ENDBRANCH   4   5
BRANCH   1  11
ATOM     11  C   UNL     1       6.821   6.210  17.880  0.00  0.00    +0.000 A 
ATOM     12  C   UNL     1       7.863   6.252  18.818  0.00  0.00    +0.000 A 
ATOM     13  C   UNL     1       8.611   7.420  19.007  0.00  0.00    +0.000 A 
ATOM     14  C   UNL     1       8.323   8.564  18.264  0.00  0.00    +0.000 A 
ATOM     15  C   UNL     1       7.276   8.545  17.347  0.00  0.00    +0.000 A 
ATOM     16  C   UNL     1       6.523   7.378  17.166  0.00  0.00    +0.000 A 
ENDBRANCH   1  11
BRANCH   1  18
ATOM     17  C   UNL     1       5.593   4.699  15.127  0.00  0.00    +0.000 C 
ATOM     18  C   UNL     1       6.243   4.275  16.440  0.00  0.00    +0.000 C 
ENDBRANCH   1  18
BRANCH   4  19
ATOM     19  C   UNL     1       4.020   2.586  17.543  0.00  0.00    +0.000 C 
ATOM     20  C   UNL     1       2.615   2.117  17.180  0.00  0.00    +0.000 C 
ENDBRANCH   4  19
TORSDOF 4
ENDMDL
MODEL 7
REMARK VINA RESULT:      -7.0      2.814      4.345
REMARK  Name = 
REMARK  6 active torsions:
REMARK  status: ('A' for Active; 'I' for Inactive)
REMARK    1  A    between atoms: C_1  and  C_2
REMARK    2  A    between atoms: C_2  and  N_3
REMARK    3  A    between atoms: N_3  and  C_15
REMARK    4  A    between atoms: N_6  and  C_7
REMARK    5  A    between atoms: N_6  and  C_9
REMARK    6  A    between atoms: C_7  and  C_8
REMARK                            x       y       z     vdW  Elec       q    Type
REMARK                         _______ _______ _______ _____ _____    ______ ____
ROOT
ATOM      1  N   UNL     1       6.008   5.019  17.715  0.00  0.00    +0.000 N 
ATOM      2  C   UNL     1       5.032   4.735  18.698  0.00  0.00    +0.000 C 
ATOM      3  O   UNL     1       4.957   5.467  19.699  0.00  0.00    +0.000 OA
ATOM      4  N   UNL     1       4.084   3.702  18.540  0.00  0.00    +0.000 N 
ENDROOT
BRANCH   4   5
ATOM      5  C   UNL     1       3.137   3.531  19.622  0.00  0.00    +0.000 A 
ATOM      6  C   UNL     1       1.918   4.222  19.614  0.00  0.00    +0.000 A 
ATOM      7  C   UNL     1       0.978   4.020  20.629  0.00  0.00    +0.000 A 
ATOM      8  C   UNL     1       1.241   3.111  21.652  0.00  0.00    +0.000 A 
ATOM      9  C   UNL     1       2.443   2.410  21.667  0.00  0.00    +0.000 A 
ATOM     10  C   UNL     1       3.389   2.623  20.656  0.00  0.00    +0.000 A 
ENDBRANCH   4   5
BRANCH   1  11
ATOM     11  C   UNL     1       6.779   6.225  17.905  0.00  0.00    +0.000 A 
ATOM     12  C   UNL     1       6.511   7.378  17.152  0.00  0.00    +0.000 A 
ATOM     13  C   UNL     1       7.267   8.542  17.332  0.00  0.00    +0.000 A 
ATOM     14  C   UNL     1       8.305   8.567  18.261  0.00  0.00    +0.000 A 
ATOM     15  C   UNL     1       8.599   7.423  18.997  0.00  0.00    +0.000 A 
ATOM     16  C   UNL     1       7.848   6.256  18.810  0.00  0.00    +0.000 A 
ENDBRANCH   1  11
BRANCH   1  18
ATOM     17  C   UNL     1       5.592   4.713  15.146  0.00  0.00    +0.000 C 
ATOM     18  C   UNL     1       6.218   4.281  16.469  0.00  0.00    +0.000 C 
ENDBRANCH   1  18
BRANCH   4  19
ATOM     19  C   UNL     1       4.001   2.582  17.569  0.00  0.00    +0.000 C 
ATOM     20  C   UNL     1       2.601   2.130  17.171  0.00  0.00    +0.000 C 
ENDBRANCH   4  19
TORSDOF 4
ENDMDL
MODEL 8
REMARK VINA RESULT:      -7.0      0.156      5.987
REMARK  Name = 
REMARK  6 active torsions:
REMARK  status: ('A' for Active; 'I' for Inactive)
REMARK    1  A    between atoms: C_1  and  C_2
REMARK    2  A    between atoms: C_2  and  N_3
REMARK    3  A    between atoms: N_3  and  C_15
REMARK    4  A    between atoms: N_6  and  C_7
REMARK    5  A    between atoms: N_6  and  C_9
REMARK    6  A    between atoms: C_7  and  C_8
REMARK                            x       y       z     vdW  Elec       q    Type
REMARK                         _______ _______ _______ _____ _____    ______ ____
ROOT
ATOM      1  N   UNL     1       2.561   6.006  19.532  0.00  0.00    +0.000 N 
ATOM      2  C   UNL     1       3.523   5.788  18.520  0.00  0.00    +0.000 C 
ATOM      3  O   UNL     1       3.758   6.698  17.707  0.00  0.00    +0.000 OA
ATOM      4  N   UNL     1       4.290   4.606  18.454  0.00  0.00    +0.000 N 
ENDROOT
BRANCH   4   5
ATOM      5  C   UNL     1       5.247   4.523  17.370  0.00  0.00    +0.000 A 
ATOM      6  C   UNL     1       4.813   4.297  16.057  0.00  0.00    +0.000 A 
ATOM      7  C   UNL     1       5.727   4.270  14.999  0.00  0.00    +0.000 A 
ATOM      8  C   UNL     1       7.082   4.485  15.244  0.00  0.00    +0.000 A 
ATOM      9  C   UNL     1       7.526   4.720  16.541  0.00  0.00    +0.000 A 
ATOM     10  C   UNL     1       6.610   4.736  17.601  0.00  0.00    +0.000 A 
ENDBRANCH   4   5
BRANCH   1  11
ATOM     11  C   UNL     1       1.997   7.333  19.608  0.00  0.00    +0.000 A 
ATOM     12  C   UNL     1       1.929   8.154  18.473  0.00  0.00    +0.000 A 
ATOM     13  C   UNL     1       1.390   9.443  18.552  0.00  0.00    +0.000 A 
ATOM     14  C   UNL     1       0.918   9.932  19.769  0.00  0.00    +0.000 A 
ATOM     15  C   UNL     1       1.002   9.138  20.909  0.00  0.00    +0.000 A 
ATOM     16  C   UNL     1       1.549   7.851  20.830  0.00  0.00    +0.000 A 
ENDBRANCH   1  11
BRANCH   1  18
ATOM     17  C   UNL     1       0.948   4.166  20.470  0.00  0.00    +0.000 C 
ATOM     18  C   UNL     1       2.181   5.059  20.581  0.00  0.00    +0.000 C 
ENDBRANCH   1  18
BRANCH   4  19
ATOM     19  C   UNL     1       4.152   3.303  19.152  0.00  0.00    +0.000 C 
ATOM     20  C   UNL     1       3.373   2.218  18.418  0.00  0.00    +0.000 C 
ENDBRANCH   4  19
TORSDOF 4
ENDMDL
MODEL 9
REMARK VINA RESULT:      -7.0      0.145      6.115
REMARK  Name = 
REMARK  6 active torsions:
REMARK  status: ('A' for Active; 'I' for Inactive)
REMARK    1  A    between atoms: C_1  and  C_2
REMARK    2  A    between atoms: C_2  and  N_3
REMARK    3  A    between atoms: N_3  and  C_15
REMARK    4  A    between atoms: N_6  and  C_7
REMARK    5  A    between atoms: N_6  and  C_9
REMARK    6  A    between atoms: C_7  and  C_8
REMARK                            x       y       z     vdW  Elec       q    Type
REMARK                         _______ _______ _______ _____ _____    ______ ____
ROOT
ATOM      1  N   UNL     1       2.564   6.063  19.568  0.00  0.00    +0.000 N 
ATOM      2  C   UNL     1       3.517   5.873  18.543  0.00  0.00    +0.000 C 
ATOM      3  O   UNL     1       3.742   6.803  17.751  0.00  0.00    +0.000 OA
ATOM      4  N   UNL     1       4.286   4.695  18.440  0.00  0.00    +0.000 N 
ENDROOT
BRANCH   4   5
ATOM      5  C   UNL     1       5.234   4.641  17.345  0.00  0.00    +0.000 A 
ATOM      6  C   UNL     1       6.607   4.759  17.590  0.00  0.00    +0.000 A 
ATOM      7  C   UNL     1       7.529   4.655  16.544  0.00  0.00    +0.000 A 
ATOM      8  C   UNL     1       7.085   4.414  15.245  0.00  0.00    +0.000 A 
ATOM      9  C   UNL     1       5.724   4.284  14.989  0.00  0.00    +0.000 A 
ATOM     10  C   UNL     1       4.801   4.400  16.036  0.00  0.00    +0.000 A 
ENDBRANCH   4   5
BRANCH   1  11
ATOM     11  C   UNL     1       1.997   7.386  19.682  0.00  0.00    +0.000 A 
ATOM     12  C   UNL     1       1.515   7.861  20.911  0.00  0.00    +0.000 A 
ATOM     13  C   UNL     1       0.958   9.140  21.016  0.00  0.00    +0.000 A 
ATOM     14  C   UNL     1       0.869   9.960  19.893  0.00  0.00    +0.000 A 
ATOM     15  C   UNL     1       1.321   9.494  18.662  0.00  0.00    +0.000 A 
ATOM     16  C   UNL     1       1.870   8.210  18.556  0.00  0.00    +0.000 A 
ENDBRANCH   1  11
BRANCH   1  18
ATOM     17  C   UNL     1       0.962   4.198  20.476  0.00  0.00    +0.000 C 
ATOM     18  C   UNL     1       2.195   5.089  20.596  0.00  0.00    +0.000 C 
ENDBRANCH   1  18
BRANCH   4  19
ATOM     19  C   UNL     1       4.158   3.374  19.106  0.00  0.00    +0.000 C 
ATOM     20  C   UNL     1       3.396   2.299  18.341  0.00  0.00    +0.000 C 
ENDBRANCH   4  19
TORSDOF 4
ENDMDL
