MODEL 1
REMARK VINA RESULT:      -7.7      0.000      0.000
REMARK  Name = 
REMARK  6 active torsions:
REMARK  status: ('A' for Active; 'I' for Inactive)
REMARK    1  A    between atoms: C_1  and  C_2
REMARK    2  A    between atoms: N_4  and  C_5
REMARK    3  A    between atoms: C_5  and  C_6
REMARK    4  A    between atoms: C_11  and  C_12
REMARK    5  A    between atoms: C_11  and  C_13
REMARK    6  A    between atoms: C_17  and  O_18
REMARK                            x       y       z     vdW  Elec       q    Type
REMARK                         _______ _______ _______ _____ _____    ______ ____
ROOT
ATOM      1  C   UNL     1       5.942   3.690  15.697  0.00  0.00    +0.000 C 
ATOM      2  C   UNL     1       4.777   4.328  16.465  0.00  0.00    +0.000 C 
ATOM      3  C   UNL     1       4.510   3.496  17.735  0.00  0.00    +0.000 C 
ATOM      4  N   UNL     1       3.309   3.889  18.493  0.00  0.00    +0.000 NA
ATOM      5  C   UNL     1       3.250   5.333  18.738  0.00  0.00    +0.000 C 
ATOM      6  C   UNL     1       3.533   6.196  17.499  0.00  0.00    +0.000 C 
ATOM      7  C   UNL     1       4.885   5.868  16.786  0.00  0.00    +0.000 C 
ATOM      8  C   UNL     1       4.885   6.677  15.464  0.00  0.00    +0.000 C 
ENDROOT
BRANCH   7   9
ATOM      9  C   UNL     1       6.133   6.297  17.596  0.00  0.00    +0.000 A 
ATOM     10  C   UNL     1       6.864   7.454  17.262  0.00  0.00    +0.000 A 
ATOM     11  C   UNL     1       8.024   7.832  17.955  0.00  0.00    +0.000 A 
ATOM     12  C   UNL     1       8.474   7.078  19.032  0.00  0.00    +0.000 A 
ATOM     13  C   UNL     1       7.734   5.979  19.426  0.00  0.00    +0.000 A 
ATOM     14  C   UNL     1       6.574   5.607  18.742  0.00  0.00    +0.000 A 
BRANCH  13  15
ATOM     15  O   UNL     1       8.100   5.215  20.496  0.00  0.00    +0.000 OA
ATOM     16  H   UNL     1       7.725   4.327  20.384  0.00  0.00    +0.000 HD
ENDBRANCH  13  15
ENDBRANCH   7   9
BRANCH   4  17
ATOM     17  C   UNL     1       3.313   3.133  19.766  0.00  0.00    +0.000 C 
BRANCH  17  18
ATOM     18  C   UNL     1       2.306   3.618  20.769  0.00  0.00    +0.000 C 
ATOM     19  C   UNL     1       0.838   3.344  20.545  0.00  0.00    +0.000 C 
ATOM     20  C   UNL     1       1.571   2.631  21.646  0.00  0.00    +0.000 C 
ENDBRANCH  17  18
ENDBRANCH   4  17
TORSDOF 4
ENDMDL
MODEL 2
REMARK VINA RESULT:      -7.7      2.401      3.781
REMARK  Name = 
REMARK  6 active torsions:
REMARK  status: ('A' for Active; 'I' for Inactive)
REMARK    1  A    between atoms: C_1  and  C_2
REMARK    2  A    between atoms: N_4  and  C_5
REMARK    3  A    between atoms: C_5  and  C_6
REMARK    4  A    between atoms: C_11  and  C_12
REMARK    5  A    between atoms: C_11  and  C_13
REMARK    6  A    between atoms: C_17  and  O_18
REMARK                            x       y       z     vdW  Elec       q    Type
REMARK                         _______ _______ _______ _____ _____    ______ ____
ROOT
ATOM      1  C   UNL     1       6.453   5.570  19.109  0.00  0.00    +0.000 C 
ATOM      2  C   UNL     1       5.475   4.691  18.316  0.00  0.00    +0.000 C 
ATOM      3  C   UNL     1       4.747   3.754  19.299  0.00  0.00    +0.000 C 
ATOM      4  N   UNL     1       3.895   2.732  18.666  0.00  0.00    +0.000 NA
ATOM      5  C   UNL     1       2.998   3.301  17.656  0.00  0.00    +0.000 C 
ATOM      6  C   UNL     1       3.684   4.260  16.670  0.00  0.00    +0.000 C 
ATOM      7  C   UNL     1       4.466   5.427  17.353  0.00  0.00    +0.000 C 
ATOM      8  C   UNL     1       5.250   6.142  16.224  0.00  0.00    +0.000 C 
ENDROOT
BRANCH   7   9
ATOM      9  C   UNL     1       3.549   6.480  18.023  0.00  0.00    +0.000 A 
ATOM     10  C   UNL     1       3.049   6.298  19.327  0.00  0.00    +0.000 A 
ATOM     11  C   UNL     1       2.180   7.218  19.931  0.00  0.00    +0.000 A 
ATOM     12  C   UNL     1       1.807   8.375  19.259  0.00  0.00    +0.000 A 
ATOM     13  C   UNL     1       2.341   8.614  18.007  0.00  0.00    +0.000 A 
ATOM     14  C   UNL     1       3.213   7.702  17.408  0.00  0.00    +0.000 A 
BRANCH  13  15
ATOM     15  O   UNL     1       2.043   9.747  17.305  0.00  0.00    +0.000 OA
ATOM     16  H   UNL     1       1.458   9.509  16.568  0.00  0.00    +0.000 HD
ENDBRANCH  13  15
ENDBRANCH   7   9
BRANCH   4  17
ATOM     17  C   UNL     1       3.129   2.058  19.739  0.00  0.00    +0.000 C 
BRANCH  17  18
ATOM     18  C   UNL     1       2.592   2.993  20.785  0.00  0.00    +0.000 C 
ATOM     19  C   UNL     1       1.164   3.476  20.693  0.00  0.00    +0.000 C 
ATOM     20  C   UNL     1       1.557   2.510  21.775  0.00  0.00    +0.000 C 
ENDBRANCH  17  18
ENDBRANCH   4  17
TORSDOF 4
ENDMDL
MODEL 3
REMARK VINA RESULT:      -7.7      2.117      3.434
REMARK  Name = 
REMARK  6 active torsions:
REMARK  status: ('A' for Active; 'I' for Inactive)
REMARK    1  A    between atoms: C_1  and  C_2
REMARK    2  A    between atoms: N_4  and  C_5
REMARK    3  A    between atoms: C_5  and  C_6
REMARK    4  A    between atoms: C_11  and  C_12
REMARK    5  A    between atoms: C_11  and  C_13
REMARK    6  A    between atoms: C_17  and  O_18
REMARK                            x       y       z     vdW  Elec       q    Type
REMARK                         _______ _______ _______ _____ _____    ______ ____
ROOT
ATOM      1  C   UNL     1       6.469   5.520  19.255  0.00  0.00    +0.000 C 
ATOM      2  C   UNL     1       5.542   4.646  18.399  0.00  0.00    +0.000 C 
ATOM      3  C   UNL     1       4.736   3.721  19.332  0.00  0.00    +0.000 C 
ATOM      4  N   UNL     1       3.921   2.704  18.644  0.00  0.00    +0.000 NA
ATOM      5  C   UNL     1       3.105   3.275  17.569  0.00  0.00    +0.000 C 
ATOM      6  C   UNL     1       3.870   4.221  16.630  0.00  0.00    +0.000 C 
ATOM      7  C   UNL     1       4.612   5.385  17.361  0.00  0.00    +0.000 C 
ATOM      8  C   UNL     1       5.484   6.085  16.288  0.00  0.00    +0.000 C 
ENDROOT
BRANCH   7   9
ATOM      9  C   UNL     1       3.660   6.451  17.957  0.00  0.00    +0.000 A 
ATOM     10  C   UNL     1       3.307   7.608  17.235  0.00  0.00    +0.000 A 
ATOM     11  C   UNL     1       2.484   8.606  17.777  0.00  0.00    +0.000 A 
ATOM     12  C   UNL     1       1.957   8.463  19.054  0.00  0.00    +0.000 A 
ATOM     13  C   UNL     1       2.228   7.303  19.755  0.00  0.00    +0.000 A 
ATOM     14  C   UNL     1       3.040   6.304  19.213  0.00  0.00    +0.000 A 
BRANCH  13  15
ATOM     15  O   UNL     1       1.713   7.082  21.001  0.00  0.00    +0.000 OA
ATOM     16  H   UNL     1       1.069   7.781  21.196  0.00  0.00    +0.000 HD
ENDBRANCH  13  15
ENDBRANCH   7   9
BRANCH   4  17
ATOM     17  C   UNL     1       3.073   2.045  19.663  0.00  0.00    +0.000 C 
BRANCH  17  18
ATOM     18  C   UNL     1       2.588   2.967  20.745  0.00  0.00    +0.000 C 
ATOM     19  C   UNL     1       1.188   3.529  20.675  0.00  0.00    +0.000 C 
ATOM     20  C   UNL     1       1.529   2.505  21.720  0.00  0.00    +0.000 C 
ENDBRANCH  17  18
ENDBRANCH   4  17
TORSDOF 4
ENDMDL
MODEL 4
REMARK VINA RESULT:      -7.0      1.725      5.470
REMARK  Name = 
REMARK  6 active torsions:
REMARK  status: ('A' for Active; 'I' for Inactive)
REMARK    1  A    between atoms: C_1  and  C_2
REMARK    2  A    between atoms: N_4  and  C_5
REMARK    3  A    between atoms: C_5  and  C_6
REMARK    4  A    between atoms: C_11  and  C_12
REMARK    5  A    between atoms: C_11  and  C_13
REMARK    6  A    between atoms: C_17  and  O_18
REMARK                            x       y       z     vdW  Elec       q    Type
REMARK                         _______ _______ _______ _____ _____    ______ ____
ROOT
ATOM      1  C   UNL     1       2.349   6.886  18.754  0.00  0.00    +0.000 C 
ATOM      2  C   UNL     1       2.985   5.893  17.771  0.00  0.00    +0.000 C 
ATOM      3  C   UNL     1       4.516   5.948  17.937  0.00  0.00    +0.000 C 
ATOM      4  N   UNL     1       5.276   5.170  16.943  0.00  0.00    +0.000 NA
ATOM      5  C   UNL     1       4.771   3.803  16.799  0.00  0.00    +0.000 C 
ATOM      6  C   UNL     1       3.244   3.705  16.653  0.00  0.00    +0.000 C 
ATOM      7  C   UNL     1       2.446   4.411  17.796  0.00  0.00    +0.000 C 
ATOM      8  C   UNL     1       0.958   4.390  17.363  0.00  0.00    +0.000 C 
ENDROOT
BRANCH   7   9
ATOM      9  C   UNL     1       2.545   3.686  19.162  0.00  0.00    +0.000 A 
ATOM     10  C   UNL     1       1.446   3.619  20.040  0.00  0.00    +0.000 A 
ATOM     11  C   UNL     1       1.531   3.008  21.299  0.00  0.00    +0.000 A 
ATOM     12  C   UNL     1       2.716   2.411  21.710  0.00  0.00    +0.000 A 
ATOM     13  C   UNL     1       3.788   2.399  20.837  0.00  0.00    +0.000 A 
ATOM     14  C   UNL     1       3.701   3.000  19.579  0.00  0.00    +0.000 A 
BRANCH  13  15
ATOM     15  O   UNL     1       4.971   1.799  21.163  0.00  0.00    +0.000 OA
ATOM     16  H   UNL     1       5.679   2.461  21.102  0.00  0.00    +0.000 HD
ENDBRANCH  13  15
ENDBRANCH   7   9
BRANCH   4  17
ATOM     17  C   UNL     1       6.696   5.172  17.363  0.00  0.00    +0.000 C 
BRANCH  17  18
ATOM     18  C   UNL     1       6.971   5.996  18.588  0.00  0.00    +0.000 C 
ATOM     19  C   UNL     1       8.182   5.691  19.436  0.00  0.00    +0.000 C 
ATOM     20  C   UNL     1       8.143   6.949  18.615  0.00  0.00    +0.000 C 
ENDBRANCH  17  18
ENDBRANCH   4  17
TORSDOF 4
ENDMDL
MODEL 5
REMARK VINA RESULT:      -7.0      2.580      5.903
REMARK  Name = 
REMARK  6 active torsions:
REMARK  status: ('A' for Active; 'I' for Inactive)
REMARK    1  A    between atoms: C_1  and  C_2
REMARK    2  A    between atoms: N_4  and  C_5
REMARK    3  A    between atoms: C_5  and  C_6
REMARK    4  A    between atoms: C_11  and  C_12
REMARK    5  A    between atoms: C_11  and  C_13
REMARK    6  A    between atoms: C_17  and  O_18
REMARK                            x       y       z     vdW  Elec       q    Type
REMARK                         _______ _______ _______ _____ _____    ______ ____
ROOT
ATOM      1  C   UNL     1       6.489   5.238  19.401  0.00  0.00    +0.000 C 
ATOM      2  C   UNL     1       6.095   5.836  18.044  0.00  0.00    +0.000 C 
ATOM      3  C   UNL     1       6.789   5.030  16.929  0.00  0.00    +0.000 C 
ATOM      4  N   UNL     1       6.640   5.588  15.574  0.00  0.00    +0.000 NA
ATOM      5  C   UNL     1       5.247   5.913  15.254  0.00  0.00    +0.000 C 
ATOM      6  C   UNL     1       4.514   6.699  16.352  0.00  0.00    +0.000 C 
ATOM      7  C   UNL     1       4.554   6.021  17.759  0.00  0.00    +0.000 C 
ATOM      8  C   UNL     1       3.961   7.051  18.754  0.00  0.00    +0.000 C 
ENDROOT
BRANCH   7   9
ATOM      9  C   UNL     1       3.697   4.734  17.853  0.00  0.00    +0.000 A 
ATOM     10  C   UNL     1       2.290   4.787  17.860  0.00  0.00    +0.000 A 
ATOM     11  C   UNL     1       1.499   3.637  17.991  0.00  0.00    +0.000 A 
ATOM     12  C   UNL     1       2.093   2.385  18.088  0.00  0.00    +0.000 A 
ATOM     13  C   UNL     1       3.471   2.298  18.010  0.00  0.00    +0.000 A 
ATOM     14  C   UNL     1       4.259   3.443  17.871  0.00  0.00    +0.000 A 
BRANCH  13  15
ATOM     15  O   UNL     1       4.118   1.097  18.064  0.00  0.00    +0.000 OA
ATOM     16  H   UNL     1       4.175   0.737  17.164  0.00  0.00    +0.000 HD
ENDBRANCH  13  15
ENDBRANCH   7   9
BRANCH   4  17
ATOM     17  C   UNL     1       7.189   4.599  14.618  0.00  0.00    +0.000 C 
BRANCH  17  18
ATOM     18  C   UNL     1       6.521   4.614  13.273  0.00  0.00    +0.000 C 
ATOM     19  C   UNL     1       7.229   4.015  12.081  0.00  0.00    +0.000 C 
ATOM     20  C   UNL     1       6.024   3.326  12.658  0.00  0.00    +0.000 C 
ENDBRANCH  17  18
ENDBRANCH   4  17
TORSDOF 4
ENDMDL
MODEL 6
REMARK VINA RESULT:      -6.9      1.129      1.562
REMARK  Name = 
REMARK  6 active torsions:
REMARK  status: ('A' for Active; 'I' for Inactive)
REMARK    1  A    between atoms: C_1  and  C_2
REMARK    2  A    between atoms: N_4  and  C_5
REMARK    3  A    between atoms: C_5  and  C_6
REMARK    4  A    between atoms: C_11  and  C_12
REMARK    5  A    between atoms: C_11  and  C_13
REMARK    6  A    between atoms: C_17  and  O_18
REMARK                            x       y       z     vdW  Elec       q    Type
REMARK                         _______ _______ _______ _____ _____    ______ ____
ROOT
ATOM      1  C   UNL     1       5.953   3.826  15.370  0.00  0.00    +0.000 C 
ATOM      2  C   UNL     1       4.791   4.421  16.177  0.00  0.00    +0.000 C 
ATOM      3  C   UNL     1       4.522   3.515  17.394  0.00  0.00    +0.000 C 
ATOM      4  N   UNL     1       3.324   3.865  18.176  0.00  0.00    +0.000 NA
ATOM      5  C   UNL     1       3.271   5.291  18.508  0.00  0.00    +0.000 C 
ATOM      6  C   UNL     1       3.555   6.227  17.324  0.00  0.00    +0.000 C 
ATOM      7  C   UNL     1       4.905   5.938  16.591  0.00  0.00    +0.000 C 
ATOM      8  C   UNL     1       4.906   6.826  15.320  0.00  0.00    +0.000 C 
ENDROOT
BRANCH   7   9
ATOM      9  C   UNL     1       6.156   6.313  17.423  0.00  0.00    +0.000 A 
ATOM     10  C   UNL     1       6.730   5.407  18.336  0.00  0.00    +0.000 A 
ATOM     11  C   UNL     1       7.834   5.746  19.132  0.00  0.00    +0.000 A 
ATOM     12  C   UNL     1       8.424   6.998  19.015  0.00  0.00    +0.000 A 
ATOM     13  C   UNL     1       7.926   7.879  18.074  0.00  0.00    +0.000 A 
ATOM     14  C   UNL     1       6.831   7.540  17.275  0.00  0.00    +0.000 A 
BRANCH  13  15
ATOM     15  O   UNL     1       8.480   9.113  17.883  0.00  0.00    +0.000 OA
ATOM     16  H   UNL     1       8.913   9.125  17.015  0.00  0.00    +0.000 HD
ENDBRANCH  13  15
ENDBRANCH   7   9
BRANCH   4  17
ATOM     17  C   UNL     1       3.327   3.033  19.400  0.00  0.00    +0.000 C 
BRANCH  17  18
ATOM     18  C   UNL     1       2.585   3.642  20.556  0.00  0.00    +0.000 C 
ATOM     19  C   UNL     1       1.160   3.225  20.830  0.00  0.00    +0.000 C 
ATOM     20  C   UNL     1       2.255   2.807  21.771  0.00  0.00    +0.000 C 
ENDBRANCH  17  18
ENDBRANCH   4  17
TORSDOF 4
ENDMDL
MODEL 7
REMARK VINA RESULT:      -6.9      2.415      3.166
REMARK  Name = 
REMARK  6 active torsions:
REMARK  status: ('A' for Active; 'I' for Inactive)
REMARK    1  A    between atoms: C_1  and  C_2
REMARK    2  A    between atoms: N_4  and  C_5
REMARK    3  A    between atoms: C_5  and  C_6
REMARK    4  A    between atoms: C_11  and  C_12
REMARK    5  A    between atoms: C_11  and  C_13
REMARK    6  A    between atoms: C_17  and  O_18
REMARK                            x       y       z     vdW  Elec       q    Type
REMARK                         _______ _______ _______ _____ _____    ______ ____
ROOT
ATOM      1  C   UNL     1       4.155   3.028  19.633  0.00  0.00    +0.000 C 
ATOM      2  C   UNL     1       3.364   4.214  19.064  0.00  0.00    +0.000 C 
ATOM      3  C   UNL     1       2.959   5.141  20.227  0.00  0.00    +0.000 C 
ATOM      4  N   UNL     1       2.050   6.240  19.858  0.00  0.00    +0.000 NA
ATOM      5  C   UNL     1       2.516   6.978  18.681  0.00  0.00    +0.000 C 
ATOM      6  C   UNL     1       2.949   6.087  17.507  0.00  0.00    +0.000 C 
ATOM      7  C   UNL     1       4.025   5.017  17.879  0.00  0.00    +0.000 C 
ATOM      8  C   UNL     1       4.167   4.096  16.641  0.00  0.00    +0.000 C 
ENDROOT
BRANCH   7   9
ATOM      9  C   UNL     1       5.421   5.619  18.175  0.00  0.00    +0.000 A 
ATOM     10  C   UNL     1       5.987   6.608  17.347  0.00  0.00    +0.000 A 
ATOM     11  C   UNL     1       7.268   7.130  17.574  0.00  0.00    +0.000 A 
ATOM     12  C   UNL     1       8.018   6.701  18.662  0.00  0.00    +0.000 A 
ATOM     13  C   UNL     1       7.457   5.784  19.531  0.00  0.00    +0.000 A 
ATOM     14  C   UNL     1       6.177   5.270  19.311  0.00  0.00    +0.000 A 
BRANCH  13  15
ATOM     15  O   UNL     1       8.125   5.346  20.639  0.00  0.00    +0.000 OA
ATOM     16  H   UNL     1       8.093   4.376  20.654  0.00  0.00    +0.000 HD
ENDBRANCH  13  15
ENDBRANCH   7   9
BRANCH   4  17
ATOM     17  C   UNL     1       1.926   7.133  21.032  0.00  0.00    +0.000 C 
BRANCH  17  18
ATOM     18  C   UNL     1       1.237   8.435  20.739  0.00  0.00    +0.000 C 
ATOM     19  C   UNL     1      -0.079   8.751  21.409  0.00  0.00    +0.000 C 
ATOM     20  C   UNL     1       1.158   9.509  21.799  0.00  0.00    +0.000 C 
ENDBRANCH  17  18
ENDBRANCH   4  17
TORSDOF 4
ENDMDL
MODEL 8
REMARK VINA RESULT:      -6.9      2.830      5.641
REMARK  Name = 
REMARK  6 active torsions:
REMARK  status: ('A' for Active; 'I' for Inactive)
REMARK    1  A    between atoms: C_1  and  C_2
REMARK    2  A    between atoms: N_4  and  C_5
REMARK    3  A    between atoms: C_5  and  C_6
REMARK    4  A    between atoms: C_11  and  C_12
REMARK    5  A    between atoms: C_11  and  C_13
REMARK    6  A    between atoms: C_17  and  O_18
REMARK                            x       y       z     vdW  Elec       q    Type
REMARK                         _______ _______ _______ _____ _____    ______ ____
ROOT
ATOM      1  C   UNL     1       1.520   3.913  17.738  0.00  0.00    +0.000 C 
ATOM      2  C   UNL     1       2.955   4.170  18.217  0.00  0.00    +0.000 C 
ATOM      3  C   UNL     1       3.810   4.595  17.008  0.00  0.00    +0.000 C 
ATOM      4  N   UNL     1       5.253   4.717  17.279  0.00  0.00    +0.000 NA
ATOM      5  C   UNL     1       5.530   5.513  18.477  0.00  0.00    +0.000 C 
ATOM      6  C   UNL     1       4.681   5.133  19.700  0.00  0.00    +0.000 C 
ATOM      7  C   UNL     1       3.141   5.150  19.439  0.00  0.00    +0.000 C 
ATOM      8  C   UNL     1       2.480   4.540  20.701  0.00  0.00    +0.000 C 
ENDROOT
BRANCH   7   9
ATOM      9  C   UNL     1       2.559   6.573  19.249  0.00  0.00    +0.000 A 
ATOM     10  C   UNL     1       2.607   7.227  18.003  0.00  0.00    +0.000 A 
ATOM     11  C   UNL     1       2.128   8.533  17.825  0.00  0.00    +0.000 A 
ATOM     12  C   UNL     1       1.551   9.219  18.886  0.00  0.00    +0.000 A 
ATOM     13  C   UNL     1       1.425   8.572  20.101  0.00  0.00    +0.000 A 
ATOM     14  C   UNL     1       1.894   7.269  20.278  0.00  0.00    +0.000 A 
BRANCH  13  15
ATOM     15  O   UNL     1       0.837   9.176  21.176  0.00  0.00    +0.000 OA
ATOM     16  H   UNL     1       0.181   8.566  21.551  0.00  0.00    +0.000 HD
ENDBRANCH  13  15
ENDBRANCH   7   9
BRANCH   4  17
ATOM     17  C   UNL     1       5.886   5.316  16.083  0.00  0.00    +0.000 C 
BRANCH  17  18
ATOM     18  C   UNL     1       6.528   4.316  15.165  0.00  0.00    +0.000 C 
ATOM     19  C   UNL     1       5.833   3.926  13.882  0.00  0.00    +0.000 C 
ATOM     20  C   UNL     1       7.085   4.756  13.831  0.00  0.00    +0.000 C 
ENDBRANCH  17  18
ENDBRANCH   4  17
TORSDOF 4
ENDMDL
MODEL 9
REMARK VINA RESULT:      -6.8      2.708      5.722
REMARK  Name = 
REMARK  6 active torsions:
REMARK  status: ('A' for Active; 'I' for Inactive)
REMARK    1  A    between atoms: C_1  and  C_2
REMARK    2  A    between atoms: N_4  and  C_5
REMARK    3  A    between atoms: C_5  and  C_6
REMARK    4  A    between atoms: C_11  and  C_12
REMARK    5  A    between atoms: C_11  and  C_13
REMARK    6  A    between atoms: C_17  and  O_18
REMARK                            x       y       z     vdW  Elec       q    Type
REMARK                         _______ _______ _______ _____ _____    ______ ____
ROOT
ATOM      1  C   UNL     1       1.159   3.560  18.258  0.00  0.00    +0.000 C 
ATOM      2  C   UNL     1       2.666   3.771  18.462  0.00  0.00    +0.000 C 
ATOM      3  C   UNL     1       3.290   4.191  17.117  0.00  0.00    +0.000 C 
ATOM      4  N   UNL     1       4.762   4.270  17.114  0.00  0.00    +0.000 NA
ATOM      5  C   UNL     1       5.282   5.041  18.246  0.00  0.00    +0.000 C 
ATOM      6  C   UNL     1       4.666   4.666  19.603  0.00  0.00    +0.000 C 
ATOM      7  C   UNL     1       3.106   4.728  19.636  0.00  0.00    +0.000 C 
ATOM      8  C   UNL     1       2.676   4.118  20.994  0.00  0.00    +0.000 C 
ENDROOT
BRANCH   7   9
ATOM      9  C   UNL     1       2.541   6.169  19.572  0.00  0.00    +0.000 A 
ATOM     10  C   UNL     1       1.888   6.753  20.675  0.00  0.00    +0.000 A 
ATOM     11  C   UNL     1       1.329   8.038  20.620  0.00  0.00    +0.000 A 
ATOM     12  C   UNL     1       1.435   8.799  19.463  0.00  0.00    +0.000 A 
ATOM     13  C   UNL     1       2.135   8.278  18.390  0.00  0.00    +0.000 A 
ATOM     14  C   UNL     1       2.699   7.001  18.447  0.00  0.00    +0.000 A 
BRANCH  13  15
ATOM     15  O   UNL     1       2.307   8.986  17.235  0.00  0.00    +0.000 OA
ATOM     16  H   UNL     1       3.198   9.371  17.239  0.00  0.00    +0.000 HD
ENDBRANCH  13  15
ENDBRANCH   7   9
BRANCH   4  17
ATOM     17  C   UNL     1       5.177   4.869  15.826  0.00  0.00    +0.000 C 
BRANCH  17  18
ATOM     18  C   UNL     1       6.274   4.118  15.127  0.00  0.00    +0.000 C 
ATOM     19  C   UNL     1       6.180   3.870  13.641  0.00  0.00    +0.000 C 
ATOM     20  C   UNL     1       7.199   4.838  14.173  0.00  0.00    +0.000 C 
ENDBRANCH  17  18
ENDBRANCH   4  17
TORSDOF 4
ENDMDL
