MODEL 1
REMARK VINA RESULT:      -8.2      0.000      0.000
REMARK  Name = 
REMARK  7 active torsions:
REMARK  status: ('A' for Active; 'I' for Inactive)
REMARK    1  A    between atoms: C_1  and  C_2
REMARK    2  A    between atoms: C_5  and  C_6
REMARK    3  A    between atoms: C_6  and  N_7
REMARK    4  A    between atoms: N_10  and  C_11
REMARK    5  A    between atoms: C_11  and  C_12
REMARK    6  A    between atoms: C_12  and  O_13
REMARK    7  A    between atoms: C_12  and  C_14
REMARK                            x       y       z     vdW  Elec       q    Type
REMARK                         _______ _______ _______ _____ _____    ______ ____
ROOT
ATOM      1  N   UNL     1       3.629   6.294  17.572  0.00  0.00    +0.000 N 
ATOM      2  C   UNL     1       3.143   5.022  17.591  0.00  0.00    +0.000 A 
ATOM      3  N   UNL     1       1.893   4.723  17.542  0.00  0.00    +0.000 NA
ATOM      4  N   UNL     1       4.130   4.083  17.658  0.00  0.00    +0.000 N 
ATOM      5  C   UNL     1       5.274   4.804  17.700  0.00  0.00    +0.000 A 
ATOM      6  C   UNL     1       6.600   4.358  17.775  0.00  0.00    +0.000 A 
ATOM      7  C   UNL     1       7.619   5.327  17.797  0.00  0.00    +0.000 A 
ATOM      8  C   UNL     1       7.305   6.701  17.730  0.00  0.00    +0.000 A 
ATOM      9  C   UNL     1       5.969   7.123  17.642  0.00  0.00    +0.000 A 
ATOM     10  C   UNL     1       4.971   6.142  17.637  0.00  0.00    +0.000 A 
ATOM     11  H   UNL     1       1.156   5.442  17.492  0.00  0.00    +0.000 HD
ENDROOT
BRANCH   1  12
ATOM     12  C   UNL     1       2.889   7.559  17.422  0.00  0.00    +0.000 C 
BRANCH  12  17
ATOM     13  C   UNL     1       0.027   9.137  22.251  0.00  0.00    +0.000 C 
ATOM     14  C   UNL     1       0.798   8.757  21.021  0.00  0.00    +0.000 A 
ATOM     15  C   UNL     1       0.770   9.572  19.881  0.00  0.00    +0.000 A 
ATOM     16  C   UNL     1       1.464   9.197  18.728  0.00  0.00    +0.000 A 
ATOM     17  C   UNL     1       2.203   8.003  18.694  0.00  0.00    +0.000 A 
ATOM     18  C   UNL     1       2.245   7.196  19.845  0.00  0.00    +0.000 A 
ATOM     19  C   UNL     1       1.546   7.571  20.999  0.00  0.00    +0.000 A 
ENDBRANCH  12  17
ENDBRANCH   1  12
BRANCH   4  20
ATOM     20  C   UNL     1       3.985   2.616  17.672  0.00  0.00    +0.000 C 
BRANCH  20  21
ATOM     21  C   UNL     1       3.925   2.078  19.119  0.00  0.00    +0.000 C 
BRANCH  21  22
ATOM     22  C   UNL     1       2.744   2.625  19.878  0.00  0.00    +0.000 A 
ATOM     23  C   UNL     1       2.806   3.416  21.008  0.00  0.00    +0.000 A 
ATOM     24  C   UNL     1       1.502   3.701  21.338  0.00  0.00    +0.000 A 
ATOM     25  C   UNL     1       0.719   3.072  20.394  0.00  0.00    +0.000 A 
ATOM     26  O   UNL     1       1.488   2.434  19.537  0.00  0.00    +0.000 OA
ENDBRANCH  21  22
BRANCH  21  27
ATOM     27  O   UNL     1       5.115   2.369  19.810  0.00  0.00    +0.000 OA
ATOM     28  H   UNL     1       5.109   3.339  20.025  0.00  0.00    +0.000 HD
ENDBRANCH  21  27
ENDBRANCH  20  21
ENDBRANCH   4  20
TORSDOF 6
ENDMDL
MODEL 2
REMARK VINA RESULT:      -7.9      2.567      5.149
REMARK  Name = 
REMARK  7 active torsions:
REMARK  status: ('A' for Active; 'I' for Inactive)
REMARK    1  A    between atoms: C_1  and  C_2
REMARK    2  A    between atoms: C_5  and  C_6
REMARK    3  A    between atoms: C_6  and  N_7
REMARK    4  A    between atoms: N_10  and  C_11
REMARK    5  A    between atoms: C_11  and  C_12
REMARK    6  A    between atoms: C_12  and  O_13
REMARK    7  A    between atoms: C_12  and  C_14
REMARK                            x       y       z     vdW  Elec       q    Type
REMARK                         _______ _______ _______ _____ _____    ______ ____
ROOT
ATOM      1  N   UNL     1       3.079   5.825  19.044  0.00  0.00    +0.000 N 
ATOM      2  C   UNL     1       3.943   5.690  18.000  0.00  0.00    +0.000 A 
ATOM      3  N   UNL     1       4.797   6.584  17.645  0.00  0.00    +0.000 NA
ATOM      4  N   UNL     1       3.817   4.489  17.365  0.00  0.00    +0.000 N 
ATOM      5  C   UNL     1       2.822   3.861  18.034  0.00  0.00    +0.000 A 
ATOM      6  C   UNL     1       2.269   2.593  17.813  0.00  0.00    +0.000 A 
ATOM      7  C   UNL     1       1.236   2.170  18.667  0.00  0.00    +0.000 A 
ATOM      8  C   UNL     1       0.787   2.998  19.718  0.00  0.00    +0.000 A 
ATOM      9  C   UNL     1       1.366   4.260  19.927  0.00  0.00    +0.000 A 
ATOM     10  C   UNL     1       2.383   4.667  19.056  0.00  0.00    +0.000 A 
ATOM     11  H   UNL     1       4.882   7.489  18.131  0.00  0.00    +0.000 HD
ENDROOT
BRANCH   1  12
ATOM     12  C   UNL     1       2.971   6.932  20.010  0.00  0.00    +0.000 C 
BRANCH  12  17
ATOM     13  C   UNL     1      -0.748  11.161  18.500  0.00  0.00    +0.000 C 
ATOM     14  C   UNL     1       0.176  10.042  18.884  0.00  0.00    +0.000 A 
ATOM     15  C   UNL     1       0.220   9.574  20.204  0.00  0.00    +0.000 A 
ATOM     16  C   UNL     1       1.105   8.554  20.562  0.00  0.00    +0.000 A 
ATOM     17  C   UNL     1       1.960   7.980  19.605  0.00  0.00    +0.000 A 
ATOM     18  C   UNL     1       1.901   8.439  18.278  0.00  0.00    +0.000 A 
ATOM     19  C   UNL     1       1.016   9.464  17.922  0.00  0.00    +0.000 A 
ENDBRANCH  12  17
ENDBRANCH   1  12
BRANCH   4  20
ATOM     20  C   UNL     1       4.595   3.984  16.219  0.00  0.00    +0.000 C 
BRANCH  20  21
ATOM     21  C   UNL     1       5.979   4.664  16.144  0.00  0.00    +0.000 C 
BRANCH  21  22
ATOM     22  C   UNL     1       6.554   4.627  14.752  0.00  0.00    +0.000 A 
ATOM     23  C   UNL     1       6.073   3.873  13.700  0.00  0.00    +0.000 A 
ATOM     24  C   UNL     1       6.879   4.171  12.626  0.00  0.00    +0.000 A 
ATOM     25  C   UNL     1       7.802   5.088  13.080  0.00  0.00    +0.000 A 
ATOM     26  O   UNL     1       7.586   5.338  14.355  0.00  0.00    +0.000 OA
ENDBRANCH  21  22
BRANCH  21  27
ATOM     27  O   UNL     1       6.877   4.071  17.049  0.00  0.00    +0.000 OA
ATOM     28  H   UNL     1       6.351   3.745  17.827  0.00  0.00    +0.000 HD
ENDBRANCH  21  27
ENDBRANCH  20  21
ENDBRANCH   4  20
TORSDOF 6
ENDMDL
MODEL 3
REMARK VINA RESULT:      -7.9      1.776      4.447
REMARK  Name = 
REMARK  7 active torsions:
REMARK  status: ('A' for Active; 'I' for Inactive)
REMARK    1  A    between atoms: C_1  and  C_2
REMARK    2  A    between atoms: C_5  and  C_6
REMARK    3  A    between atoms: C_6  and  N_7
REMARK    4  A    between atoms: N_10  and  C_11
REMARK    5  A    between atoms: C_11  and  C_12
REMARK    6  A    between atoms: C_12  and  O_13
REMARK    7  A    between atoms: C_12  and  C_14
REMARK                            x       y       z     vdW  Elec       q    Type
REMARK                         _______ _______ _______ _____ _____    ______ ____
ROOT
ATOM      1  N   UNL     1       2.576   6.355  19.326  0.00  0.00    +0.000 N 
ATOM      2  C   UNL     1       3.400   6.312  18.243  0.00  0.00    +0.000 A 
ATOM      3  N   UNL     1       4.087   7.312  17.815  0.00  0.00    +0.000 NA
ATOM      4  N   UNL     1       3.434   5.081  17.656  0.00  0.00    +0.000 N 
ATOM      5  C   UNL     1       2.581   4.335  18.396  0.00  0.00    +0.000 A 
ATOM      6  C   UNL     1       2.224   2.989  18.246  0.00  0.00    +0.000 A 
ATOM      7  C   UNL     1       1.310   2.446  19.166  0.00  0.00    +0.000 A 
ATOM      8  C   UNL     1       0.787   3.238  20.211  0.00  0.00    +0.000 A 
ATOM      9  C   UNL     1       1.171   4.581  20.349  0.00  0.00    +0.000 A 
ATOM     10  C   UNL     1       2.071   5.104  19.413  0.00  0.00    +0.000 A 
ATOM     11  H   UNL     1       4.053   8.238  18.267  0.00  0.00    +0.000 HD
ENDROOT
BRANCH   1  12
ATOM     12  C   UNL     1       2.342   7.470  20.260  0.00  0.00    +0.000 C 
BRANCH  12  17
ATOM     13  C   UNL     1      -1.419  11.507  18.374  0.00  0.00    +0.000 C 
ATOM     14  C   UNL     1      -0.482  10.436  18.852  0.00  0.00    +0.000 A 
ATOM     15  C   UNL     1      -0.519   9.999  20.184  0.00  0.00    +0.000 A 
ATOM     16  C   UNL     1       0.376   9.024  20.631  0.00  0.00    +0.000 A 
ATOM     17  C   UNL     1       1.322   8.466  19.756  0.00  0.00    +0.000 A 
ATOM     18  C   UNL     1       1.346   8.893  18.416  0.00  0.00    +0.000 A 
ATOM     19  C   UNL     1       0.450   9.872  17.970  0.00  0.00    +0.000 A 
ENDBRANCH  12  17
ENDBRANCH   1  12
BRANCH   4  20
ATOM     20  C   UNL     1       4.226   4.656  16.488  0.00  0.00    +0.000 C 
BRANCH  20  21
ATOM     21  C   UNL     1       5.509   3.916  16.926  0.00  0.00    +0.000 C 
BRANCH  21  22
ATOM     22  C   UNL     1       6.414   4.792  17.754  0.00  0.00    +0.000 A 
ATOM     23  C   UNL     1       7.188   5.832  17.278  0.00  0.00    +0.000 A 
ATOM     24  C   UNL     1       7.820   6.363  18.378  0.00  0.00    +0.000 A 
ATOM     25  C   UNL     1       7.396   5.622  19.460  0.00  0.00    +0.000 A 
ATOM     26  O   UNL     1       6.560   4.689  19.057  0.00  0.00    +0.000 OA
ENDBRANCH  21  22
BRANCH  21  27
ATOM     27  O   UNL     1       6.209   3.425  15.810  0.00  0.00    +0.000 OA
ATOM     28  H   UNL     1       7.057   3.937  15.736  0.00  0.00    +0.000 HD
ENDBRANCH  21  27
ENDBRANCH  20  21
ENDBRANCH   4  20
TORSDOF 6
ENDMDL
MODEL 4
REMARK VINA RESULT:      -7.8      4.068      7.859
REMARK  Name = 
REMARK  7 active torsions:
REMARK  status: ('A' for Active; 'I' for Inactive)
REMARK    1  A    between atoms: C_1  and  C_2
REMARK    2  A    between atoms: C_5  and  C_6
REMARK    3  A    between atoms: C_6  and  N_7
REMARK    4  A    between atoms: N_10  and  C_11
REMARK    5  A    between atoms: C_11  and  C_12
REMARK    6  A    between atoms: C_12  and  O_13
REMARK    7  A    between atoms: C_12  and  C_14
REMARK                            x       y       z     vdW  Elec       q    Type
REMARK                         _______ _______ _______ _____ _____    ______ ____
ROOT
ATOM      1  N   UNL     1       1.651   8.775  19.690  0.00  0.00    +0.000 N 
ATOM      2  C   UNL     1       1.090   9.492  18.677  0.00  0.00    +0.000 A 
ATOM      3  N   UNL     1       1.442   9.399  17.443  0.00  0.00    +0.000 NA
ATOM      4  N   UNL     1       0.096  10.321  19.106  0.00  0.00    +0.000 N 
ATOM      5  C   UNL     1       0.052  10.124  20.444  0.00  0.00    +0.000 A 
ATOM      6  C   UNL     1      -0.784  10.717  21.399  0.00  0.00    +0.000 A 
ATOM      7  C   UNL     1      -0.629  10.326  22.741  0.00  0.00    +0.000 A 
ATOM      8  C   UNL     1       0.331   9.355  23.099  0.00  0.00    +0.000 A 
ATOM      9  C   UNL     1       1.147   8.764  22.122  0.00  0.00    +0.000 A 
ATOM     10  C   UNL     1       0.986   9.180  20.795  0.00  0.00    +0.000 A 
ATOM     11  H   UNL     1       2.195   8.769  17.130  0.00  0.00    +0.000 HD
ENDROOT
BRANCH   1  12
ATOM     12  C   UNL     1       2.683   7.728  19.614  0.00  0.00    +0.000 C 
BRANCH  12  17
ATOM     13  C   UNL     1       0.728   2.288  18.848  0.00  0.00    +0.000 C 
ATOM     14  C   UNL     1       1.191   3.704  19.034  0.00  0.00    +0.000 A 
ATOM     15  C   UNL     1       1.650   4.453  17.942  0.00  0.00    +0.000 A 
ATOM     16  C   UNL     1       2.108   5.760  18.125  0.00  0.00    +0.000 A 
ATOM     17  C   UNL     1       2.113   6.343  19.404  0.00  0.00    +0.000 A 
ATOM     18  C   UNL     1       1.635   5.596  20.495  0.00  0.00    +0.000 A 
ATOM     19  C   UNL     1       1.179   4.285  20.309  0.00  0.00    +0.000 A 
ENDBRANCH  12  17
ENDBRANCH   1  12
BRANCH   4  20
ATOM     20  C   UNL     1      -0.745  11.221  18.297  0.00  0.00    +0.000 C 
BRANCH  20  21
ATOM     21  C   UNL     1      -2.216  10.748  18.287  0.00  0.00    +0.000 C 
BRANCH  21  22
ATOM     22  C   UNL     1      -2.733  10.535  16.888  0.00  0.00    +0.000 A 
ATOM     23  C   UNL     1      -3.906  11.050  16.374  0.00  0.00    +0.000 A 
ATOM     24  C   UNL     1      -3.959  10.628  15.066  0.00  0.00    +0.000 A 
ATOM     25  C   UNL     1      -2.819   9.882  14.855  0.00  0.00    +0.000 A 
ATOM     26  O   UNL     1      -2.108   9.841  15.963  0.00  0.00    +0.000 OA
ENDBRANCH  21  22
BRANCH  21  27
ATOM     27  O   UNL     1      -3.039  11.662  18.968  0.00  0.00    +0.000 OA
ATOM     28  H   UNL     1      -2.705  11.732  19.902  0.00  0.00    +0.000 HD
ENDBRANCH  21  27
ENDBRANCH  20  21
ENDBRANCH   4  20
TORSDOF 6
ENDMDL
MODEL 5
REMARK VINA RESULT:      -7.8      2.843      5.828
REMARK  Name = 
REMARK  7 active torsions:
REMARK  status: ('A' for Active; 'I' for Inactive)
REMARK    1  A    between atoms: C_1  and  C_2
REMARK    2  A    between atoms: C_5  and  C_6
REMARK    3  A    between atoms: C_6  and  N_7
REMARK    4  A    between atoms: N_10  and  C_11
REMARK    5  A    between atoms: C_11  and  C_12
REMARK    6  A    between atoms: C_12  and  O_13
REMARK    7  A    between atoms: C_12  and  C_14
REMARK                            x       y       z     vdW  Elec       q    Type
REMARK                         _______ _______ _______ _____ _____    ______ ____
ROOT
ATOM      1  N   UNL     1       5.981   5.716  16.937  0.00  0.00    +0.000 N 
ATOM      2  C   UNL     1       6.252   4.749  17.856  0.00  0.00    +0.000 A 
ATOM      3  N   UNL     1       7.258   3.950  17.791  0.00  0.00    +0.000 NA
ATOM      4  N   UNL     1       5.343   4.719  18.872  0.00  0.00    +0.000 N 
ATOM      5  C   UNL     1       4.462   5.697  18.560  0.00  0.00    +0.000 A 
ATOM      6  C   UNL     1       3.317   6.112  19.253  0.00  0.00    +0.000 A 
ATOM      7  C   UNL     1       2.569   7.171  18.710  0.00  0.00    +0.000 A 
ATOM      8  C   UNL     1       2.975   7.798  17.513  0.00  0.00    +0.000 A 
ATOM      9  C   UNL     1       4.134   7.373  16.843  0.00  0.00    +0.000 A 
ATOM     10  C   UNL     1       4.855   6.307  17.394  0.00  0.00    +0.000 A 
ATOM     11  H   UNL     1       7.939   3.981  17.018  0.00  0.00    +0.000 HD
ENDROOT
BRANCH   1  12
ATOM     12  C   UNL     1       6.769   6.109  15.756  0.00  0.00    +0.000 C 
BRANCH  12  17
ATOM     13  C   UNL     1       6.034   2.430  11.293  0.00  0.00    +0.000 C 
ATOM     14  C   UNL     1       6.206   3.410  12.416  0.00  0.00    +0.000 A 
ATOM     15  C   UNL     1       7.346   4.223  12.485  0.00  0.00    +0.000 A 
ATOM     16  C   UNL     1       7.515   5.111  13.550  0.00  0.00    +0.000 A 
ATOM     17  C   UNL     1       6.547   5.206  14.564  0.00  0.00    +0.000 A 
ATOM     18  C   UNL     1       5.396   4.403  14.483  0.00  0.00    +0.000 A 
ATOM     19  C   UNL     1       5.229   3.511  13.417  0.00  0.00    +0.000 A 
ENDBRANCH  12  17
ENDBRANCH   1  12
BRANCH   4  20
ATOM     20  C   UNL     1       5.328   3.831  20.048  0.00  0.00    +0.000 C 
BRANCH  20  21
ATOM     21  C   UNL     1       4.510   2.551  19.767  0.00  0.00    +0.000 C 
BRANCH  21  22
ATOM     22  C   UNL     1       3.100   2.654  20.289  0.00  0.00    +0.000 A 
ATOM     23  C   UNL     1       1.961   2.776  19.518  0.00  0.00    +0.000 A 
ATOM     24  C   UNL     1       0.910   2.807  20.405  0.00  0.00    +0.000 A 
ATOM     25  C   UNL     1       1.465   2.700  21.663  0.00  0.00    +0.000 A 
ATOM     26  O   UNL     1       2.775   2.614  21.562  0.00  0.00    +0.000 OA
ENDBRANCH  21  22
BRANCH  21  27
ATOM     27  O   UNL     1       5.143   1.422  20.318  0.00  0.00    +0.000 OA
ATOM     28  H   UNL     1       6.075   1.400  19.973  0.00  0.00    +0.000 HD
ENDBRANCH  21  27
ENDBRANCH  20  21
ENDBRANCH   4  20
TORSDOF 6
ENDMDL
MODEL 6
REMARK VINA RESULT:      -7.6      2.220      5.616
REMARK  Name = 
REMARK  7 active torsions:
REMARK  status: ('A' for Active; 'I' for Inactive)
REMARK    1  A    between atoms: C_1  and  C_2
REMARK    2  A    between atoms: C_5  and  C_6
REMARK    3  A    between atoms: C_6  and  N_7
REMARK    4  A    between atoms: N_10  and  C_11
REMARK    5  A    between atoms: C_11  and  C_12
REMARK    6  A    between atoms: C_12  and  O_13
REMARK    7  A    between atoms: C_12  and  C_14
REMARK                            x       y       z     vdW  Elec       q    Type
REMARK                         _______ _______ _______ _____ _____    ______ ____
ROOT
ATOM      1  N   UNL     1       5.105   5.540  18.542  0.00  0.00    +0.000 N 
ATOM      2  C   UNL     1       4.687   4.702  19.531  0.00  0.00    +0.000 A 
ATOM      3  N   UNL     1       5.363   3.696  19.961  0.00  0.00    +0.000 NA
ATOM      4  N   UNL     1       3.468   5.050  20.035  0.00  0.00    +0.000 N 
ATOM      5  C   UNL     1       3.108   6.138  19.316  0.00  0.00    +0.000 A 
ATOM      6  C   UNL     1       1.944   6.912  19.405  0.00  0.00    +0.000 A 
ATOM      7  C   UNL     1       1.816   8.009  18.534  0.00  0.00    +0.000 A 
ATOM      8  C   UNL     1       2.841   8.319  17.615  0.00  0.00    +0.000 A 
ATOM      9  C   UNL     1       4.005   7.536  17.554  0.00  0.00    +0.000 A 
ATOM     10  C   UNL     1       4.103   6.440  18.420  0.00  0.00    +0.000 A 
ATOM     11  H   UNL     1       6.283   3.443  19.572  0.00  0.00    +0.000 HD
ENDROOT
BRANCH   1  12
ATOM     12  C   UNL     1       6.388   5.542  17.819  0.00  0.00    +0.000 C 
BRANCH  12  17
ATOM     13  C   UNL     1       5.878   3.434  12.407  0.00  0.00    +0.000 C 
ATOM     14  C   UNL     1       6.030   3.938  13.812  0.00  0.00    +0.000 A 
ATOM     15  C   UNL     1       5.099   3.589  14.800  0.00  0.00    +0.000 A 
ATOM     16  C   UNL     1       5.229   4.087  16.099  0.00  0.00    +0.000 A 
ATOM     17  C   UNL     1       6.293   4.941  16.435  0.00  0.00    +0.000 A 
ATOM     18  C   UNL     1       7.236   5.275  15.447  0.00  0.00    +0.000 A 
ATOM     19  C   UNL     1       7.103   4.777  14.145  0.00  0.00    +0.000 A 
ENDBRANCH  12  17
ENDBRANCH   1  12
BRANCH   4  20
ATOM     20  C   UNL     1       2.718   4.396  21.123  0.00  0.00    +0.000 C 
BRANCH  20  21
ATOM     21  C   UNL     1       1.713   3.365  20.562  0.00  0.00    +0.000 C 
BRANCH  21  22
ATOM     22  C   UNL     1       2.227   2.694  19.315  0.00  0.00    +0.000 A 
ATOM     23  C   UNL     1       1.798   2.946  18.027  0.00  0.00    +0.000 A 
ATOM     24  C   UNL     1       2.555   2.135  17.214  0.00  0.00    +0.000 A 
ATOM     25  C   UNL     1       3.401   1.436  18.048  0.00  0.00    +0.000 A 
ATOM     26  O   UNL     1       3.180   1.788  19.298  0.00  0.00    +0.000 OA
ENDBRANCH  21  22
BRANCH  21  27
ATOM     27  O   UNL     1       0.470   3.970  20.304  0.00  0.00    +0.000 OA
ATOM     28  H   UNL     1       0.044   3.475  19.554  0.00  0.00    +0.000 HD
ENDBRANCH  21  27
ENDBRANCH  20  21
ENDBRANCH   4  20
TORSDOF 6
ENDMDL
MODEL 7
REMARK VINA RESULT:      -7.6      2.194      4.502
REMARK  Name = 
REMARK  7 active torsions:
REMARK  status: ('A' for Active; 'I' for Inactive)
REMARK    1  A    between atoms: C_1  and  C_2
REMARK    2  A    between atoms: C_5  and  C_6
REMARK    3  A    between atoms: C_6  and  N_7
REMARK    4  A    between atoms: N_10  and  C_11
REMARK    5  A    between atoms: C_11  and  C_12
REMARK    6  A    between atoms: C_12  and  O_13
REMARK    7  A    between atoms: C_12  and  C_14
REMARK                            x       y       z     vdW  Elec       q    Type
REMARK                         _______ _______ _______ _____ _____    ______ ____
ROOT
ATOM      1  N   UNL     1       3.417   6.457  17.753  0.00  0.00    +0.000 N 
ATOM      2  C   UNL     1       4.737   6.182  17.947  0.00  0.00    +0.000 A 
ATOM      3  N   UNL     1       5.673   7.064  17.920  0.00  0.00    +0.000 NA
ATOM      4  N   UNL     1       4.969   4.859  18.187  0.00  0.00    +0.000 N 
ATOM      5  C   UNL     1       3.743   4.289  18.122  0.00  0.00    +0.000 A 
ATOM      6  C   UNL     1       3.382   2.946  18.288  0.00  0.00    +0.000 A 
ATOM      7  C   UNL     1       2.020   2.614  18.176  0.00  0.00    +0.000 A 
ATOM      8  C   UNL     1       1.056   3.611  17.919  0.00  0.00    +0.000 A 
ATOM      9  C   UNL     1       1.442   4.953  17.769  0.00  0.00    +0.000 A 
ATOM     10  C   UNL     1       2.804   5.258  17.870  0.00  0.00    +0.000 A 
ATOM     11  H   UNL     1       5.486   8.061  17.736  0.00  0.00    +0.000 HD
ENDROOT
BRANCH   1  12
ATOM     12  C   UNL     1       2.771   7.766  17.553  0.00  0.00    +0.000 C 
BRANCH  12  17
ATOM     13  C   UNL     1       0.020   9.750  22.295  0.00  0.00    +0.000 C 
ATOM     14  C   UNL     1       0.693   9.213  21.066  0.00  0.00    +0.000 A 
ATOM     15  C   UNL     1       1.425   8.019  21.118  0.00  0.00    +0.000 A 
ATOM     16  C   UNL     1       2.075   7.540  19.978  0.00  0.00    +0.000 A 
ATOM     17  C   UNL     1       2.003   8.243  18.764  0.00  0.00    +0.000 A 
ATOM     18  C   UNL     1       1.252   9.431  18.709  0.00  0.00    +0.000 A 
ATOM     19  C   UNL     1       0.604   9.911  19.853  0.00  0.00    +0.000 A 
ENDBRANCH  12  17
ENDBRANCH   1  12
BRANCH   4  20
ATOM     20  C   UNL     1       6.258   4.201  18.464  0.00  0.00    +0.000 C 
BRANCH  20  21
ATOM     21  C   UNL     1       7.360   4.716  17.512  0.00  0.00    +0.000 C 
BRANCH  21  22
ATOM     22  C   UNL     1       6.981   4.547  16.064  0.00  0.00    +0.000 A 
ATOM     23  C   UNL     1       6.080   3.626  15.566  0.00  0.00    +0.000 A 
ATOM     24  C   UNL     1       6.025   3.850  14.210  0.00  0.00    +0.000 A 
ATOM     25  C   UNL     1       6.891   4.892  13.957  0.00  0.00    +0.000 A 
ATOM     26  O   UNL     1       7.450   5.286  15.082  0.00  0.00    +0.000 OA
ENDBRANCH  21  22
BRANCH  21  27
ATOM     27  O   UNL     1       8.582   4.067  17.765  0.00  0.00    +0.000 OA
ATOM     28  H   UNL     1       8.835   3.569  16.944  0.00  0.00    +0.000 HD
ENDBRANCH  21  27
ENDBRANCH  20  21
ENDBRANCH   4  20
TORSDOF 6
ENDMDL
MODEL 8
REMARK VINA RESULT:      -7.5      2.159      4.262
REMARK  Name = 
REMARK  7 active torsions:
REMARK  status: ('A' for Active; 'I' for Inactive)
REMARK    1  A    between atoms: C_1  and  C_2
REMARK    2  A    between atoms: C_5  and  C_6
REMARK    3  A    between atoms: C_6  and  N_7
REMARK    4  A    between atoms: N_10  and  C_11
REMARK    5  A    between atoms: C_11  and  C_12
REMARK    6  A    between atoms: C_12  and  O_13
REMARK    7  A    between atoms: C_12  and  C_14
REMARK                            x       y       z     vdW  Elec       q    Type
REMARK                         _______ _______ _______ _____ _____    ______ ____
ROOT
ATOM      1  N   UNL     1       3.340   6.366  17.784  0.00  0.00    +0.000 N 
ATOM      2  C   UNL     1       4.675   6.261  18.029  0.00  0.00    +0.000 A 
ATOM      3  N   UNL     1       5.502   7.245  17.975  0.00  0.00    +0.000 NA
ATOM      4  N   UNL     1       5.052   4.991  18.355  0.00  0.00    +0.000 N 
ATOM      5  C   UNL     1       3.904   4.276  18.290  0.00  0.00    +0.000 A 
ATOM      6  C   UNL     1       3.697   2.911  18.527  0.00  0.00    +0.000 A 
ATOM      7  C   UNL     1       2.389   2.413  18.398  0.00  0.00    +0.000 A 
ATOM      8  C   UNL     1       1.324   3.274  18.055  0.00  0.00    +0.000 A 
ATOM      9  C   UNL     1       1.554   4.641  17.836  0.00  0.00    +0.000 A 
ATOM     10  C   UNL     1       2.868   5.111  17.955  0.00  0.00    +0.000 A 
ATOM     11  H   UNL     1       5.206   8.200  17.727  0.00  0.00    +0.000 HD
ENDROOT
BRANCH   1  12
ATOM     12  C   UNL     1       2.552   7.575  17.487  0.00  0.00    +0.000 C 
BRANCH  12  17
ATOM     13  C   UNL     1       0.003   9.902  22.187  0.00  0.00    +0.000 C 
ATOM     14  C   UNL     1       0.695   9.328  20.985  0.00  0.00    +0.000 A 
ATOM     15  C   UNL     1       0.666  10.001  19.756  0.00  0.00    +0.000 A 
ATOM     16  C   UNL     1       1.286   9.446  18.634  0.00  0.00    +0.000 A 
ATOM     17  C   UNL     1       1.950   8.211  18.720  0.00  0.00    +0.000 A 
ATOM     18  C   UNL     1       1.994   7.547  19.958  0.00  0.00    +0.000 A 
ATOM     19  C   UNL     1       1.370   8.102  21.082  0.00  0.00    +0.000 A 
ENDBRANCH  12  17
ENDBRANCH   1  12
BRANCH   4  20
ATOM     20  C   UNL     1       6.399   4.507  18.706  0.00  0.00    +0.000 C 
BRANCH  20  21
ATOM     21  C   UNL     1       7.407   4.799  17.572  0.00  0.00    +0.000 C 
BRANCH  21  22
ATOM     22  C   UNL     1       6.779   4.668  16.209  0.00  0.00    +0.000 A 
ATOM     23  C   UNL     1       6.231   3.517  15.679  0.00  0.00    +0.000 A 
ATOM     24  C   UNL     1       5.754   3.866  14.437  0.00  0.00    +0.000 A 
ATOM     25  C   UNL     1       6.036   5.206  14.279  0.00  0.00    +0.000 A 
ATOM     26  O   UNL     1       6.652   5.658  15.352  0.00  0.00    +0.000 OA
ENDBRANCH  21  22
BRANCH  21  27
ATOM     27  O   UNL     1       8.525   3.951  17.668  0.00  0.00    +0.000 OA
ATOM     28  H   UNL     1       8.461   3.284  16.934  0.00  0.00    +0.000 HD
ENDBRANCH  21  27
ENDBRANCH  20  21
ENDBRANCH   4  20
TORSDOF 6
ENDMDL
MODEL 9
REMARK VINA RESULT:      -7.5      4.273      7.862
REMARK  Name = 
REMARK  7 active torsions:
REMARK  status: ('A' for Active; 'I' for Inactive)
REMARK    1  A    between atoms: C_1  and  C_2
REMARK    2  A    between atoms: C_5  and  C_6
REMARK    3  A    between atoms: C_6  and  N_7
REMARK    4  A    between atoms: N_10  and  C_11
REMARK    5  A    between atoms: C_11  and  C_12
REMARK    6  A    between atoms: C_12  and  O_13
REMARK    7  A    between atoms: C_12  and  C_14
REMARK                            x       y       z     vdW  Elec       q    Type
REMARK                         _______ _______ _______ _____ _____    ______ ____
ROOT
ATOM      1  N   UNL     1       1.722   8.827  19.671  0.00  0.00    +0.000 N 
ATOM      2  C   UNL     1       1.142   9.535  18.663  0.00  0.00    +0.000 A 
ATOM      3  N   UNL     1       1.506   9.474  17.432  0.00  0.00    +0.000 NA
ATOM      4  N   UNL     1       0.113  10.320  19.096  0.00  0.00    +0.000 N 
ATOM      5  C   UNL     1       0.066  10.102  20.431  0.00  0.00    +0.000 A 
ATOM      6  C   UNL     1      -0.799  10.649  21.387  0.00  0.00    +0.000 A 
ATOM      7  C   UNL     1      -0.639  10.244  22.724  0.00  0.00    +0.000 A 
ATOM      8  C   UNL     1       0.354   9.306  23.077  0.00  0.00    +0.000 A 
ATOM      9  C   UNL     1       1.200   8.761  22.098  0.00  0.00    +0.000 A 
ATOM     10  C   UNL     1       1.033   9.190  20.776  0.00  0.00    +0.000 A 
ATOM     11  H   UNL     1       2.286   8.878  17.116  0.00  0.00    +0.000 HD
ENDROOT
BRANCH   1  12
ATOM     12  C   UNL     1       2.794   7.820  19.589  0.00  0.00    +0.000 C 
BRANCH  12  17
ATOM     13  C   UNL     1       0.556   2.486  18.860  0.00  0.00    +0.000 C 
ATOM     14  C   UNL     1       1.171   3.840  19.059  0.00  0.00    +0.000 A 
ATOM     15  C   UNL     1       1.232   4.416  20.335  0.00  0.00    +0.000 A 
ATOM     16  C   UNL     1       1.778   5.690  20.509  0.00  0.00    +0.000 A 
ATOM     17  C   UNL     1       2.277   6.411  19.411  0.00  0.00    +0.000 A 
ATOM     18  C   UNL     1       2.231   5.824  18.134  0.00  0.00    +0.000 A 
ATOM     19  C   UNL     1       1.681   4.548  17.961  0.00  0.00    +0.000 A 
ENDBRANCH  12  17
ENDBRANCH   1  12
BRANCH   4  20
ATOM     20  C   UNL     1      -0.756  11.199  18.293  0.00  0.00    +0.000 C 
BRANCH  20  21
ATOM     21  C   UNL     1      -2.203  10.661  18.251  0.00  0.00    +0.000 C 
BRANCH  21  22
ATOM     22  C   UNL     1      -2.722  10.540  16.841  0.00  0.00    +0.000 A 
ATOM     23  C   UNL     1      -2.285   9.635  15.895  0.00  0.00    +0.000 A 
ATOM     24  C   UNL     1      -3.050   9.864  14.775  0.00  0.00    +0.000 A 
ATOM     25  C   UNL     1      -3.908  10.893  15.100  0.00  0.00    +0.000 A 
ATOM     26  O   UNL     1      -3.687  11.279  16.339  0.00  0.00    +0.000 OA
ENDBRANCH  21  22
BRANCH  21  27
ATOM     27  O   UNL     1      -3.061  11.477  19.008  0.00  0.00    +0.000 OA
ATOM     28  H   UNL     1      -3.785  10.901  19.370  0.00  0.00    +0.000 HD
ENDBRANCH  21  27
ENDBRANCH  20  21
ENDBRANCH   4  20
TORSDOF 6
ENDMDL
