MODEL 1
REMARK VINA RESULT:      -6.7      0.000      0.000
REMARK  Name = 
REMARK  4 active torsions:
REMARK  status: ('A' for Active; 'I' for Inactive)
REMARK    1  A    between atoms: C_1  and  C_2
REMARK    2  A    between atoms: C_2  and  S_3
REMARK    3  A    between atoms: S_3  and  N_6
REMARK    4  A    between atoms: C_10  and  C_12
REMARK                            x       y       z     vdW  Elec       q    Type
REMARK                         _______ _______ _______ _____ _____    ______ ____
ROOT
ATOM      1  N   UNL     1       6.494   5.237  16.723  0.00  0.00    +0.000 NA
ATOM      2  C   UNL     1       6.176   6.492  17.480  0.00  0.00    +0.000 C 
ATOM      3  C   UNL     1       4.665   6.762  17.524  0.00  0.00    +0.000 C 
ATOM      4  N   UNL     1       3.938   5.599  18.056  0.00  0.00    +0.000 N 
ATOM      5  C   UNL     1       2.803   5.839  18.844  0.00  0.00    +0.000 C 
ATOM      6  O   UNL     1       2.446   7.001  19.064  0.00  0.00    +0.000 OA
ATOM      7  C   UNL     1       4.219   4.354  17.328  0.00  0.00    +0.000 C 
ATOM      8  C   UNL     1       5.732   4.072  17.275  0.00  0.00    +0.000 C 
ENDROOT
BRANCH   5   9
ATOM      9  C   UNL     1       2.088   4.702  19.418  0.00  0.00    +0.000 A 
ATOM     10  C   UNL     1       1.261   3.761  18.824  0.00  0.00    +0.000 A 
ATOM     11  C   UNL     1       0.724   2.829  19.759  0.00  0.00    +0.000 A 
ATOM     12  C   UNL     1       1.238   3.017  21.020  0.00  0.00    +0.000 A 
ATOM     13  S   UNL     1       2.323   4.335  21.081  0.00  0.00    +0.000 S 
ENDBRANCH   5   9
BRANCH   1  14
ATOM     14  S   UNL     1       6.540   5.382  15.028  0.00  0.00    +0.000 S 
ATOM     15  O   UNL     1       7.903   5.665  14.641  0.00  0.00    +0.000 OA
ATOM     16  O   UNL     1       5.452   6.240  14.619  0.00  0.00    +0.000 OA
BRANCH  14  18
ATOM     17  C   UNL     1       5.952   3.622  13.028  0.00  0.00    +0.000 C 
ATOM     18  C   UNL     1       6.167   3.704  14.527  0.00  0.00    +0.000 C 
ENDBRANCH  14  18
ENDBRANCH   1  14
TORSDOF 3
ENDMDL
MODEL 2
REMARK VINA RESULT:      -6.5      2.300      3.295
REMARK  Name = 
REMARK  4 active torsions:
REMARK  status: ('A' for Active; 'I' for Inactive)
REMARK    1  A    between atoms: C_1  and  C_2
REMARK    2  A    between atoms: C_2  and  S_3
REMARK    3  A    between atoms: S_3  and  N_6
REMARK    4  A    between atoms: C_10  and  C_12
REMARK                            x       y       z     vdW  Elec       q    Type
REMARK                         _______ _______ _______ _____ _____    ______ ____
ROOT
ATOM      1  N   UNL     1       5.683   5.985  17.035  0.00  0.00    +0.000 NA
ATOM      2  C   UNL     1       4.922   5.091  16.101  0.00  0.00    +0.000 C 
ATOM      3  C   UNL     1       4.778   3.671  16.666  0.00  0.00    +0.000 C 
ATOM      4  N   UNL     1       4.182   3.697  18.011  0.00  0.00    +0.000 N 
ATOM      5  C   UNL     1       3.323   2.649  18.367  0.00  0.00    +0.000 C 
ATOM      6  O   UNL     1       3.094   1.743  17.559  0.00  0.00    +0.000 OA
ATOM      7  C   UNL     1       4.912   4.556  18.955  0.00  0.00    +0.000 C 
ATOM      8  C   UNL     1       5.064   5.984  18.399  0.00  0.00    +0.000 C 
ENDROOT
BRANCH   5   9
ATOM      9  C   UNL     1       2.686   2.673  19.682  0.00  0.00    +0.000 A 
ATOM     10  C   UNL     1       3.199   2.400  20.941  0.00  0.00    +0.000 A 
ATOM     11  C   UNL     1       2.221   2.503  21.971  0.00  0.00    +0.000 A 
ATOM     12  C   UNL     1       1.015   2.955  21.488  0.00  0.00    +0.000 A 
ATOM     13  S   UNL     1       1.055   3.208  19.799  0.00  0.00    +0.000 S 
ENDBRANCH   5   9
BRANCH   1  14
ATOM     14  S   UNL     1       7.379   5.861  16.968  0.00  0.00    +0.000 S 
ATOM     15  O   UNL     1       7.814   6.375  15.689  0.00  0.00    +0.000 OA
ATOM     16  O   UNL     1       7.752   4.537  17.410  0.00  0.00    +0.000 OA
BRANCH  14  18
ATOM     17  C   UNL     1       7.849   8.455  17.670  0.00  0.00    +0.000 C 
ATOM     18  C   UNL     1       7.862   7.043  18.224  0.00  0.00    +0.000 C 
ENDBRANCH  14  18
ENDBRANCH   1  14
TORSDOF 3
ENDMDL
MODEL 3
REMARK VINA RESULT:      -6.5      2.253      3.232
REMARK  Name = 
REMARK  4 active torsions:
REMARK  status: ('A' for Active; 'I' for Inactive)
REMARK    1  A    between atoms: C_1  and  C_2
REMARK    2  A    between atoms: C_2  and  S_3
REMARK    3  A    between atoms: S_3  and  N_6
REMARK    4  A    between atoms: C_10  and  C_12
REMARK                            x       y       z     vdW  Elec       q    Type
REMARK                         _______ _______ _______ _____ _____    ______ ____
ROOT
ATOM      1  N   UNL     1       5.411   6.147  16.627  0.00  0.00    +0.000 NA
ATOM      2  C   UNL     1       4.951   4.984  15.800  0.00  0.00    +0.000 C 
ATOM      3  C   UNL     1       5.019   3.666  16.585  0.00  0.00    +0.000 C 
ATOM      4  N   UNL     1       4.279   3.768  17.851  0.00  0.00    +0.000 N 
ATOM      5  C   UNL     1       3.602   2.629  18.309  0.00  0.00    +0.000 C 
ATOM      6  O   UNL     1       3.648   1.584  17.651  0.00  0.00    +0.000 OA
ATOM      7  C   UNL     1       4.714   4.893  18.692  0.00  0.00    +0.000 C 
ATOM      8  C   UNL     1       4.651   6.221  17.916  0.00  0.00    +0.000 C 
ENDROOT
BRANCH   5   9
ATOM      9  C   UNL     1       2.825   2.716  19.543  0.00  0.00    +0.000 A 
ATOM     10  C   UNL     1       3.206   2.549  20.866  0.00  0.00    +0.000 A 
ATOM     11  C   UNL     1       2.118   2.682  21.776  0.00  0.00    +0.000 A 
ATOM     12  C   UNL     1       0.959   3.052  21.136  0.00  0.00    +0.000 A 
ATOM     13  S   UNL     1       1.175   3.192  19.447  0.00  0.00    +0.000 S 
ENDBRANCH   5   9
BRANCH   1  14
ATOM     14  S   UNL     1       7.095   6.372  16.723  0.00  0.00    +0.000 S 
ATOM     15  O   UNL     1       7.340   7.735  17.139  0.00  0.00    +0.000 OA
ATOM     16  O   UNL     1       7.690   5.839  15.520  0.00  0.00    +0.000 OA
BRANCH  14  18
ATOM     17  C   UNL     1       8.114   6.093  19.238  0.00  0.00    +0.000 C 
ATOM     18  C   UNL     1       7.510   5.299  18.094  0.00  0.00    +0.000 C 
ENDBRANCH  14  18
ENDBRANCH   1  14
TORSDOF 3
ENDMDL
MODEL 4
REMARK VINA RESULT:      -6.5      2.393      6.240
REMARK  Name = 
REMARK  4 active torsions:
REMARK  status: ('A' for Active; 'I' for Inactive)
REMARK    1  A    between atoms: C_1  and  C_2
REMARK    2  A    between atoms: C_2  and  S_3
REMARK    3  A    between atoms: S_3  and  N_6
REMARK    4  A    between atoms: C_10  and  C_12
REMARK                            x       y       z     vdW  Elec       q    Type
REMARK                         _______ _______ _______ _____ _____    ______ ____
ROOT
ATOM      1  N   UNL     1       3.122   3.200  19.034  0.00  0.00    +0.000 NA
ATOM      2  C   UNL     1       3.915   2.518  17.960  0.00  0.00    +0.000 C 
ATOM      3  C   UNL     1       4.374   3.506  16.878  0.00  0.00    +0.000 C 
ATOM      4  N   UNL     1       5.108   4.634  17.472  0.00  0.00    +0.000 N 
ATOM      5  C   UNL     1       6.176   5.178  16.745  0.00  0.00    +0.000 C 
ATOM      6  O   UNL     1       6.467   4.706  15.641  0.00  0.00    +0.000 OA
ATOM      7  C   UNL     1       4.351   5.332  18.522  0.00  0.00    +0.000 C 
ATOM      8  C   UNL     1       3.884   4.352  19.613  0.00  0.00    +0.000 C 
ENDROOT
BRANCH   5   9
ATOM      9  C   UNL     1       6.945   6.272  17.332  0.00  0.00    +0.000 A 
ATOM     10  C   UNL     1       7.050   7.604  16.963  0.00  0.00    +0.000 A 
ATOM     11  C   UNL     1       7.951   8.337  17.788  0.00  0.00    +0.000 A 
ATOM     12  C   UNL     1       8.429   7.574  18.827  0.00  0.00    +0.000 A 
ATOM     13  S   UNL     1       7.828   5.976  18.778  0.00  0.00    +0.000 S 
ENDBRANCH   5   9
BRANCH   1  14
ATOM     14  S   UNL     1       1.478   3.473  18.685  0.00  0.00    +0.000 S 
ATOM     15  O   UNL     1       0.886   2.210  18.308  0.00  0.00    +0.000 OA
ATOM     16  O   UNL     1       1.387   4.630  17.824  0.00  0.00    +0.000 OA
BRANCH  14  18
ATOM     17  C   UNL     1       1.230   2.864  21.332  0.00  0.00    +0.000 C 
ATOM     18  C   UNL     1       0.849   3.911  20.303  0.00  0.00    +0.000 C 
ENDBRANCH  14  18
ENDBRANCH   1  14
TORSDOF 3
ENDMDL
MODEL 5
REMARK VINA RESULT:      -6.5      2.066      3.115
REMARK  Name = 
REMARK  4 active torsions:
REMARK  status: ('A' for Active; 'I' for Inactive)
REMARK    1  A    between atoms: C_1  and  C_2
REMARK    2  A    between atoms: C_2  and  S_3
REMARK    3  A    between atoms: S_3  and  N_6
REMARK    4  A    between atoms: C_10  and  C_12
REMARK                            x       y       z     vdW  Elec       q    Type
REMARK                         _______ _______ _______ _____ _____    ______ ____
ROOT
ATOM      1  N   UNL     1       5.605   5.442  16.010  0.00  0.00    +0.000 NA
ATOM      2  C   UNL     1       5.132   4.142  15.431  0.00  0.00    +0.000 C 
ATOM      3  C   UNL     1       5.046   3.042  16.499  0.00  0.00    +0.000 C 
ATOM      4  N   UNL     1       4.215   3.474  17.634  0.00  0.00    +0.000 N 
ATOM      5  C   UNL     1       3.427   2.508  18.274  0.00  0.00    +0.000 C 
ATOM      6  O   UNL     1       3.451   1.338  17.879  0.00  0.00    +0.000 OA
ATOM      7  C   UNL     1       4.660   4.741  18.232  0.00  0.00    +0.000 C 
ATOM      8  C   UNL     1       4.752   5.853  17.171  0.00  0.00    +0.000 C 
ENDROOT
BRANCH   5   9
ATOM      9  C   UNL     1       2.562   2.920  19.377  0.00  0.00    +0.000 A 
ATOM     10  C   UNL     1       1.320   3.537  19.372  0.00  0.00    +0.000 A 
ATOM     11  C   UNL     1       0.831   3.806  20.683  0.00  0.00    +0.000 A 
ATOM     12  C   UNL     1       1.659   3.293  21.653  0.00  0.00    +0.000 A 
ATOM     13  S   UNL     1       3.036   2.535  20.985  0.00  0.00    +0.000 S 
ENDBRANCH   5   9
BRANCH   1  14
ATOM     14  S   UNL     1       7.288   5.600  16.209  0.00  0.00    +0.000 S 
ATOM     15  O   UNL     1       7.878   5.766  14.901  0.00  0.00    +0.000 OA
ATOM     16  O   UNL     1       7.735   4.559  17.106  0.00  0.00    +0.000 OA
BRANCH  14  18
ATOM     17  C   UNL     1       7.980   7.002  18.445  0.00  0.00    +0.000 C 
ATOM     18  C   UNL     1       7.390   7.173  17.058  0.00  0.00    +0.000 C 
ENDBRANCH  14  18
ENDBRANCH   1  14
TORSDOF 3
ENDMDL
MODEL 6
REMARK VINA RESULT:      -6.4      1.268      1.379
REMARK  Name = 
REMARK  4 active torsions:
REMARK  status: ('A' for Active; 'I' for Inactive)
REMARK    1  A    between atoms: C_1  and  C_2
REMARK    2  A    between atoms: C_2  and  S_3
REMARK    3  A    between atoms: S_3  and  N_6
REMARK    4  A    between atoms: C_10  and  C_12
REMARK                            x       y       z     vdW  Elec       q    Type
REMARK                         _______ _______ _______ _____ _____    ______ ____
ROOT
ATOM      1  N   UNL     1       6.782   4.124  15.927  0.00  0.00    +0.000 NA
ATOM      2  C   UNL     1       7.144   4.871  17.175  0.00  0.00    +0.000 C 
ATOM      3  C   UNL     1       5.941   5.629  17.753  0.00  0.00    +0.000 C 
ATOM      4  N   UNL     1       4.800   4.725  17.964  0.00  0.00    +0.000 N 
ATOM      5  C   UNL     1       3.972   4.961  19.070  0.00  0.00    +0.000 C 
ATOM      6  O   UNL     1       4.215   5.908  19.826  0.00  0.00    +0.000 OA
ATOM      7  C   UNL     1       4.412   3.986  16.754  0.00  0.00    +0.000 C 
ATOM      8  C   UNL     1       5.611   3.221  16.164  0.00  0.00    +0.000 C 
ENDROOT
BRANCH   5   9
ATOM      9  C   UNL     1       2.857   4.052  19.325  0.00  0.00    +0.000 A 
ATOM     10  C   UNL     1       1.490   4.236  19.183  0.00  0.00    +0.000 A 
ATOM     11  C   UNL     1       0.735   3.096  19.582  0.00  0.00    +0.000 A 
ATOM     12  C   UNL     1       1.546   2.037  19.917  0.00  0.00    +0.000 A 
ATOM     13  S   UNL     1       3.203   2.433  19.792  0.00  0.00    +0.000 S 
ENDBRANCH   5   9
BRANCH   1  14
ATOM     14  S   UNL     1       6.758   5.039  14.492  0.00  0.00    +0.000 S 
ATOM     15  O   UNL     1       8.120   5.406  14.174  0.00  0.00    +0.000 OA
ATOM     16  O   UNL     1       5.722   6.039  14.612  0.00  0.00    +0.000 OA
BRANCH  14  18
ATOM     17  C   UNL     1       7.034   3.919  12.020  0.00  0.00    +0.000 C 
ATOM     18  C   UNL     1       6.234   3.807  13.304  0.00  0.00    +0.000 C 
ENDBRANCH  14  18
ENDBRANCH   1  14
TORSDOF 3
ENDMDL
MODEL 7
REMARK VINA RESULT:      -6.4      1.555      1.844
REMARK  Name = 
REMARK  4 active torsions:
REMARK  status: ('A' for Active; 'I' for Inactive)
REMARK    1  A    between atoms: C_1  and  C_2
REMARK    2  A    between atoms: C_2  and  S_3
REMARK    3  A    between atoms: S_3  and  N_6
REMARK    4  A    between atoms: C_10  and  C_12
REMARK                            x       y       z     vdW  Elec       q    Type
REMARK                         _______ _______ _______ _____ _____    ______ ____
ROOT
ATOM      1  N   UNL     1       6.407   5.827  17.545  0.00  0.00    +0.000 NA
ATOM      2  C   UNL     1       5.187   6.530  17.029  0.00  0.00    +0.000 C 
ATOM      3  C   UNL     1       3.991   5.575  16.906  0.00  0.00    +0.000 C 
ATOM      4  N   UNL     1       3.733   4.888  18.180  0.00  0.00    +0.000 N 
ATOM      5  C   UNL     1       2.401   4.612  18.519  0.00  0.00    +0.000 C 
ATOM      6  O   UNL     1       1.493   4.945  17.751  0.00  0.00    +0.000 OA
ATOM      7  C   UNL     1       4.908   4.178  18.708  0.00  0.00    +0.000 C 
ATOM      8  C   UNL     1       6.115   5.125  18.835  0.00  0.00    +0.000 C 
ENDROOT
BRANCH   5   9
ATOM      9  C   UNL     1       2.116   3.967  19.799  0.00  0.00    +0.000 A 
ATOM     10  C   UNL     1       2.283   4.422  21.098  0.00  0.00    +0.000 A 
ATOM     11  C   UNL     1       1.914   3.452  22.074  0.00  0.00    +0.000 A 
ATOM     12  C   UNL     1       1.376   2.326  21.499  0.00  0.00    +0.000 A 
ATOM     13  S   UNL     1       1.360   2.422  19.793  0.00  0.00    +0.000 S 
ENDBRANCH   5   9
BRANCH   1  14
ATOM     14  S   UNL     1       7.309   4.958  16.392  0.00  0.00    +0.000 S 
ATOM     15  O   UNL     1       8.261   4.133  17.100  0.00  0.00    +0.000 OA
ATOM     16  O   UNL     1       7.735   5.879  15.365  0.00  0.00    +0.000 OA
BRANCH  14  18
ATOM     17  C   UNL     1       6.041   3.951  14.197  0.00  0.00    +0.000 C 
ATOM     18  C   UNL     1       6.052   3.879  15.712  0.00  0.00    +0.000 C 
ENDBRANCH  14  18
ENDBRANCH   1  14
TORSDOF 3
ENDMDL
MODEL 8
REMARK VINA RESULT:      -6.3      2.246      3.158
REMARK  Name = 
REMARK  4 active torsions:
REMARK  status: ('A' for Active; 'I' for Inactive)
REMARK    1  A    between atoms: C_1  and  C_2
REMARK    2  A    between atoms: C_2  and  S_3
REMARK    3  A    between atoms: S_3  and  N_6
REMARK    4  A    between atoms: C_10  and  C_12
REMARK                            x       y       z     vdW  Elec       q    Type
REMARK                         _______ _______ _______ _____ _____    ______ ____
ROOT
ATOM      1  N   UNL     1       5.689   6.239  17.350  0.00  0.00    +0.000 NA
ATOM      2  C   UNL     1       4.830   5.599  16.300  0.00  0.00    +0.000 C 
ATOM      3  C   UNL     1       4.527   4.131  16.631  0.00  0.00    +0.000 C 
ATOM      4  N   UNL     1       3.941   4.004  17.973  0.00  0.00    +0.000 N 
ATOM      5  C   UNL     1       2.968   3.014  18.174  0.00  0.00    +0.000 C 
ATOM      6  O   UNL     1       2.636   2.284  17.234  0.00  0.00    +0.000 OA
ATOM      7  C   UNL     1       4.765   4.611  19.029  0.00  0.00    +0.000 C 
ATOM      8  C   UNL     1       5.077   6.084  18.708  0.00  0.00    +0.000 C 
ENDROOT
BRANCH   5   9
ATOM      9  C   UNL     1       2.341   2.895  19.488  0.00  0.00    +0.000 A 
ATOM     10  C   UNL     1       1.036   3.130  19.892  0.00  0.00    +0.000 A 
ATOM     11  C   UNL     1       0.846   2.931  21.290  0.00  0.00    +0.000 A 
ATOM     12  C   UNL     1       1.981   2.448  21.897  0.00  0.00    +0.000 A 
ATOM     13  S   UNL     1       3.276   2.280  20.794  0.00  0.00    +0.000 S 
ENDBRANCH   5   9
BRANCH   1  14
ATOM     14  S   UNL     1       7.360   5.939  17.229  0.00  0.00    +0.000 S 
ATOM     15  O   UNL     1       7.775   6.258  15.882  0.00  0.00    +0.000 OA
ATOM     16  O   UNL     1       7.628   4.642  17.808  0.00  0.00    +0.000 OA
BRANCH  14  18
ATOM     17  C   UNL     1       7.949   8.567  17.662  0.00  0.00    +0.000 C 
ATOM     18  C   UNL     1       8.017   7.200  18.317  0.00  0.00    +0.000 C 
ENDBRANCH  14  18
ENDBRANCH   1  14
TORSDOF 3
ENDMDL
MODEL 9
REMARK VINA RESULT:      -6.2      1.906      6.324
REMARK  Name = 
REMARK  4 active torsions:
REMARK  status: ('A' for Active; 'I' for Inactive)
REMARK    1  A    between atoms: C_1  and  C_2
REMARK    2  A    between atoms: C_2  and  S_3
REMARK    3  A    between atoms: S_3  and  N_6
REMARK    4  A    between atoms: C_10  and  C_12
REMARK                            x       y       z     vdW  Elec       q    Type
REMARK                         _______ _______ _______ _____ _____    ______ ____
ROOT
ATOM      1  N   UNL     1       3.287   4.561  18.388  0.00  0.00    +0.000 NA
ATOM      2  C   UNL     1       4.128   5.802  18.419  0.00  0.00    +0.000 C 
ATOM      3  C   UNL     1       5.559   5.531  17.932  0.00  0.00    +0.000 C 
ATOM      4  N   UNL     1       5.553   4.903  16.603  0.00  0.00    +0.000 N 
ATOM      5  C   UNL     1       6.583   5.240  15.713  0.00  0.00    +0.000 C 
ATOM      6  O   UNL     1       7.456   6.040  16.064  0.00  0.00    +0.000 OA
ATOM      7  C   UNL     1       4.746   3.676  16.542  0.00  0.00    +0.000 C 
ATOM      8  C   UNL     1       3.308   3.934  17.029  0.00  0.00    +0.000 C 
ENDROOT
BRANCH   5   9
ATOM      9  C   UNL     1       6.576   4.661  14.372  0.00  0.00    +0.000 A 
ATOM     10  C   UNL     1       5.677   3.797  13.764  0.00  0.00    +0.000 A 
ATOM     11  C   UNL     1       6.065   3.437  12.441  0.00  0.00    +0.000 A 
ATOM     12  C   UNL     1       7.190   4.116  12.035  0.00  0.00    +0.000 A 
ATOM     13  S   UNL     1       7.795   5.143  13.259  0.00  0.00    +0.000 S 
ENDBRANCH   5   9
BRANCH   1  14
ATOM     14  S   UNL     1       3.464   3.509  19.715  0.00  0.00    +0.000 S 
ATOM     15  O   UNL     1       2.947   4.178  20.887  0.00  0.00    +0.000 OA
ATOM     16  O   UNL     1       4.806   2.974  19.689  0.00  0.00    +0.000 OA
BRANCH  14  18
ATOM     17  C   UNL     1       0.883   2.690  19.384  0.00  0.00    +0.000 C 
ATOM     18  C   UNL     1       2.317   2.206  19.278  0.00  0.00    +0.000 C 
ENDBRANCH  14  18
ENDBRANCH   1  14
TORSDOF 3
ENDMDL
