MODEL 1
REMARK VINA RESULT:      -7.5      0.000      0.000
REMARK  Name = 
REMARK  7 active torsions:
REMARK  status: ('A' for Active; 'I' for Inactive)
REMARK    1  A    between atoms: C_1  and  C_2
REMARK    2  A    between atoms: C_2  and  N_3
REMARK    3  A    between atoms: C_2  and  C_20
REMARK    4  A    between atoms: C_12  and  O_13
REMARK    5  A    between atoms: O_13  and  C_14
REMARK    6  A    between atoms: C_14  and  C_15
REMARK    7  A    between atoms: C_15  and  O_16
REMARK                            x       y       z     vdW  Elec       q    Type
REMARK                         _______ _______ _______ _____ _____    ______ ____
ROOT
ATOM      1  N   UNL     1       9.422   9.695  19.196  0.00  0.00    +0.000 N 
ATOM      2  C   UNL     1       8.526   8.908  18.505  0.00  0.00    +0.000 C 
ATOM      3  O   UNL     1       7.787   9.363  17.632  0.00  0.00    +0.000 OA
ATOM      4  N   UNL     1       8.516   7.607  18.948  0.00  0.00    +0.000 N 
ATOM      5  C   UNL     1       7.609   6.659  18.446  0.00  0.00    +0.000 A 
ATOM      6  C   UNL     1       7.373   6.545  17.079  0.00  0.00    +0.000 A 
ATOM      7  C   UNL     1       6.466   5.558  16.711  0.00  0.00    +0.000 A 
ATOM      8  N   UNL     1       6.017   5.144  15.487  0.00  0.00    +0.000 N 
ATOM      9  N   UNL     1       5.126   4.141  15.540  0.00  0.00    +0.000 NA
ATOM     10  C   UNL     1       4.991   3.913  16.850  0.00  0.00    +0.000 A 
ATOM     11  C   UNL     1       5.802   4.760  17.641  0.00  0.00    +0.000 A 
ATOM     12  C   UNL     1       6.080   4.959  18.995  0.00  0.00    +0.000 A 
ATOM     13  N   UNL     1       7.021   5.872  19.376  0.00  0.00    +0.000 NA
ATOM     14  H   UNL     1      10.239   9.242  19.580  0.00  0.00    +0.000 HD
ATOM     15  H   UNL     1       8.692   7.488  19.935  0.00  0.00    +0.000 HD
ATOM     16  H   UNL     1       6.282   5.506  14.578  0.00  0.00    +0.000 HD
ENDROOT
BRANCH   1  18
ATOM     17  C   UNL     1      10.758  11.556  18.232  0.00  0.00    +0.000 C 
ATOM     18  C   UNL     1       9.475  11.129  18.953  0.00  0.00    +0.000 C 
BRANCH  18  19
ATOM     19  C   UNL     1       9.262  11.918  20.233  0.00  0.00    +0.000 A 
ATOM     20  C   UNL     1       9.487  13.305  20.223  0.00  0.00    +0.000 A 
ATOM     21  C   UNL     1       9.395  14.056  21.397  0.00  0.00    +0.000 A 
ATOM     22  C   UNL     1       9.064  13.432  22.596  0.00  0.00    +0.000 A 
ATOM     23  C   UNL     1       8.807  12.063  22.619  0.00  0.00    +0.000 A 
ATOM     24  C   UNL     1       8.899  11.310  21.445  0.00  0.00    +0.000 A 
ENDBRANCH  18  19
ENDBRANCH   1  18
BRANCH  10  25
ATOM     25  O   UNL     1       4.133   2.951  17.276  0.00  0.00    +0.000 OA
BRANCH  25  26
ATOM     26  C   UNL     1       2.773   3.416  17.356  0.00  0.00    +0.000 C 
BRANCH  26  27
ATOM     27  C   UNL     1       2.123   2.928  18.649  0.00  0.00    +0.000 C 
BRANCH  27  28
ATOM     28  O   UNL     1       1.514   1.651  18.470  0.00  0.00    +0.000 OA
ATOM     29  H   UNL     1       0.764   1.611  19.090  0.00  0.00    +0.000 HD
ENDBRANCH  27  28
ENDBRANCH  26  27
ENDBRANCH  25  26
ENDBRANCH  10  25
TORSDOF 6
ENDMDL
MODEL 2
REMARK VINA RESULT:      -7.4      0.412      1.036
REMARK  Name = 
REMARK  7 active torsions:
REMARK  status: ('A' for Active; 'I' for Inactive)
REMARK    1  A    between atoms: C_1  and  C_2
REMARK    2  A    between atoms: C_2  and  N_3
REMARK    3  A    between atoms: C_2  and  C_20
REMARK    4  A    between atoms: C_12  and  O_13
REMARK    5  A    between atoms: O_13  and  C_14
REMARK    6  A    between atoms: C_14  and  C_15
REMARK    7  A    between atoms: C_15  and  O_16
REMARK                            x       y       z     vdW  Elec       q    Type
REMARK                         _______ _______ _______ _____ _____    ______ ____
ROOT
ATOM      1  N   UNL     1       9.402   9.675  19.177  0.00  0.00    +0.000 N 
ATOM      2  C   UNL     1       8.496   8.894  18.492  0.00  0.00    +0.000 C 
ATOM      3  O   UNL     1       7.737   9.358  17.641  0.00  0.00    +0.000 OA
ATOM      4  N   UNL     1       8.502   7.585  18.913  0.00  0.00    +0.000 N 
ATOM      5  C   UNL     1       7.590   6.641  18.415  0.00  0.00    +0.000 A 
ATOM      6  C   UNL     1       7.327   6.547  17.052  0.00  0.00    +0.000 A 
ATOM      7  C   UNL     1       6.417   5.561  16.687  0.00  0.00    +0.000 A 
ATOM      8  N   UNL     1       5.945   5.164  15.466  0.00  0.00    +0.000 N 
ATOM      9  N   UNL     1       5.061   4.155  15.522  0.00  0.00    +0.000 NA
ATOM     10  C   UNL     1       4.954   3.905  16.830  0.00  0.00    +0.000 A 
ATOM     11  C   UNL     1       5.777   4.744  17.618  0.00  0.00    +0.000 A 
ATOM     12  C   UNL     1       6.083   4.923  18.968  0.00  0.00    +0.000 A 
ATOM     13  N   UNL     1       7.026   5.835  19.345  0.00  0.00    +0.000 NA
ATOM     14  H   UNL     1      10.230   9.220  19.536  0.00  0.00    +0.000 HD
ATOM     15  H   UNL     1       8.700   7.452  19.894  0.00  0.00    +0.000 HD
ATOM     16  H   UNL     1       6.189   5.542  14.558  0.00  0.00    +0.000 HD
ENDROOT
BRANCH   1  18
ATOM     17  C   UNL     1      10.625  11.539  18.078  0.00  0.00    +0.000 C 
ATOM     18  C   UNL     1       9.443  11.112  18.956  0.00  0.00    +0.000 C 
BRANCH  18  19
ATOM     19  C   UNL     1       9.413  11.877  20.267  0.00  0.00    +0.000 A 
ATOM     20  C   UNL     1       8.806  11.285  21.388  0.00  0.00    +0.000 A 
ATOM     21  C   UNL     1       8.673  11.987  22.587  0.00  0.00    +0.000 A 
ATOM     22  C   UNL     1       9.155  13.288  22.688  0.00  0.00    +0.000 A 
ATOM     23  C   UNL     1       9.788  13.881  21.597  0.00  0.00    +0.000 A 
ATOM     24  C   UNL     1       9.922  13.179  20.395  0.00  0.00    +0.000 A 
ENDBRANCH  18  19
ENDBRANCH   1  18
BRANCH  10  25
ATOM     25  O   UNL     1       4.110   2.931  17.259  0.00  0.00    +0.000 OA
BRANCH  25  26
ATOM     26  C   UNL     1       2.737   3.361  17.287  0.00  0.00    +0.000 C 
BRANCH  26  27
ATOM     27  C   UNL     1       1.930   2.484  18.240  0.00  0.00    +0.000 C 
BRANCH  27  28
ATOM     28  O   UNL     1       1.122   3.274  19.110  0.00  0.00    +0.000 OA
ATOM     29  H   UNL     1       1.006   4.138  18.675  0.00  0.00    +0.000 HD
ENDBRANCH  27  28
ENDBRANCH  26  27
ENDBRANCH  25  26
ENDBRANCH  10  25
TORSDOF 6
ENDMDL
MODEL 3
REMARK VINA RESULT:      -7.3      6.088      7.987
REMARK  Name = 
REMARK  7 active torsions:
REMARK  status: ('A' for Active; 'I' for Inactive)
REMARK    1  A    between atoms: C_1  and  C_2
REMARK    2  A    between atoms: C_2  and  N_3
REMARK    3  A    between atoms: C_2  and  C_20
REMARK    4  A    between atoms: C_12  and  O_13
REMARK    5  A    between atoms: O_13  and  C_14
REMARK    6  A    between atoms: C_14  and  C_15
REMARK    7  A    between atoms: C_15  and  O_16
REMARK                            x       y       z     vdW  Elec       q    Type
REMARK                         _______ _______ _______ _____ _____    ______ ____
ROOT
ATOM      1  N   UNL     1       0.615   9.706  19.180  0.00  0.00    +0.000 N 
ATOM      2  C   UNL     1       1.645   9.171  18.435  0.00  0.00    +0.000 C 
ATOM      3  O   UNL     1       2.149   9.768  17.484  0.00  0.00    +0.000 OA
ATOM      4  N   UNL     1       1.980   7.899  18.835  0.00  0.00    +0.000 N 
ATOM      5  C   UNL     1       2.938   7.134  18.150  0.00  0.00    +0.000 A 
ATOM      6  C   UNL     1       4.153   7.688  17.759  0.00  0.00    +0.000 A 
ATOM      7  C   UNL     1       5.019   6.821  17.103  0.00  0.00    +0.000 A 
ATOM      8  N   UNL     1       6.283   6.997  16.609  0.00  0.00    +0.000 N 
ATOM      9  N   UNL     1       6.805   5.902  16.034  0.00  0.00    +0.000 NA
ATOM     10  C   UNL     1       5.832   4.993  16.155  0.00  0.00    +0.000 A 
ATOM     11  C   UNL     1       4.688   5.497  16.817  0.00  0.00    +0.000 A 
ATOM     12  C   UNL     1       3.437   5.031  17.224  0.00  0.00    +0.000 A 
ATOM     13  N   UNL     1       2.598   5.842  17.933  0.00  0.00    +0.000 NA
ATOM     14  H   UNL     1       0.519   9.390  20.135  0.00  0.00    +0.000 HD
ATOM     15  H   UNL     1       1.212   7.341  19.178  0.00  0.00    +0.000 HD
ATOM     16  H   UNL     1       6.843   7.841  16.634  0.00  0.00    +0.000 HD
ENDROOT
BRANCH   1  18
ATOM     17  C   UNL     1       0.166  12.032  19.933  0.00  0.00    +0.000 C 
ATOM     18  C   UNL     1       0.040  10.991  18.815  0.00  0.00    +0.000 C 
BRANCH  18  19
ATOM     19  C   UNL     1      -1.397  10.844  18.345  0.00  0.00    +0.000 A 
ATOM     20  C   UNL     1      -1.688   9.928  17.321  0.00  0.00    +0.000 A 
ATOM     21  C   UNL     1      -2.977   9.826  16.794  0.00  0.00    +0.000 A 
ATOM     22  C   UNL     1      -3.997  10.631  17.292  0.00  0.00    +0.000 A 
ATOM     23  C   UNL     1      -3.733  11.523  18.330  0.00  0.00    +0.000 A 
ATOM     24  C   UNL     1      -2.443  11.627  18.859  0.00  0.00    +0.000 A 
ENDBRANCH  18  19
ENDBRANCH   1  18
BRANCH  10  25
ATOM     25  O   UNL     1       6.017   3.744  15.654  0.00  0.00    +0.000 OA
BRANCH  25  26
ATOM     26  C   UNL     1       6.638   3.754  14.355  0.00  0.00    +0.000 C 
BRANCH  26  27
ATOM     27  C   UNL     1       5.578   3.623  13.264  0.00  0.00    +0.000 C 
BRANCH  27  28
ATOM     28  O   UNL     1       5.989   2.708  12.251  0.00  0.00    +0.000 OA
ATOM     29  H   UNL     1       6.249   3.243  11.480  0.00  0.00    +0.000 HD
ENDBRANCH  27  28
ENDBRANCH  26  27
ENDBRANCH  25  26
ENDBRANCH  10  25
TORSDOF 6
ENDMDL
MODEL 4
REMARK VINA RESULT:      -7.2      6.245      7.903
REMARK  Name = 
REMARK  7 active torsions:
REMARK  status: ('A' for Active; 'I' for Inactive)
REMARK    1  A    between atoms: C_1  and  C_2
REMARK    2  A    between atoms: C_2  and  N_3
REMARK    3  A    between atoms: C_2  and  C_20
REMARK    4  A    between atoms: C_12  and  O_13
REMARK    5  A    between atoms: O_13  and  C_14
REMARK    6  A    between atoms: C_14  and  C_15
REMARK    7  A    between atoms: C_15  and  O_16
REMARK                            x       y       z     vdW  Elec       q    Type
REMARK                         _______ _______ _______ _____ _____    ______ ____
ROOT
ATOM      1  N   UNL     1       0.527  10.400  19.608  0.00  0.00    +0.000 N 
ATOM      2  C   UNL     1       1.235   9.288  19.205  0.00  0.00    +0.000 C 
ATOM      3  O   UNL     1       1.543   9.095  18.029  0.00  0.00    +0.000 OA
ATOM      4  N   UNL     1       1.486   8.418  20.240  0.00  0.00    +0.000 N 
ATOM      5  C   UNL     1       2.109   7.177  20.031  0.00  0.00    +0.000 A 
ATOM      6  C   UNL     1       3.239   7.068  19.227  0.00  0.00    +0.000 A 
ATOM      7  C   UNL     1       3.770   5.788  19.115  0.00  0.00    +0.000 A 
ATOM      8  N   UNL     1       4.867   5.311  18.451  0.00  0.00    +0.000 N 
ATOM      9  N   UNL     1       5.058   3.989  18.586  0.00  0.00    +0.000 NA
ATOM     10  C   UNL     1       4.038   3.603  19.358  0.00  0.00    +0.000 A 
ATOM     11  C   UNL     1       3.194   4.677  19.730  0.00  0.00    +0.000 A 
ATOM     12  C   UNL     1       2.046   4.874  20.499  0.00  0.00    +0.000 A 
ATOM     13  N   UNL     1       1.549   6.132  20.682  0.00  0.00    +0.000 NA
ATOM     14  H   UNL     1       0.647  10.707  20.563  0.00  0.00    +0.000 HD
ATOM     15  H   UNL     1       0.768   8.376  20.948  0.00  0.00    +0.000 HD
ATOM     16  H   UNL     1       5.524   5.838  17.888  0.00  0.00    +0.000 HD
ENDROOT
BRANCH   1  18
ATOM     17  C   UNL     1       0.272  12.814  19.074  0.00  0.00    +0.000 C 
ATOM     18  C   UNL     1       0.059  11.365  18.625  0.00  0.00    +0.000 C 
BRANCH  18  19
ATOM     19  C   UNL     1      -1.387  11.106  18.237  0.00  0.00    +0.000 A 
ATOM     20  C   UNL     1      -2.402  11.859  18.849  0.00  0.00    +0.000 A 
ATOM     21  C   UNL     1      -3.748  11.592  18.593  0.00  0.00    +0.000 A 
ATOM     22  C   UNL     1      -4.099  10.575  17.710  0.00  0.00    +0.000 A 
ATOM     23  C   UNL     1      -3.105   9.838  17.070  0.00  0.00    +0.000 A 
ATOM     24  C   UNL     1      -1.756  10.104  17.325  0.00  0.00    +0.000 A 
ENDBRANCH  18  19
ENDBRANCH   1  18
BRANCH  10  25
ATOM     25  O   UNL     1       3.907   2.293  19.689  0.00  0.00    +0.000 OA
BRANCH  25  26
ATOM     26  C   UNL     1       3.695   1.450  18.542  0.00  0.00    +0.000 C 
BRANCH  26  27
ATOM     27  C   UNL     1       2.405   1.845  17.828  0.00  0.00    +0.000 C 
BRANCH  27  28
ATOM     28  O   UNL     1       1.269   1.654  18.669  0.00  0.00    +0.000 OA
ATOM     29  H   UNL     1       0.878   2.534  18.815  0.00  0.00    +0.000 HD
ENDBRANCH  27  28
ENDBRANCH  26  27
ENDBRANCH  25  26
ENDBRANCH  10  25
TORSDOF 6
ENDMDL
MODEL 5
REMARK VINA RESULT:      -7.2      6.925      8.884
REMARK  Name = 
REMARK  7 active torsions:
REMARK  status: ('A' for Active; 'I' for Inactive)
REMARK    1  A    between atoms: C_1  and  C_2
REMARK    2  A    between atoms: C_2  and  N_3
REMARK    3  A    between atoms: C_2  and  C_20
REMARK    4  A    between atoms: C_12  and  O_13
REMARK    5  A    between atoms: O_13  and  C_14
REMARK    6  A    between atoms: C_14  and  C_15
REMARK    7  A    between atoms: C_15  and  O_16
REMARK                            x       y       z     vdW  Elec       q    Type
REMARK                         _______ _______ _______ _____ _____    ______ ____
ROOT
ATOM      1  N   UNL     1       3.308   5.800  18.703  0.00  0.00    +0.000 N 
ATOM      2  C   UNL     1       2.692   7.010  18.942  0.00  0.00    +0.000 C 
ATOM      3  O   UNL     1       2.804   7.968  18.178  0.00  0.00    +0.000 OA
ATOM      4  N   UNL     1       2.014   7.029  20.138  0.00  0.00    +0.000 N 
ATOM      5  C   UNL     1       1.396   8.194  20.621  0.00  0.00    +0.000 A 
ATOM      6  C   UNL     1       0.619   8.992  19.788  0.00  0.00    +0.000 A 
ATOM      7  C   UNL     1       0.050  10.108  20.393  0.00  0.00    +0.000 A 
ATOM      8  N   UNL     1      -0.779  11.083  19.909  0.00  0.00    +0.000 N 
ATOM      9  N   UNL     1      -1.123  12.010  20.817  0.00  0.00    +0.000 NA
ATOM     10  C   UNL     1      -0.481  11.619  21.921  0.00  0.00    +0.000 A 
ATOM     11  C   UNL     1       0.268  10.434  21.730  0.00  0.00    +0.000 A 
ATOM     12  C   UNL     1       1.083   9.590  22.487  0.00  0.00    +0.000 A 
ATOM     13  N   UNL     1       1.594   8.451  21.935  0.00  0.00    +0.000 NA
ATOM     14  H   UNL     1       2.886   4.975  19.106  0.00  0.00    +0.000 HD
ATOM     15  H   UNL     1       2.428   6.477  20.875  0.00  0.00    +0.000 HD
ATOM     16  H   UNL     1      -1.144  11.171  18.968  0.00  0.00    +0.000 HD
ENDROOT
BRANCH   1  18
ATOM     17  C   UNL     1       4.119   4.225  16.960  0.00  0.00    +0.000 C 
ATOM     18  C   UNL     1       4.179   5.638  17.549  0.00  0.00    +0.000 C 
BRANCH  18  19
ATOM     19  C   UNL     1       5.605   6.053  17.866  0.00  0.00    +0.000 A 
ATOM     20  C   UNL     1       6.283   5.415  18.919  0.00  0.00    +0.000 A 
ATOM     21  C   UNL     1       7.559   5.827  19.306  0.00  0.00    +0.000 A 
ATOM     22  C   UNL     1       8.182   6.877  18.638  0.00  0.00    +0.000 A 
ATOM     23  C   UNL     1       7.539   7.501  17.571  0.00  0.00    +0.000 A 
ATOM     24  C   UNL     1       6.260   7.089  17.182  0.00  0.00    +0.000 A 
ENDBRANCH  18  19
ENDBRANCH   1  18
BRANCH  10  25
ATOM     25  O   UNL     1      -0.595  12.354  23.057  0.00  0.00    +0.000 OA
BRANCH  25  26
ATOM     26  C   UNL     1      -1.760  13.199  23.057  0.00  0.00    +0.000 C 
BRANCH  26  27
ATOM     27  C   UNL     1      -2.974  12.424  23.564  0.00  0.00    +0.000 C 
BRANCH  27  28
ATOM     28  O   UNL     1      -3.956  12.275  22.541  0.00  0.00    +0.000 OA
ATOM     29  H   UNL     1      -4.296  11.364  22.611  0.00  0.00    +0.000 HD
ENDBRANCH  27  28
ENDBRANCH  26  27
ENDBRANCH  25  26
ENDBRANCH  10  25
TORSDOF 6
ENDMDL
MODEL 6
REMARK VINA RESULT:      -7.1      6.022      7.908
REMARK  Name = 
REMARK  7 active torsions:
REMARK  status: ('A' for Active; 'I' for Inactive)
REMARK    1  A    between atoms: C_1  and  C_2
REMARK    2  A    between atoms: C_2  and  N_3
REMARK    3  A    between atoms: C_2  and  C_20
REMARK    4  A    between atoms: C_12  and  O_13
REMARK    5  A    between atoms: O_13  and  C_14
REMARK    6  A    between atoms: C_14  and  C_15
REMARK    7  A    between atoms: C_15  and  O_16
REMARK                            x       y       z     vdW  Elec       q    Type
REMARK                         _______ _______ _______ _____ _____    ______ ____
ROOT
ATOM      1  N   UNL     1       0.731   9.671  19.086  0.00  0.00    +0.000 N 
ATOM      2  C   UNL     1       1.800   9.159  18.381  0.00  0.00    +0.000 C 
ATOM      3  O   UNL     1       2.345   9.779  17.469  0.00  0.00    +0.000 OA
ATOM      4  N   UNL     1       2.124   7.881  18.770  0.00  0.00    +0.000 N 
ATOM      5  C   UNL     1       3.120   7.136  18.117  0.00  0.00    +0.000 A 
ATOM      6  C   UNL     1       4.348   7.706  17.797  0.00  0.00    +0.000 A 
ATOM      7  C   UNL     1       5.252   6.859  17.166  0.00  0.00    +0.000 A 
ATOM      8  N   UNL     1       6.537   7.053  16.738  0.00  0.00    +0.000 N 
ATOM      9  N   UNL     1       7.093   5.973  16.166  0.00  0.00    +0.000 NA
ATOM     10  C   UNL     1       6.123   5.056  16.220  0.00  0.00    +0.000 A 
ATOM     11  C   UNL     1       4.945   5.539  16.837  0.00  0.00    +0.000 A 
ATOM     12  C   UNL     1       3.679   5.057  17.173  0.00  0.00    +0.000 A 
ATOM     13  N   UNL     1       2.801   5.847  17.857  0.00  0.00    +0.000 NA
ATOM     14  H   UNL     1       0.591   9.334  20.028  0.00  0.00    +0.000 HD
ATOM     15  H   UNL     1       1.344   7.310  19.063  0.00  0.00    +0.000 HD
ATOM     16  H   UNL     1       7.089   7.900  16.808  0.00  0.00    +0.000 HD
ENDROOT
BRANCH   1  18
ATOM     17  C   UNL     1       0.287  11.997  19.843  0.00  0.00    +0.000 C 
ATOM     18  C   UNL     1       0.165  10.961  18.720  0.00  0.00    +0.000 C 
BRANCH  18  19
ATOM     19  C   UNL     1      -1.269  10.822  18.239  0.00  0.00    +0.000 A 
ATOM     20  C   UNL     1      -2.258  11.650  18.796  0.00  0.00    +0.000 A 
ATOM     21  C   UNL     1      -3.602  11.494  18.453  0.00  0.00    +0.000 A 
ATOM     22  C   UNL     1      -3.976  10.515  17.537  0.00  0.00    +0.000 A 
ATOM     23  C   UNL     1      -3.005   9.706  16.950  0.00  0.00    +0.000 A 
ATOM     24  C   UNL     1      -1.658   9.860  17.293  0.00  0.00    +0.000 A 
ENDBRANCH  18  19
ENDBRANCH   1  18
BRANCH  10  25
ATOM     25  O   UNL     1       6.341   3.820  15.703  0.00  0.00    +0.000 OA
BRANCH  25  26
ATOM     26  C   UNL     1       5.594   3.584  14.495  0.00  0.00    +0.000 C 
BRANCH  26  27
ATOM     27  C   UNL     1       6.482   3.808  13.274  0.00  0.00    +0.000 C 
BRANCH  27  28
ATOM     28  O   UNL     1       5.832   3.385  12.078  0.00  0.00    +0.000 OA
ATOM     29  H   UNL     1       4.981   2.993  12.346  0.00  0.00    +0.000 HD
ENDBRANCH  27  28
ENDBRANCH  26  27
ENDBRANCH  25  26
ENDBRANCH  10  25
TORSDOF 6
ENDMDL
MODEL 7
REMARK VINA RESULT:      -7.1      6.886      8.786
REMARK  Name = 
REMARK  7 active torsions:
REMARK  status: ('A' for Active; 'I' for Inactive)
REMARK    1  A    between atoms: C_1  and  C_2
REMARK    2  A    between atoms: C_2  and  N_3
REMARK    3  A    between atoms: C_2  and  C_20
REMARK    4  A    between atoms: C_12  and  O_13
REMARK    5  A    between atoms: O_13  and  C_14
REMARK    6  A    between atoms: C_14  and  C_15
REMARK    7  A    between atoms: C_15  and  O_16
REMARK                            x       y       z     vdW  Elec       q    Type
REMARK                         _______ _______ _______ _____ _____    ______ ____
ROOT
ATOM      1  N   UNL     1       3.214   5.832  18.445  0.00  0.00    +0.000 N 
ATOM      2  C   UNL     1       2.719   7.087  18.729  0.00  0.00    +0.000 C 
ATOM      3  O   UNL     1       3.055   8.087  18.094  0.00  0.00    +0.000 OA
ATOM      4  N   UNL     1       1.879   7.089  19.818  0.00  0.00    +0.000 N 
ATOM      5  C   UNL     1       1.340   8.277  20.336  0.00  0.00    +0.000 A 
ATOM      6  C   UNL     1       0.795   9.244  19.498  0.00  0.00    +0.000 A 
ATOM      7  C   UNL     1       0.281  10.367  20.137  0.00  0.00    +0.000 A 
ATOM      8  N   UNL     1      -0.345  11.484  19.655  0.00  0.00    +0.000 N 
ATOM      9  N   UNL     1      -0.706  12.362  20.603  0.00  0.00    +0.000 NA
ATOM     10  C   UNL     1      -0.286  11.791  21.735  0.00  0.00    +0.000 A 
ATOM     11  C   UNL     1       0.337  10.539  21.520  0.00  0.00    +0.000 A 
ATOM     12  C   UNL     1       0.925   9.529  22.283  0.00  0.00    +0.000 A 
ATOM     13  N   UNL     1       1.372   8.386  21.685  0.00  0.00    +0.000 NA
ATOM     14  H   UNL     1       2.641   5.038  18.695  0.00  0.00    +0.000 HD
ATOM     15  H   UNL     1       2.111   6.422  20.539  0.00  0.00    +0.000 HD
ATOM     16  H   UNL     1      -0.555  11.704  18.688  0.00  0.00    +0.000 HD
ENDROOT
BRANCH   1  18
ATOM     17  C   UNL     1       4.224   4.245  16.820  0.00  0.00    +0.000 C 
ATOM     18  C   UNL     1       4.220   5.660  17.407  0.00  0.00    +0.000 C 
BRANCH  18  19
ATOM     19  C   UNL     1       5.598   6.068  17.897  0.00  0.00    +0.000 A 
ATOM     20  C   UNL     1       6.284   7.095  17.225  0.00  0.00    +0.000 A 
ATOM     21  C   UNL     1       7.589   7.439  17.580  0.00  0.00    +0.000 A 
ATOM     22  C   UNL     1       8.225   6.770  18.622  0.00  0.00    +0.000 A 
ATOM     23  C   UNL     1       7.549   5.771  19.320  0.00  0.00    +0.000 A 
ATOM     24  C   UNL     1       6.242   5.425  18.966  0.00  0.00    +0.000 A 
ENDBRANCH  18  19
ENDBRANCH   1  18
BRANCH  10  25
ATOM     25  O   UNL     1      -0.476  12.429  22.918  0.00  0.00    +0.000 OA
BRANCH  25  26
ATOM     26  C   UNL     1      -1.736  13.123  22.978  0.00  0.00    +0.000 C 
BRANCH  26  27
ATOM     27  C   UNL     1      -2.828  12.189  23.493  0.00  0.00    +0.000 C 
BRANCH  27  28
ATOM     28  O   UNL     1      -4.000  12.269  22.684  0.00  0.00    +0.000 OA
ATOM     29  H   UNL     1      -4.607  12.886  23.133  0.00  0.00    +0.000 HD
ENDBRANCH  27  28
ENDBRANCH  26  27
ENDBRANCH  25  26
ENDBRANCH  10  25
TORSDOF 6
ENDMDL
MODEL 8
REMARK VINA RESULT:      -7.1      8.195     10.642
REMARK  Name = 
REMARK  7 active torsions:
REMARK  status: ('A' for Active; 'I' for Inactive)
REMARK    1  A    between atoms: C_1  and  C_2
REMARK    2  A    between atoms: C_2  and  N_3
REMARK    3  A    between atoms: C_2  and  C_20
REMARK    4  A    between atoms: C_12  and  O_13
REMARK    5  A    between atoms: O_13  and  C_14
REMARK    6  A    between atoms: C_14  and  C_15
REMARK    7  A    between atoms: C_15  and  O_16
REMARK                            x       y       z     vdW  Elec       q    Type
REMARK                         _______ _______ _______ _____ _____    ______ ____
ROOT
ATOM      1  N   UNL     1       2.385   7.648  17.966  0.00  0.00    +0.000 N 
ATOM      2  C   UNL     1       1.654   8.541  18.721  0.00  0.00    +0.000 C 
ATOM      3  O   UNL     1       1.716   8.569  19.950  0.00  0.00    +0.000 OA
ATOM      4  N   UNL     1       0.825   9.326  17.954  0.00  0.00    +0.000 N 
ATOM      5  C   UNL     1      -0.076  10.236  18.530  0.00  0.00    +0.000 A 
ATOM      6  C   UNL     1       0.319  11.082  19.561  0.00  0.00    +0.000 A 
ATOM      7  C   UNL     1      -0.664  11.945  20.032  0.00  0.00    +0.000 A 
ATOM      8  N   UNL     1      -0.637  12.917  20.995  0.00  0.00    +0.000 N 
ATOM      9  N   UNL     1      -1.807  13.553  21.166  0.00  0.00    +0.000 NA
ATOM     10  C   UNL     1      -2.617  12.957  20.286  0.00  0.00    +0.000 A 
ATOM     11  C   UNL     1      -1.968  11.945  19.540  0.00  0.00    +0.000 A 
ATOM     12  C   UNL     1      -2.284  11.044  18.521  0.00  0.00    +0.000 A 
ATOM     13  N   UNL     1      -1.318  10.237  17.993  0.00  0.00    +0.000 NA
ATOM     14  H   UNL     1       2.607   7.915  17.017  0.00  0.00    +0.000 HD
ATOM     15  H   UNL     1       0.450   8.877  17.132  0.00  0.00    +0.000 HD
ATOM     16  H   UNL     1       0.150  13.194  21.570  0.00  0.00    +0.000 HD
ENDROOT
BRANCH   1  18
ATOM     17  C   UNL     1       4.485   6.326  17.818  0.00  0.00    +0.000 C 
ATOM     18  C   UNL     1       3.218   6.649  18.618  0.00  0.00    +0.000 C 
BRANCH  18  19
ATOM     19  C   UNL     1       2.427   5.395  18.946  0.00  0.00    +0.000 A 
ATOM     20  C   UNL     1       2.139   4.482  17.917  0.00  0.00    +0.000 A 
ATOM     21  C   UNL     1       1.337   3.364  18.152  0.00  0.00    +0.000 A 
ATOM     22  C   UNL     1       0.820   3.135  19.424  0.00  0.00    +0.000 A 
ATOM     23  C   UNL     1       1.121   4.012  20.464  0.00  0.00    +0.000 A 
ATOM     24  C   UNL     1       1.924   5.133  20.230  0.00  0.00    +0.000 A 
ENDBRANCH  18  19
ENDBRANCH   1  18
BRANCH  10  25
ATOM     25  O   UNL     1      -3.914  13.348  20.199  0.00  0.00    +0.000 OA
BRANCH  25  26
ATOM     26  C   UNL     1      -4.773  12.630  21.104  0.00  0.00    +0.000 C 
BRANCH  26  27
ATOM     27  C   UNL     1      -5.996  12.099  20.361  0.00  0.00    +0.000 C 
BRANCH  27  28
ATOM     28  O   UNL     1      -6.787  11.260  21.200  0.00  0.00    +0.000 OA
ATOM     29  H   UNL     1      -6.619  10.344  20.916  0.00  0.00    +0.000 HD
ENDBRANCH  27  28
ENDBRANCH  26  27
ENDBRANCH  25  26
ENDBRANCH  10  25
TORSDOF 6
ENDMDL
MODEL 9
REMARK VINA RESULT:      -7.1      6.783      7.523
REMARK  Name = 
REMARK  7 active torsions:
REMARK  status: ('A' for Active; 'I' for Inactive)
REMARK    1  A    between atoms: C_1  and  C_2
REMARK    2  A    between atoms: C_2  and  N_3
REMARK    3  A    between atoms: C_2  and  C_20
REMARK    4  A    between atoms: C_12  and  O_13
REMARK    5  A    between atoms: O_13  and  C_14
REMARK    6  A    between atoms: C_14  and  C_15
REMARK    7  A    between atoms: C_15  and  O_16
REMARK                            x       y       z     vdW  Elec       q    Type
REMARK                         _______ _______ _______ _____ _____    ______ ____
ROOT
ATOM      1  N   UNL     1       0.852  10.253  21.170  0.00  0.00    +0.000 N 
ATOM      2  C   UNL     1       1.168   9.236  20.295  0.00  0.00    +0.000 C 
ATOM      3  O   UNL     1       1.033   9.350  19.077  0.00  0.00    +0.000 OA
ATOM      4  N   UNL     1       1.576   8.093  20.940  0.00  0.00    +0.000 N 
ATOM      5  C   UNL     1       1.854   6.906  20.242  0.00  0.00    +0.000 A 
ATOM      6  C   UNL     1       2.617   6.919  19.079  0.00  0.00    +0.000 A 
ATOM      7  C   UNL     1       2.832   5.676  18.493  0.00  0.00    +0.000 A 
ATOM      8  N   UNL     1       3.541   5.302  17.385  0.00  0.00    +0.000 N 
ATOM      9  N   UNL     1       3.515   3.983  17.137  0.00  0.00    +0.000 NA
ATOM     10  C   UNL     1       2.751   3.496  18.119  0.00  0.00    +0.000 A 
ATOM     11  C   UNL     1       2.292   4.498  19.006  0.00  0.00    +0.000 A 
ATOM     12  C   UNL     1       1.517   4.580  20.164  0.00  0.00    +0.000 A 
ATOM     13  N   UNL     1       1.352   5.778  20.797  0.00  0.00    +0.000 NA
ATOM     14  H   UNL     1       1.334  10.269  22.058  0.00  0.00    +0.000 HD
ATOM     15  H   UNL     1       1.136   7.923  21.832  0.00  0.00    +0.000 HD
ATOM     16  H   UNL     1       4.064   5.901  16.756  0.00  0.00    +0.000 HD
ENDROOT
BRANCH   1  18
ATOM     17  C   UNL     1       1.264  12.665  20.731  0.00  0.00    +0.000 C 
ATOM     18  C   UNL     1       0.277  11.494  20.672  0.00  0.00    +0.000 C 
BRANCH  18  19
ATOM     19  C   UNL     1      -1.027  11.823  21.377  0.00  0.00    +0.000 A 
ATOM     20  C   UNL     1      -2.012  12.548  20.684  0.00  0.00    +0.000 A 
ATOM     21  C   UNL     1      -3.186  12.954  21.321  0.00  0.00    +0.000 A 
ATOM     22  C   UNL     1      -3.399  12.631  22.658  0.00  0.00    +0.000 A 
ATOM     23  C   UNL     1      -2.448  11.885  23.352  0.00  0.00    +0.000 A 
ATOM     24  C   UNL     1      -1.271  11.478  22.716  0.00  0.00    +0.000 A 
ENDBRANCH  18  19
ENDBRANCH   1  18
BRANCH  10  25
ATOM     25  O   UNL     1       2.493   2.163  18.168  0.00  0.00    +0.000 OA
BRANCH  25  26
ATOM     26  C   UNL     1       3.655   1.386  18.515  0.00  0.00    +0.000 C 
BRANCH  26  27
ATOM     27  C   UNL     1       4.283   1.922  19.799  0.00  0.00    +0.000 C 
BRANCH  27  28
ATOM     28  O   UNL     1       5.364   2.808  19.514  0.00  0.00    +0.000 OA
ATOM     29  H   UNL     1       4.967   3.639  19.197  0.00  0.00    +0.000 HD
ENDBRANCH  27  28
ENDBRANCH  26  27
ENDBRANCH  25  26
ENDBRANCH  10  25
TORSDOF 6
ENDMDL
