MODEL 1
REMARK VINA RESULT:      -6.0      0.000      0.000
REMARK  Name = 
REMARK  12 active torsions:
REMARK  status: ('A' for Active; 'I' for Inactive)
REMARK    1  A    between atoms: C_1  and  O_2
REMARK    2  A    between atoms: O_2  and  C_3
REMARK    3  A    between atoms: C_3  and  C_4
REMARK    4  A    between atoms: C_6  and  C_7
REMARK    5  A    between atoms: C_7  and  N_8
REMARK    6  A    between atoms: N_11  and  C_12
REMARK    7  A    between atoms: C_12  and  C_13
REMARK    8  A    between atoms: C_18  and  C_19
REMARK    9  A    between atoms: C_19  and  C_20
REMARK   10  A    between atoms: C_20  and  O_21
REMARK   11  A    between atoms: C_25  and  O_26
REMARK   12  A    between atoms: O_26  and  C_27
REMARK                            x       y       z     vdW  Elec       q    Type
REMARK                         _______ _______ _______ _____ _____    ______ ____
ROOT
ATOM      1  N   UNL     1      -0.093   8.810  21.086  0.00  0.00    +0.000 NA
ATOM      2  C   UNL     1      -0.626   8.987  22.454  0.00  0.00    +0.000 C 
ATOM      3  C   UNL     1      -0.321  10.341  23.151  0.00  0.00    +0.000 C 
ATOM      4  N   UNL     1      -0.498  11.578  22.342  0.00  0.00    +0.000 NA
ATOM      5  C   UNL     1       0.119  11.357  21.009  0.00  0.00    +0.000 C 
ATOM      6  C   UNL     1      -0.384  10.051  20.317  0.00  0.00    +0.000 C 
ENDROOT
BRANCH   1   7
ATOM      7  C   UNL     1       1.361   8.544  21.078  0.00  0.00    +0.000 C 
BRANCH   7  10
ATOM      8  C   UNL     1       2.135   4.964  19.724  0.00  0.00    +0.000 A 
ATOM      9  C   UNL     1       1.757   6.018  20.610  0.00  0.00    +0.000 A 
ATOM     10  C   UNL     1       1.890   7.372  20.267  0.00  0.00    +0.000 A 
ATOM     11  C   UNL     1       2.442   7.670  19.019  0.00  0.00    +0.000 A 
ATOM     12  C   UNL     1       2.774   6.654  18.124  0.00  0.00    +0.000 A 
ATOM     13  C   UNL     1       2.601   5.300  18.444  0.00  0.00    +0.000 A 
BRANCH  13  14
ATOM     14  O   UNL     1       2.898   4.533  17.355  0.00  0.00    +0.000 OA
ATOM     15  C   UNL     1       4.153   3.914  17.171  0.00  0.00    +0.000 C 
ENDBRANCH  13  14
BRANCH   8  16
ATOM     16  C   UNL     1       2.003   3.557  20.261  0.00  0.00    +0.000 C 
BRANCH  16  18
ATOM     17  C   UNL     1       0.741   2.166  18.818  0.00  0.00    +0.000 C 
ATOM     18  O   UNL     1       0.712   3.052  19.927  0.00  0.00    +0.000 OA
ENDBRANCH  16  18
ENDBRANCH   8  16
ENDBRANCH   7  10
ENDBRANCH   1   7
BRANCH   4  19
ATOM     19  C   UNL     1      -1.904  12.029  22.306  0.00  0.00    +0.000 C 
BRANCH  19  20
ATOM     20  C   UNL     1      -2.084  13.219  23.223  0.00  0.00    +0.000 A 
ATOM     21  C   UNL     1      -1.088  14.227  23.467  0.00  0.00    +0.000 A 
ATOM     22  C   UNL     1      -1.461  15.122  24.445  0.00  0.00    +0.000 A 
ATOM     23  S   UNL     1      -3.041  14.820  25.016  0.00  0.00    +0.000 S 
ATOM     24  C   UNL     1      -3.219  13.473  23.975  0.00  0.00    +0.000 A 
ENDBRANCH  19  20
ENDBRANCH   4  19
BRANCH   5  25
ATOM     25  C   UNL     1       0.109  12.552  20.034  0.00  0.00    +0.000 C 
BRANCH  25  26
ATOM     26  C   UNL     1       1.174  13.588  20.386  0.00  0.00    +0.000 C 
BRANCH  26  27
ATOM     27  O   UNL     1       1.919  13.143  21.514  0.00  0.00    +0.000 OA
ATOM     28  H   UNL     1       1.378  13.316  22.309  0.00  0.00    +0.000 HD
ENDBRANCH  26  27
ENDBRANCH  25  26
ENDBRANCH   5  25
TORSDOF 10
ENDMDL
MODEL 2
REMARK VINA RESULT:      -6.0      4.204      9.757
REMARK  Name = 
REMARK  12 active torsions:
REMARK  status: ('A' for Active; 'I' for Inactive)
REMARK    1  A    between atoms: C_1  and  O_2
REMARK    2  A    between atoms: O_2  and  C_3
REMARK    3  A    between atoms: C_3  and  C_4
REMARK    4  A    between atoms: C_6  and  C_7
REMARK    5  A    between atoms: C_7  and  N_8
REMARK    6  A    between atoms: N_11  and  C_12
REMARK    7  A    between atoms: C_12  and  C_13
REMARK    8  A    between atoms: C_18  and  C_19
REMARK    9  A    between atoms: C_19  and  C_20
REMARK   10  A    between atoms: C_20  and  O_21
REMARK   11  A    between atoms: C_25  and  O_26
REMARK   12  A    between atoms: O_26  and  C_27
REMARK                            x       y       z     vdW  Elec       q    Type
REMARK                         _______ _______ _______ _____ _____    ______ ____
ROOT
ATOM      1  N   UNL     1       2.074   6.434  18.898  0.00  0.00    +0.000 NA
ATOM      2  C   UNL     1       3.218   6.705  18.001  0.00  0.00    +0.000 C 
ATOM      3  C   UNL     1       4.536   5.941  18.301  0.00  0.00    +0.000 C 
ATOM      4  N   UNL     1       4.426   4.487  18.606  0.00  0.00    +0.000 NA
ATOM      5  C   UNL     1       3.306   4.294  19.562  0.00  0.00    +0.000 C 
ATOM      6  C   UNL     1       1.978   4.960  19.084  0.00  0.00    +0.000 C 
ENDROOT
BRANCH   1   7
ATOM      7  C   UNL     1       2.218   7.097  20.210  0.00  0.00    +0.000 C 
BRANCH   7  10
ATOM      8  C   UNL     1       0.153  10.385  19.797  0.00  0.00    +0.000 A 
ATOM      9  C   UNL     1       1.010   9.284  19.494  0.00  0.00    +0.000 A 
ATOM     10  C   UNL     1       1.448   8.380  20.475  0.00  0.00    +0.000 A 
ATOM     11  C   UNL     1       1.037   8.607  21.790  0.00  0.00    +0.000 A 
ATOM     12  C   UNL     1       0.164   9.650  22.096  0.00  0.00    +0.000 A 
ATOM     13  C   UNL     1      -0.312  10.529  21.113  0.00  0.00    +0.000 A 
BRANCH  13  14
ATOM     14  O   UNL     1      -1.231  11.376  21.664  0.00  0.00    +0.000 OA
ATOM     15  C   UNL     1      -1.508  11.412  23.048  0.00  0.00    +0.000 C 
ENDBRANCH  13  14
BRANCH   8  16
ATOM     16  C   UNL     1      -0.174  11.316  18.652  0.00  0.00    +0.000 C 
BRANCH  16  18
ATOM     17  C   UNL     1      -1.881  10.149  17.496  0.00  0.00    +0.000 C 
ATOM     18  O   UNL     1      -1.568  11.228  18.365  0.00  0.00    +0.000 OA
ENDBRANCH  16  18
ENDBRANCH   8  16
ENDBRANCH   7  10
ENDBRANCH   1   7
BRANCH   4  19
ATOM     19  C   UNL     1       4.345   3.663  17.384  0.00  0.00    +0.000 C 
BRANCH  19  20
ATOM     20  C   UNL     1       5.450   4.055  16.426  0.00  0.00    +0.000 A 
ATOM     21  C   UNL     1       6.791   4.396  16.815  0.00  0.00    +0.000 A 
ATOM     22  C   UNL     1       7.556   4.844  15.761  0.00  0.00    +0.000 A 
ATOM     23  S   UNL     1       6.705   4.776  14.282  0.00  0.00    +0.000 S 
ATOM     24  C   UNL     1       5.302   4.172  15.054  0.00  0.00    +0.000 A 
ENDBRANCH  19  20
ENDBRANCH   4  19
BRANCH   5  25
ATOM     25  C   UNL     1       3.066   2.856  20.067  0.00  0.00    +0.000 C 
BRANCH  25  26
ATOM     26  C   UNL     1       1.678   2.341  19.692  0.00  0.00    +0.000 C 
BRANCH  26  27
ATOM     27  O   UNL     1       1.779   1.469  18.572  0.00  0.00    +0.000 OA
ATOM     28  H   UNL     1       2.651   1.031  18.619  0.00  0.00    +0.000 HD
ENDBRANCH  26  27
ENDBRANCH  25  26
ENDBRANCH   5  25
TORSDOF 10
ENDMDL
MODEL 3
REMARK VINA RESULT:      -5.8      2.162      3.298
REMARK  Name = 
REMARK  12 active torsions:
REMARK  status: ('A' for Active; 'I' for Inactive)
REMARK    1  A    between atoms: C_1  and  O_2
REMARK    2  A    between atoms: O_2  and  C_3
REMARK    3  A    between atoms: C_3  and  C_4
REMARK    4  A    between atoms: C_6  and  C_7
REMARK    5  A    between atoms: C_7  and  N_8
REMARK    6  A    between atoms: N_11  and  C_12
REMARK    7  A    between atoms: C_12  and  C_13
REMARK    8  A    between atoms: C_18  and  C_19
REMARK    9  A    between atoms: C_19  and  C_20
REMARK   10  A    between atoms: C_20  and  O_21
REMARK   11  A    between atoms: C_25  and  O_26
REMARK   12  A    between atoms: O_26  and  C_27
REMARK                            x       y       z     vdW  Elec       q    Type
REMARK                         _______ _______ _______ _____ _____    ______ ____
ROOT
ATOM      1  N   UNL     1       2.027   8.895  18.763  0.00  0.00    +0.000 NA
ATOM      2  C   UNL     1       1.416  10.035  18.046  0.00  0.00    +0.000 C 
ATOM      3  C   UNL     1      -0.089  10.304  18.316  0.00  0.00    +0.000 C 
ATOM      4  N   UNL     1      -0.545  10.255  19.733  0.00  0.00    +0.000 NA
ATOM      5  C   UNL     1       0.048   9.053  20.374  0.00  0.00    +0.000 C 
ATOM      6  C   UNL     1       1.595   8.966  20.186  0.00  0.00    +0.000 C 
ENDROOT
BRANCH   1   7
ATOM      7  C   UNL     1       1.639   7.593  18.184  0.00  0.00    +0.000 C 
BRANCH   7  10
ATOM      8  C   UNL     1       3.528   4.228  17.584  0.00  0.00    +0.000 A 
ATOM      9  C   UNL     1       2.512   5.153  17.970  0.00  0.00    +0.000 A 
ATOM     10  C   UNL     1       2.713   6.542  17.950  0.00  0.00    +0.000 A 
ATOM     11  C   UNL     1       3.971   7.006  17.560  0.00  0.00    +0.000 A 
ATOM     12  C   UNL     1       4.959   6.119  17.136  0.00  0.00    +0.000 A 
ATOM     13  C   UNL     1       4.749   4.733  17.112  0.00  0.00    +0.000 A 
BRANCH  13  14
ATOM     14  O   UNL     1       5.831   4.117  16.552  0.00  0.00    +0.000 OA
ATOM     15  C   UNL     1       7.135   4.654  16.611  0.00  0.00    +0.000 C 
ENDBRANCH  13  14
BRANCH   8  16
ATOM     16  C   UNL     1       3.190   2.762  17.729  0.00  0.00    +0.000 C 
BRANCH  16  18
ATOM     17  C   UNL     1       1.643   1.979  19.344  0.00  0.00    +0.000 C 
ATOM     18  O   UNL     1       2.953   2.475  19.106  0.00  0.00    +0.000 OA
ENDBRANCH  16  18
ENDBRANCH   8  16
ENDBRANCH   7  10
ENDBRANCH   1   7
BRANCH   4  19
ATOM     19  C   UNL     1      -0.294  11.523  20.447  0.00  0.00    +0.000 C 
BRANCH  19  20
ATOM     20  C   UNL     1      -1.599  12.082  20.973  0.00  0.00    +0.000 A 
ATOM     21  C   UNL     1      -1.959  12.156  22.364  0.00  0.00    +0.000 A 
ATOM     22  C   UNL     1      -3.254  12.582  22.558  0.00  0.00    +0.000 A 
ATOM     23  S   UNL     1      -4.021  12.983  21.086  0.00  0.00    +0.000 S 
ATOM     24  C   UNL     1      -2.630  12.560  20.183  0.00  0.00    +0.000 A 
ENDBRANCH  19  20
ENDBRANCH   4  19
BRANCH   5  25
ATOM     25  C   UNL     1      -0.360   8.774  21.835  0.00  0.00    +0.000 C 
BRANCH  25  26
ATOM     26  C   UNL     1       0.715   9.220  22.825  0.00  0.00    +0.000 C 
BRANCH  26  27
ATOM     27  O   UNL     1       0.101   9.672  24.026  0.00  0.00    +0.000 OA
ATOM     28  H   UNL     1       0.352   9.050  24.736  0.00  0.00    +0.000 HD
ENDBRANCH  26  27
ENDBRANCH  25  26
ENDBRANCH   5  25
TORSDOF 10
ENDMDL
MODEL 4
REMARK VINA RESULT:      -5.8      1.198      2.352
REMARK  Name = 
REMARK  12 active torsions:
REMARK  status: ('A' for Active; 'I' for Inactive)
REMARK    1  A    between atoms: C_1  and  O_2
REMARK    2  A    between atoms: O_2  and  C_3
REMARK    3  A    between atoms: C_3  and  C_4
REMARK    4  A    between atoms: C_6  and  C_7
REMARK    5  A    between atoms: C_7  and  N_8
REMARK    6  A    between atoms: N_11  and  C_12
REMARK    7  A    between atoms: C_12  and  C_13
REMARK    8  A    between atoms: C_18  and  C_19
REMARK    9  A    between atoms: C_19  and  C_20
REMARK   10  A    between atoms: C_20  and  O_21
REMARK   11  A    between atoms: C_25  and  O_26
REMARK   12  A    between atoms: O_26  and  C_27
REMARK                            x       y       z     vdW  Elec       q    Type
REMARK                         _______ _______ _______ _____ _____    ______ ____
ROOT
ATOM      1  N   UNL     1       0.066   8.607  20.831  0.00  0.00    +0.000 NA
ATOM      2  C   UNL     1      -0.594   8.949  22.109  0.00  0.00    +0.000 C 
ATOM      3  C   UNL     1      -0.183  10.293  22.768  0.00  0.00    +0.000 C 
ATOM      4  N   UNL     1      -0.084  11.484  21.880  0.00  0.00    +0.000 NA
ATOM      5  C   UNL     1       0.647  11.090  20.649  0.00  0.00    +0.000 C 
ATOM      6  C   UNL     1       0.048   9.819  19.968  0.00  0.00    +0.000 C 
ENDROOT
BRANCH   1   7
ATOM      7  C   UNL     1       1.456   8.146  21.021  0.00  0.00    +0.000 C 
BRANCH   7  10
ATOM      8  C   UNL     1       3.328   5.786  18.535  0.00  0.00    +0.000 A 
ATOM      9  C   UNL     1       2.780   6.968  19.118  0.00  0.00    +0.000 A 
ATOM     10  C   UNL     1       1.942   6.933  20.244  0.00  0.00    +0.000 A 
ATOM     11  C   UNL     1       1.627   5.679  20.774  0.00  0.00    +0.000 A 
ATOM     12  C   UNL     1       2.190   4.519  20.245  0.00  0.00    +0.000 A 
ATOM     13  C   UNL     1       3.063   4.553  19.149  0.00  0.00    +0.000 A 
BRANCH  13  14
ATOM     14  O   UNL     1       3.548   3.298  18.913  0.00  0.00    +0.000 OA
ATOM     15  C   UNL     1       3.052   2.463  17.888  0.00  0.00    +0.000 C 
ENDBRANCH  13  14
BRANCH   8  16
ATOM     16  C   UNL     1       4.152   5.976  17.282  0.00  0.00    +0.000 C 
BRANCH  16  18
ATOM     17  C   UNL     1       5.972   4.646  16.555  0.00  0.00    +0.000 C 
ATOM     18  O   UNL     1       5.489   5.551  17.537  0.00  0.00    +0.000 OA
ENDBRANCH  16  18
ENDBRANCH   8  16
ENDBRANCH   7  10
ENDBRANCH   1   7
BRANCH   4  19
ATOM     19  C   UNL     1      -1.397  12.118  21.644  0.00  0.00    +0.000 C 
BRANCH  19  20
ATOM     20  C   UNL     1      -1.726  13.057  22.785  0.00  0.00    +0.000 A 
ATOM     21  C   UNL     1      -2.953  13.038  23.535  0.00  0.00    +0.000 A 
ATOM     22  C   UNL     1      -3.049  14.084  24.427  0.00  0.00    +0.000 A 
ATOM     23  S   UNL     1      -1.638  15.045  24.438  0.00  0.00    +0.000 S 
ATOM     24  C   UNL     1      -0.905  14.079  23.229  0.00  0.00    +0.000 A 
ENDBRANCH  19  20
ENDBRANCH   4  19
BRANCH   5  25
ATOM     25  C   UNL     1       0.924  12.205  19.620  0.00  0.00    +0.000 C 
BRANCH  25  26
ATOM     26  C   UNL     1       2.076  13.111  20.051  0.00  0.00    +0.000 C 
BRANCH  26  27
ATOM     27  O   UNL     1       2.147  13.149  21.472  0.00  0.00    +0.000 OA
ATOM     28  H   UNL     1       2.095  14.087  21.743  0.00  0.00    +0.000 HD
ENDBRANCH  26  27
ENDBRANCH  25  26
ENDBRANCH   5  25
TORSDOF 10
ENDMDL
MODEL 5
REMARK VINA RESULT:      -5.8      1.439      2.526
REMARK  Name = 
REMARK  12 active torsions:
REMARK  status: ('A' for Active; 'I' for Inactive)
REMARK    1  A    between atoms: C_1  and  O_2
REMARK    2  A    between atoms: O_2  and  C_3
REMARK    3  A    between atoms: C_3  and  C_4
REMARK    4  A    between atoms: C_6  and  C_7
REMARK    5  A    between atoms: C_7  and  N_8
REMARK    6  A    between atoms: N_11  and  C_12
REMARK    7  A    between atoms: C_12  and  C_13
REMARK    8  A    between atoms: C_18  and  C_19
REMARK    9  A    between atoms: C_19  and  C_20
REMARK   10  A    between atoms: C_20  and  O_21
REMARK   11  A    between atoms: C_25  and  O_26
REMARK   12  A    between atoms: O_26  and  C_27
REMARK                            x       y       z     vdW  Elec       q    Type
REMARK                         _______ _______ _______ _____ _____    ______ ____
ROOT
ATOM      1  N   UNL     1      -0.060   8.613  21.072  0.00  0.00    +0.000 NA
ATOM      2  C   UNL     1      -0.580   8.936  22.418  0.00  0.00    +0.000 C 
ATOM      3  C   UNL     1      -0.242  10.344  22.977  0.00  0.00    +0.000 C 
ATOM      4  N   UNL     1      -0.398  11.499  22.051  0.00  0.00    +0.000 NA
ATOM      5  C   UNL     1       0.206  11.134  20.743  0.00  0.00    +0.000 C 
ATOM      6  C   UNL     1      -0.330   9.778  20.186  0.00  0.00    +0.000 C 
ENDROOT
BRANCH   1   7
ATOM      7  C   UNL     1       1.387   8.315  21.084  0.00  0.00    +0.000 C 
BRANCH   7  10
ATOM      8  C   UNL     1       3.354   6.093  18.546  0.00  0.00    +0.000 A 
ATOM      9  C   UNL     1       2.781   7.242  19.171  0.00  0.00    +0.000 A 
ATOM     10  C   UNL     1       1.905   7.146  20.263  0.00  0.00    +0.000 A 
ATOM     11  C   UNL     1       1.577   5.865  20.715  0.00  0.00    +0.000 A 
ATOM     12  C   UNL     1       2.162   4.736  20.146  0.00  0.00    +0.000 A 
ATOM     13  C   UNL     1       3.073   4.829  19.085  0.00  0.00    +0.000 A 
BRANCH  13  14
ATOM     14  O   UNL     1       3.571   3.589  18.801  0.00  0.00    +0.000 OA
ATOM     15  C   UNL     1       2.801   2.411  18.904  0.00  0.00    +0.000 C 
ENDBRANCH  13  14
BRANCH   8  16
ATOM     16  C   UNL     1       4.220   6.350  17.335  0.00  0.00    +0.000 C 
BRANCH  16  18
ATOM     17  C   UNL     1       6.216   5.212  16.759  0.00  0.00    +0.000 C 
ATOM     18  O   UNL     1       5.582   6.093  17.674  0.00  0.00    +0.000 OA
ENDBRANCH  16  18
ENDBRANCH   8  16
ENDBRANCH   7  10
ENDBRANCH   1   7
BRANCH   4  19
ATOM     19  C   UNL     1      -1.793  11.975  21.977  0.00  0.00    +0.000 C 
BRANCH  19  20
ATOM     20  C   UNL     1      -2.009  13.091  22.977  0.00  0.00    +0.000 A 
ATOM     21  C   UNL     1      -1.019  14.066  23.345  0.00  0.00    +0.000 A 
ATOM     22  C   UNL     1      -1.432  14.884  24.374  0.00  0.00    +0.000 A 
ATOM     23  S   UNL     1      -3.037  14.552  24.848  0.00  0.00    +0.000 S 
ATOM     24  C   UNL     1      -3.175  13.293  23.695  0.00  0.00    +0.000 A 
ENDBRANCH  19  20
ENDBRANCH   4  19
BRANCH   5  25
ATOM     25  C   UNL     1       0.215  12.228  19.655  0.00  0.00    +0.000 C 
BRANCH  25  26
ATOM     26  C   UNL     1      -0.632  11.839  18.444  0.00  0.00    +0.000 C 
BRANCH  26  27
ATOM     27  O   UNL     1      -0.946  13.001  17.687  0.00  0.00    +0.000 OA
ATOM     28  H   UNL     1      -1.858  13.266  17.920  0.00  0.00    +0.000 HD
ENDBRANCH  26  27
ENDBRANCH  25  26
ENDBRANCH   5  25
TORSDOF 10
ENDMDL
MODEL 6
REMARK VINA RESULT:      -5.7      1.254      1.601
REMARK  Name = 
REMARK  12 active torsions:
REMARK  status: ('A' for Active; 'I' for Inactive)
REMARK    1  A    between atoms: C_1  and  O_2
REMARK    2  A    between atoms: O_2  and  C_3
REMARK    3  A    between atoms: C_3  and  C_4
REMARK    4  A    between atoms: C_6  and  C_7
REMARK    5  A    between atoms: C_7  and  N_8
REMARK    6  A    between atoms: N_11  and  C_12
REMARK    7  A    between atoms: C_12  and  C_13
REMARK    8  A    between atoms: C_18  and  C_19
REMARK    9  A    between atoms: C_19  and  C_20
REMARK   10  A    between atoms: C_20  and  O_21
REMARK   11  A    between atoms: C_25  and  O_26
REMARK   12  A    between atoms: O_26  and  C_27
REMARK                            x       y       z     vdW  Elec       q    Type
REMARK                         _______ _______ _______ _____ _____    ______ ____
ROOT
ATOM      1  N   UNL     1      -0.169   8.795  20.859  0.00  0.00    +0.000 NA
ATOM      2  C   UNL     1      -0.605   8.980  22.259  0.00  0.00    +0.000 C 
ATOM      3  C   UNL     1      -0.262  10.341  22.923  0.00  0.00    +0.000 C 
ATOM      4  N   UNL     1      -0.504  11.570  22.118  0.00  0.00    +0.000 NA
ATOM      5  C   UNL     1       0.019  11.342  20.747  0.00  0.00    +0.000 C 
ATOM      6  C   UNL     1      -0.522  10.027  20.103  0.00  0.00    +0.000 C 
ENDROOT
BRANCH   1   7
ATOM      7  C   UNL     1       1.282   8.538  20.751  0.00  0.00    +0.000 C 
BRANCH   7  10
ATOM      8  C   UNL     1       1.642   4.774  19.774  0.00  0.00    +0.000 A 
ATOM      9  C   UNL     1       1.270   5.952  20.491  0.00  0.00    +0.000 A 
ATOM     10  C   UNL     1       1.755   7.224  20.150  0.00  0.00    +0.000 A 
ATOM     11  C   UNL     1       2.653   7.307  19.083  0.00  0.00    +0.000 A 
ATOM     12  C   UNL     1       2.991   6.174  18.344  0.00  0.00    +0.000 A 
ATOM     13  C   UNL     1       2.475   4.908  18.654  0.00  0.00    +0.000 A 
BRANCH  13  14
ATOM     14  O   UNL     1       2.878   4.008  17.709  0.00  0.00    +0.000 OA
ATOM     15  C   UNL     1       4.103   4.120  17.016  0.00  0.00    +0.000 C 
ENDBRANCH  13  14
BRANCH   8  16
ATOM     16  C   UNL     1       1.100   3.467  20.305  0.00  0.00    +0.000 C 
BRANCH  16  18
ATOM     17  C   UNL     1       2.906   2.525  21.513  0.00  0.00    +0.000 C 
ATOM     18  O   UNL     1       1.668   3.215  21.589  0.00  0.00    +0.000 OA
ENDBRANCH  16  18
ENDBRANCH   8  16
ENDBRANCH   7  10
ENDBRANCH   1   7
BRANCH   4  19
ATOM     19  C   UNL     1      -1.912  12.011  22.178  0.00  0.00    +0.000 C 
BRANCH  19  20
ATOM     20  C   UNL     1      -2.062  13.112  23.206  0.00  0.00    +0.000 A 
ATOM     21  C   UNL     1      -3.246  13.353  23.985  0.00  0.00    +0.000 A 
ATOM     22  C   UNL     1      -3.161  14.498  24.746  0.00  0.00    +0.000 A 
ATOM     23  S   UNL     1      -1.633  15.246  24.605  0.00  0.00    +0.000 S 
ATOM     24  C   UNL     1      -1.091  14.053  23.503  0.00  0.00    +0.000 A 
ENDBRANCH  19  20
ENDBRANCH   4  19
BRANCH   5  25
ATOM     25  C   UNL     1      -0.069  12.529  19.766  0.00  0.00    +0.000 C 
BRANCH  25  26
ATOM     26  C   UNL     1      -1.277  12.417  18.837  0.00  0.00    +0.000 C 
BRANCH  26  27
ATOM     27  O   UNL     1      -0.930  12.891  17.542  0.00  0.00    +0.000 OA
ATOM     28  H   UNL     1       0.026  12.730  17.417  0.00  0.00    +0.000 HD
ENDBRANCH  26  27
ENDBRANCH  25  26
ENDBRANCH   5  25
TORSDOF 10
ENDMDL
MODEL 7
REMARK VINA RESULT:      -5.7      2.496      4.123
REMARK  Name = 
REMARK  12 active torsions:
REMARK  status: ('A' for Active; 'I' for Inactive)
REMARK    1  A    between atoms: C_1  and  O_2
REMARK    2  A    between atoms: O_2  and  C_3
REMARK    3  A    between atoms: C_3  and  C_4
REMARK    4  A    between atoms: C_6  and  C_7
REMARK    5  A    between atoms: C_7  and  N_8
REMARK    6  A    between atoms: N_11  and  C_12
REMARK    7  A    between atoms: C_12  and  C_13
REMARK    8  A    between atoms: C_18  and  C_19
REMARK    9  A    between atoms: C_19  and  C_20
REMARK   10  A    between atoms: C_20  and  O_21
REMARK   11  A    between atoms: C_25  and  O_26
REMARK   12  A    between atoms: O_26  and  C_27
REMARK                            x       y       z     vdW  Elec       q    Type
REMARK                         _______ _______ _______ _____ _____    ______ ____
ROOT
ATOM      1  N   UNL     1       2.228   8.603  18.638  0.00  0.00    +0.000 NA
ATOM      2  C   UNL     1       1.660   9.735  17.875  0.00  0.00    +0.000 C 
ATOM      3  C   UNL     1       0.163  10.062  18.121  0.00  0.00    +0.000 C 
ATOM      4  N   UNL     1      -0.306  10.079  19.534  0.00  0.00    +0.000 NA
ATOM      5  C   UNL     1       0.241   8.881  20.223  0.00  0.00    +0.000 C 
ATOM      6  C   UNL     1       1.786   8.737  20.052  0.00  0.00    +0.000 C 
ENDROOT
BRANCH   1   7
ATOM      7  C   UNL     1       1.802   7.293  18.101  0.00  0.00    +0.000 C 
BRANCH   7  10
ATOM      8  C   UNL     1       4.909   4.934  18.277  0.00  0.00    +0.000 A 
ATOM      9  C   UNL     1       4.072   6.037  17.930  0.00  0.00    +0.000 A 
ATOM     10  C   UNL     1       2.715   6.091  18.285  0.00  0.00    +0.000 A 
ATOM     11  C   UNL     1       2.185   5.000  18.978  0.00  0.00    +0.000 A 
ATOM     12  C   UNL     1       2.999   3.937  19.364  0.00  0.00    +0.000 A 
ATOM     13  C   UNL     1       4.365   3.898  19.051  0.00  0.00    +0.000 A 
BRANCH  13  14
ATOM     14  O   UNL     1       4.939   2.809  19.643  0.00  0.00    +0.000 OA
ATOM     15  C   UNL     1       4.300   2.062  20.655  0.00  0.00    +0.000 C 
ENDBRANCH  13  14
BRANCH   8  16
ATOM     16  C   UNL     1       6.329   4.983  17.761  0.00  0.00    +0.000 C 
BRANCH  16  18
ATOM     17  C   UNL     1       7.992   6.149  18.980  0.00  0.00    +0.000 C 
ATOM     18  O   UNL     1       7.227   4.958  18.870  0.00  0.00    +0.000 OA
ENDBRANCH  16  18
ENDBRANCH   8  16
ENDBRANCH   7  10
ENDBRANCH   1   7
BRANCH   4  19
ATOM     19  C   UNL     1      -0.020  11.363  20.205  0.00  0.00    +0.000 C 
BRANCH  19  20
ATOM     20  C   UNL     1      -1.311  11.985  20.693  0.00  0.00    +0.000 A 
ATOM     21  C   UNL     1      -1.692  12.108  22.074  0.00  0.00    +0.000 A 
ATOM     22  C   UNL     1      -2.973  12.589  22.234  0.00  0.00    +0.000 A 
ATOM     23  S   UNL     1      -3.698  12.982  20.739  0.00  0.00    +0.000 S 
ATOM     24  C   UNL     1      -2.308  12.483  19.872  0.00  0.00    +0.000 A 
ENDBRANCH  19  20
ENDBRANCH   4  19
BRANCH   5  25
ATOM     25  C   UNL     1      -0.187   8.669  21.689  0.00  0.00    +0.000 C 
BRANCH  25  26
ATOM     26  C   UNL     1       0.883   9.138  22.673  0.00  0.00    +0.000 C 
BRANCH  26  27
ATOM     27  O   UNL     1       0.265   9.783  23.780  0.00  0.00    +0.000 OA
ATOM     28  H   UNL     1      -0.594  10.134  23.473  0.00  0.00    +0.000 HD
ENDBRANCH  26  27
ENDBRANCH  25  26
ENDBRANCH   5  25
TORSDOF 10
ENDMDL
MODEL 8
REMARK VINA RESULT:      -5.7      1.025      1.348
REMARK  Name = 
REMARK  12 active torsions:
REMARK  status: ('A' for Active; 'I' for Inactive)
REMARK    1  A    between atoms: C_1  and  O_2
REMARK    2  A    between atoms: O_2  and  C_3
REMARK    3  A    between atoms: C_3  and  C_4
REMARK    4  A    between atoms: C_6  and  C_7
REMARK    5  A    between atoms: C_7  and  N_8
REMARK    6  A    between atoms: N_11  and  C_12
REMARK    7  A    between atoms: C_12  and  C_13
REMARK    8  A    between atoms: C_18  and  C_19
REMARK    9  A    between atoms: C_19  and  C_20
REMARK   10  A    between atoms: C_20  and  O_21
REMARK   11  A    between atoms: C_25  and  O_26
REMARK   12  A    between atoms: O_26  and  C_27
REMARK                            x       y       z     vdW  Elec       q    Type
REMARK                         _______ _______ _______ _____ _____    ______ ____
ROOT
ATOM      1  N   UNL     1       0.091   8.640  20.801  0.00  0.00    +0.000 NA
ATOM      2  C   UNL     1      -0.678   8.874  22.042  0.00  0.00    +0.000 C 
ATOM      3  C   UNL     1      -0.314  10.143  22.860  0.00  0.00    +0.000 C 
ATOM      4  N   UNL     1      -0.122  11.409  22.101  0.00  0.00    +0.000 NA
ATOM      5  C   UNL     1       0.713  11.118  20.908  0.00  0.00    +0.000 C 
ATOM      6  C   UNL     1       0.165   9.928  20.059  0.00  0.00    +0.000 C 
ENDROOT
BRANCH   1   7
ATOM      7  C   UNL     1       1.454   8.137  21.070  0.00  0.00    +0.000 C 
BRANCH   7  10
ATOM      8  C   UNL     1       2.186   4.553  19.702  0.00  0.00    +0.000 A 
ATOM      9  C   UNL     1       1.809   5.607  20.588  0.00  0.00    +0.000 A 
ATOM     10  C   UNL     1       1.978   6.962  20.260  0.00  0.00    +0.000 A 
ATOM     11  C   UNL     1       2.563   7.258  19.027  0.00  0.00    +0.000 A 
ATOM     12  C   UNL     1       2.894   6.243  18.131  0.00  0.00    +0.000 A 
ATOM     13  C   UNL     1       2.687   4.890  18.436  0.00  0.00    +0.000 A 
BRANCH  13  14
ATOM     14  O   UNL     1       2.992   4.126  17.346  0.00  0.00    +0.000 OA
ATOM     15  C   UNL     1       4.289   4.063  16.792  0.00  0.00    +0.000 C 
ENDBRANCH  13  14
BRANCH   8  16
ATOM     16  C   UNL     1       2.014   3.145  20.224  0.00  0.00    +0.000 C 
BRANCH  16  18
ATOM     17  C   UNL     1       4.225   2.298  20.181  0.00  0.00    +0.000 C 
ATOM     18  O   UNL     1       3.165   2.789  20.987  0.00  0.00    +0.000 OA
ENDBRANCH  16  18
ENDBRANCH   8  16
ENDBRANCH   7  10
ENDBRANCH   1   7
BRANCH   4  19
ATOM     19  C   UNL     1      -1.401  12.087  21.809  0.00  0.00    +0.000 C 
BRANCH  19  20
ATOM     20  C   UNL     1      -1.720  13.076  22.910  0.00  0.00    +0.000 A 
ATOM     21  C   UNL     1      -2.943  13.096  23.667  0.00  0.00    +0.000 A 
ATOM     22  C   UNL     1      -3.030  14.180  24.512  0.00  0.00    +0.000 A 
ATOM     23  S   UNL     1      -1.615  15.134  24.475  0.00  0.00    +0.000 S 
ATOM     24  C   UNL     1      -0.892  14.113  23.306  0.00  0.00    +0.000 A 
ENDBRANCH  19  20
ENDBRANCH   4  19
BRANCH   5  25
ATOM     25  C   UNL     1       1.093  12.319  20.018  0.00  0.00    +0.000 C 
BRANCH  25  26
ATOM     26  C   UNL     1       2.130  13.222  20.685  0.00  0.00    +0.000 C 
BRANCH  26  27
ATOM     27  O   UNL     1       2.859  13.929  19.690  0.00  0.00    +0.000 OA
ATOM     28  H   UNL     1       3.653  13.400  19.477  0.00  0.00    +0.000 HD
ENDBRANCH  26  27
ENDBRANCH  25  26
ENDBRANCH   5  25
TORSDOF 10
ENDMDL
MODEL 9
REMARK VINA RESULT:      -5.7      4.039      9.771
REMARK  Name = 
REMARK  12 active torsions:
REMARK  status: ('A' for Active; 'I' for Inactive)
REMARK    1  A    between atoms: C_1  and  O_2
REMARK    2  A    between atoms: O_2  and  C_3
REMARK    3  A    between atoms: C_3  and  C_4
REMARK    4  A    between atoms: C_6  and  C_7
REMARK    5  A    between atoms: C_7  and  N_8
REMARK    6  A    between atoms: N_11  and  C_12
REMARK    7  A    between atoms: C_12  and  C_13
REMARK    8  A    between atoms: C_18  and  C_19
REMARK    9  A    between atoms: C_19  and  C_20
REMARK   10  A    between atoms: C_20  and  O_21
REMARK   11  A    between atoms: C_25  and  O_26
REMARK   12  A    between atoms: O_26  and  C_27
REMARK                            x       y       z     vdW  Elec       q    Type
REMARK                         _______ _______ _______ _____ _____    ______ ____
ROOT
ATOM      1  N   UNL     1       2.227   6.548  18.618  0.00  0.00    +0.000 NA
ATOM      2  C   UNL     1       3.474   6.675  17.835  0.00  0.00    +0.000 C 
ATOM      3  C   UNL     1       4.721   5.928  18.383  0.00  0.00    +0.000 C 
ATOM      4  N   UNL     1       4.523   4.530  18.855  0.00  0.00    +0.000 NA
ATOM      5  C   UNL     1       3.295   4.487  19.690  0.00  0.00    +0.000 C 
ATOM      6  C   UNL     1       2.056   5.114  18.977  0.00  0.00    +0.000 C 
ENDROOT
BRANCH   1   7
ATOM      7  C   UNL     1       2.244   7.373  19.843  0.00  0.00    +0.000 C 
BRANCH   7  10
ATOM      8  C   UNL     1      -0.014  10.297  21.109  0.00  0.00    +0.000 A 
ATOM      9  C   UNL     1       0.682   9.051  21.069  0.00  0.00    +0.000 A 
ATOM     10  C   UNL     1       1.346   8.598  19.919  0.00  0.00    +0.000 A 
ATOM     11  C   UNL     1       1.282   9.401  18.778  0.00  0.00    +0.000 A 
ATOM     12  C   UNL     1       0.645  10.641  18.813  0.00  0.00    +0.000 A 
ATOM     13  C   UNL     1       0.018  11.118  19.973  0.00  0.00    +0.000 A 
BRANCH  13  14
ATOM     14  O   UNL     1      -0.422  12.394  19.761  0.00  0.00    +0.000 OA
ATOM     15  C   UNL     1       0.451  13.476  19.516  0.00  0.00    +0.000 C 
ENDBRANCH  13  14
BRANCH   8  16
ATOM     16  C   UNL     1      -0.744  10.616  22.394  0.00  0.00    +0.000 C 
BRANCH  16  18
ATOM     17  C   UNL     1      -1.389  12.771  23.136  0.00  0.00    +0.000 C 
ATOM     18  O   UNL     1      -0.309  11.888  22.871  0.00  0.00    +0.000 OA
ENDBRANCH  16  18
ENDBRANCH   8  16
ENDBRANCH   7  10
ENDBRANCH   1   7
BRANCH   4  19
ATOM     19  C   UNL     1       4.552   3.555  17.747  0.00  0.00    +0.000 C 
BRANCH  19  20
ATOM     20  C   UNL     1       5.537   4.008  16.690  0.00  0.00    +0.000 A 
ATOM     21  C   UNL     1       6.900   4.387  16.947  0.00  0.00    +0.000 A 
ATOM     22  C   UNL     1       7.535   4.886  15.831  0.00  0.00    +0.000 A 
ATOM     23  S   UNL     1       6.537   4.823  14.447  0.00  0.00    +0.000 S 
ATOM     24  C   UNL     1       5.242   4.153  15.345  0.00  0.00    +0.000 A 
ENDBRANCH  19  20
ENDBRANCH   4  19
BRANCH   5  25
ATOM     25  C   UNL     1       2.947   3.133  20.341  0.00  0.00    +0.000 C 
BRANCH  25  26
ATOM     26  C   UNL     1       1.598   2.598  19.866  0.00  0.00    +0.000 C 
BRANCH  26  27
ATOM     27  O   UNL     1       1.803   1.578  18.896  0.00  0.00    +0.000 OA
ATOM     28  H   UNL     1       1.768   2.000  18.014  0.00  0.00    +0.000 HD
ENDBRANCH  26  27
ENDBRANCH  25  26
ENDBRANCH   5  25
TORSDOF 10
ENDMDL
