MODEL 1
REMARK VINA RESULT:      -7.5      0.000      0.000
REMARK  Name = 
REMARK  3 active torsions:
REMARK  status: ('A' for Active; 'I' for Inactive)
REMARK    1  A    between atoms: C_2  and  C_3
REMARK    2  A    between atoms: C_5  and  N_6
REMARK    3  A    between atoms: C_12  and  C_13
REMARK                            x       y       z     vdW  Elec       q    Type
REMARK                         _______ _______ _______ _____ _____    ______ ____
ROOT
ATOM      1  N   UNL     1       1.651   8.951  19.277  0.00  0.00    +0.000 NA
ATOM      2  C   UNL     1       1.104   9.172  20.636  0.00  0.00    +0.000 C 
ATOM      3  C   UNL     1       0.869  10.669  20.949  0.00  0.00    +0.000 C 
ATOM      4  N   UNL     1       0.003  11.277  19.937  0.00  0.00    +0.000 N 
ATOM      5  C   UNL     1      -1.249  11.729  20.217  0.00  0.00    +0.000 A 
ATOM      6  N   UNL     1      -2.250  11.748  19.355  0.00  0.00    +0.000 NA
ATOM      7  C   UNL     1      -3.409  12.247  19.939  0.00  0.00    +0.000 A 
ATOM      8  C   UNL     1      -3.251  12.697  21.232  0.00  0.00    +0.000 A 
ATOM      9  S   UNL     1      -1.658  12.411  21.761  0.00  0.00    +0.000 S 
ATOM     10  C   UNL     1       0.433  11.055  18.559  0.00  0.00    +0.000 C 
ATOM     11  C   UNL     1       0.725   9.561  18.287  0.00  0.00    +0.000 C 
ENDROOT
BRANCH   1  14
ATOM     12  C   UNL     1       3.593   5.828  18.763  0.00  0.00    +0.000 C 
ATOM     13  C   UNL     1       3.272   7.260  18.370  0.00  0.00    +0.000 C 
ATOM     14  C   UNL     1       1.909   7.524  19.011  0.00  0.00    +0.000 C 
ATOM     15  C   UNL     1       1.928   6.600  20.253  0.00  0.00    +0.000 C 
ATOM     16  N   UNL     1       3.118   5.759  20.152  0.00  0.00    +0.000 NA
ATOM     17  H   UNL     1       2.967   4.803  20.461  0.00  0.00    +0.000 HD
BRANCH  12  19
ATOM     18  O   UNL     1       5.846   5.505  19.643  0.00  0.00    +0.000 OA
ATOM     19  C   UNL     1       5.107   5.538  18.656  0.00  0.00    +0.000 C 
ATOM     20  N   UNL     1       5.619   5.318  17.385  0.00  0.00    +0.000 N 
ATOM     21  C   UNL     1       7.053   5.131  17.211  0.00  0.00    +0.000 C 
ATOM     22  C   UNL     1       7.363   4.577  15.823  0.00  0.00    +0.000 C 
ATOM     23  S   UNL     1       5.777   4.085  15.115  0.00  0.00    +0.000 S 
ATOM     24  C   UNL     1       4.856   5.216  16.165  0.00  0.00    +0.000 C 
ENDBRANCH  12  19
ENDBRANCH   1  14
BRANCH   7  25
ATOM     25  C   UNL     1      -4.685  12.289  19.227  0.00  0.00    +0.000 A 
ATOM     26  C   UNL     1      -4.751  12.087  17.837  0.00  0.00    +0.000 A 
ATOM     27  C   UNL     1      -5.970  12.152  17.161  0.00  0.00    +0.000 A 
ATOM     28  C   UNL     1      -7.141  12.420  17.862  0.00  0.00    +0.000 A 
ATOM     29  C   UNL     1      -7.094  12.624  19.240  0.00  0.00    +0.000 A 
ATOM     30  C   UNL     1      -5.873  12.560  19.920  0.00  0.00    +0.000 A 
ENDBRANCH   7  25
TORSDOF 3
ENDMDL
MODEL 2
REMARK VINA RESULT:      -7.2      5.560      8.881
REMARK  Name = 
REMARK  3 active torsions:
REMARK  status: ('A' for Active; 'I' for Inactive)
REMARK    1  A    between atoms: C_2  and  C_3
REMARK    2  A    between atoms: C_5  and  N_6
REMARK    3  A    between atoms: C_12  and  C_13
REMARK                            x       y       z     vdW  Elec       q    Type
REMARK                         _______ _______ _______ _____ _____    ______ ____
ROOT
ATOM      1  N   UNL     1       1.594  14.520  19.778  0.00  0.00    +0.000 NA
ATOM      2  C   UNL     1       1.535  13.873  21.109  0.00  0.00    +0.000 C 
ATOM      3  C   UNL     1       0.369  12.862  21.232  0.00  0.00    +0.000 C 
ATOM      4  N   UNL     1       0.447  11.856  20.170  0.00  0.00    +0.000 N 
ATOM      5  C   UNL     1       0.704  10.543  20.419  0.00  0.00    +0.000 A 
ATOM      6  N   UNL     1       1.328   9.730  19.586  0.00  0.00    +0.000 NA
ATOM      7  C   UNL     1       1.458   8.456  20.129  0.00  0.00    +0.000 A 
ATOM      8  C   UNL     1       0.839   8.287  21.348  0.00  0.00    +0.000 A 
ATOM      9  S   UNL     1       0.163   9.759  21.871  0.00  0.00    +0.000 S 
ATOM     10  C   UNL     1       0.572  12.405  18.822  0.00  0.00    +0.000 C 
ATOM     11  C   UNL     1       1.700  13.461  18.740  0.00  0.00    +0.000 C 
ENDROOT
BRANCH   1  14
ATOM     12  C   UNL     1       4.913  15.940  18.912  0.00  0.00    +0.000 C 
ATOM     13  C   UNL     1       4.073  14.881  19.605  0.00  0.00    +0.000 C 
ATOM     14  C   UNL     1       2.682  15.510  19.694  0.00  0.00    +0.000 C 
ATOM     15  C   UNL     1       2.648  16.446  18.461  0.00  0.00    +0.000 C 
ATOM     16  N   UNL     1       3.994  16.467  17.894  0.00  0.00    +0.000 NA
ATOM     17  H   UNL     1       4.278  17.382  17.555  0.00  0.00    +0.000 HD
BRANCH  12  19
ATOM     18  O   UNL     1       6.159  14.290  17.616  0.00  0.00    +0.000 OA
ATOM     19  C   UNL     1       6.184  15.329  18.281  0.00  0.00    +0.000 C 
ATOM     20  N   UNL     1       7.380  15.999  18.496  0.00  0.00    +0.000 N 
ATOM     21  C   UNL     1       8.625  15.423  18.004  0.00  0.00    +0.000 C 
ATOM     22  C   UNL     1       9.750  16.453  18.042  0.00  0.00    +0.000 C 
ATOM     23  S   UNL     1       8.963  18.043  18.376  0.00  0.00    +0.000 S 
ATOM     24  C   UNL     1       7.536  17.274  19.153  0.00  0.00    +0.000 C 
ENDBRANCH  12  19
ENDBRANCH   1  14
BRANCH   7  25
ATOM     25  C   UNL     1       2.191   7.390  19.448  0.00  0.00    +0.000 A 
ATOM     26  C   UNL     1       2.303   6.108  20.011  0.00  0.00    +0.000 A 
ATOM     27  C   UNL     1       3.024   5.102  19.366  0.00  0.00    +0.000 A 
ATOM     28  C   UNL     1       3.645   5.363  18.148  0.00  0.00    +0.000 A 
ATOM     29  C   UNL     1       3.545   6.630  17.576  0.00  0.00    +0.000 A 
ATOM     30  C   UNL     1       2.823   7.639  18.222  0.00  0.00    +0.000 A 
ENDBRANCH   7  25
TORSDOF 3
ENDMDL
MODEL 3
REMARK VINA RESULT:      -7.1      2.285      3.464
REMARK  Name = 
REMARK  3 active torsions:
REMARK  status: ('A' for Active; 'I' for Inactive)
REMARK    1  A    between atoms: C_2  and  C_3
REMARK    2  A    between atoms: C_5  and  N_6
REMARK    3  A    between atoms: C_12  and  C_13
REMARK                            x       y       z     vdW  Elec       q    Type
REMARK                         _______ _______ _______ _____ _____    ______ ____
ROOT
ATOM      1  N   UNL     1       3.506   6.790  18.509  0.00  0.00    +0.000 NA
ATOM      2  C   UNL     1       2.536   6.659  19.621  0.00  0.00    +0.000 C 
ATOM      3  C   UNL     1       2.201   8.016  20.286  0.00  0.00    +0.000 C 
ATOM      4  N   UNL     1       1.718   8.972  19.288  0.00  0.00    +0.000 N 
ATOM      5  C   UNL     1       0.441   9.442  19.278  0.00  0.00    +0.000 A 
ATOM      6  N   UNL     1      -0.216   9.806  18.192  0.00  0.00    +0.000 NA
ATOM      7  C   UNL     1      -1.507  10.224  18.500  0.00  0.00    +0.000 A 
ATOM      8  C   UNL     1      -1.790  10.261  19.848  0.00  0.00    +0.000 A 
ATOM      9  S   UNL     1      -0.462   9.682  20.742  0.00  0.00    +0.000 S 
ATOM     10  C   UNL     1       2.582   9.119  18.120  0.00  0.00    +0.000 C 
ATOM     11  C   UNL     1       2.957   7.747  17.512  0.00  0.00    +0.000 C 
ENDROOT
BRANCH   1  14
ATOM     12  C   UNL     1       5.409   4.274  16.551  0.00  0.00    +0.000 C 
ATOM     13  C   UNL     1       4.658   5.593  16.626  0.00  0.00    +0.000 C 
ATOM     14  C   UNL     1       3.845   5.483  17.917  0.00  0.00    +0.000 C 
ATOM     15  C   UNL     1       4.716   4.552  18.794  0.00  0.00    +0.000 C 
ATOM     16  N   UNL     1       5.793   4.040  17.950  0.00  0.00    +0.000 NA
ATOM     17  H   UNL     1       6.022   3.067  18.130  0.00  0.00    +0.000 HD
BRANCH  12  19
ATOM     18  O   UNL     1       7.785   4.541  16.060  0.00  0.00    +0.000 OA
ATOM     19  C   UNL     1       6.642   4.378  15.625  0.00  0.00    +0.000 C 
ATOM     20  N   UNL     1       6.414   4.286  14.259  0.00  0.00    +0.000 N 
ATOM     21  C   UNL     1       7.524   4.468  13.332  0.00  0.00    +0.000 C 
ATOM     22  C   UNL     1       7.141   4.000  11.931  0.00  0.00    +0.000 C 
ATOM     23  S   UNL     1       5.577   3.116  12.108  0.00  0.00    +0.000 S 
ATOM     24  C   UNL     1       5.155   3.984  13.624  0.00  0.00    +0.000 C 
ENDBRANCH  12  19
ENDBRANCH   1  14
BRANCH   7  25
ATOM     25  C   UNL     1      -2.473  10.593  17.467  0.00  0.00    +0.000 A 
ATOM     26  C   UNL     1      -3.601  11.376  17.771  0.00  0.00    +0.000 A 
ATOM     27  C   UNL     1      -4.531  11.705  16.785  0.00  0.00    +0.000 A 
ATOM     28  C   UNL     1      -4.350  11.257  15.480  0.00  0.00    +0.000 A 
ATOM     29  C   UNL     1      -3.238  10.480  15.161  0.00  0.00    +0.000 A 
ATOM     30  C   UNL     1      -2.305  10.148  16.149  0.00  0.00    +0.000 A 
ENDBRANCH   7  25
TORSDOF 3
ENDMDL
MODEL 4
REMARK VINA RESULT:      -7.1      4.051     11.045
REMARK  Name = 
REMARK  3 active torsions:
REMARK  status: ('A' for Active; 'I' for Inactive)
REMARK    1  A    between atoms: C_2  and  C_3
REMARK    2  A    between atoms: C_5  and  N_6
REMARK    3  A    between atoms: C_12  and  C_13
REMARK                            x       y       z     vdW  Elec       q    Type
REMARK                         _______ _______ _______ _____ _____    ______ ____
ROOT
ATOM      1  N   UNL     1      -0.785  11.574  20.719  0.00  0.00    +0.000 NA
ATOM      2  C   UNL     1      -0.518  11.239  19.301  0.00  0.00    +0.000 C 
ATOM      3  C   UNL     1       0.969  10.898  19.037  0.00  0.00    +0.000 C 
ATOM      4  N   UNL     1       1.412   9.816  19.917  0.00  0.00    +0.000 N 
ATOM      5  C   UNL     1       1.760   8.585  19.451  0.00  0.00    +0.000 A 
ATOM      6  N   UNL     1       1.617   7.460  20.127  0.00  0.00    +0.000 NA
ATOM      7  C   UNL     1       2.043   6.366  19.380  0.00  0.00    +0.000 A 
ATOM      8  C   UNL     1       2.601   6.687  18.162  0.00  0.00    +0.000 A 
ATOM      9  S   UNL     1       2.511   8.367  17.900  0.00  0.00    +0.000 S 
ATOM     10  C   UNL     1       1.132  10.032  21.334  0.00  0.00    +0.000 C 
ATOM     11  C   UNL     1      -0.343  10.435  21.566  0.00  0.00    +0.000 C 
ENDROOT
BRANCH   1  14
ATOM     12  C   UNL     1      -3.725  13.717  21.461  0.00  0.00    +0.000 C 
ATOM     13  C   UNL     1      -2.375  13.148  21.861  0.00  0.00    +0.000 C 
ATOM     14  C   UNL     1      -2.196  11.937  20.944  0.00  0.00    +0.000 C 
ATOM     15  C   UNL     1      -2.997  12.340  19.682  0.00  0.00    +0.000 C 
ATOM     16  N   UNL     1      -3.717  13.571  19.998  0.00  0.00    +0.000 NA
ATOM     17  H   UNL     1      -4.652  13.608  19.602  0.00  0.00    +0.000 HD
BRANCH  12  19
ATOM     18  O   UNL     1      -3.000  16.040  21.650  0.00  0.00    +0.000 OA
ATOM     19  C   UNL     1      -3.866  15.194  21.892  0.00  0.00    +0.000 C 
ATOM     20  N   UNL     1      -5.019  15.544  22.580  0.00  0.00    +0.000 N 
ATOM     21  C   UNL     1      -5.166  16.900  23.093  0.00  0.00    +0.000 C 
ATOM     22  C   UNL     1      -6.610  17.168  23.507  0.00  0.00    +0.000 C 
ATOM     23  S   UNL     1      -7.579  15.783  22.871  0.00  0.00    +0.000 S 
ATOM     24  C   UNL     1      -6.154  14.689  22.830  0.00  0.00    +0.000 C 
ENDBRANCH  12  19
ENDBRANCH   1  14
BRANCH   7  25
ATOM     25  C   UNL     1       1.908   4.993  19.863  0.00  0.00    +0.000 A 
ATOM     26  C   UNL     1       1.411   3.974  19.032  0.00  0.00    +0.000 A 
ATOM     27  C   UNL     1       1.264   2.671  19.507  0.00  0.00    +0.000 A 
ATOM     28  C   UNL     1       1.609   2.365  20.820  0.00  0.00    +0.000 A 
ATOM     29  C   UNL     1       2.103   3.363  21.658  0.00  0.00    +0.000 A 
ATOM     30  C   UNL     1       2.251   4.671  21.183  0.00  0.00    +0.000 A 
ENDBRANCH   7  25
TORSDOF 3
ENDMDL
MODEL 5
REMARK VINA RESULT:      -7.1      5.034      9.103
REMARK  Name = 
REMARK  3 active torsions:
REMARK  status: ('A' for Active; 'I' for Inactive)
REMARK    1  A    between atoms: C_2  and  C_3
REMARK    2  A    between atoms: C_5  and  N_6
REMARK    3  A    between atoms: C_12  and  C_13
REMARK                            x       y       z     vdW  Elec       q    Type
REMARK                         _______ _______ _______ _____ _____    ______ ____
ROOT
ATOM      1  N   UNL     1       1.078  13.381  19.811  0.00  0.00    +0.000 NA
ATOM      2  C   UNL     1       1.323  12.564  21.022  0.00  0.00    +0.000 C 
ATOM      3  C   UNL     1       0.421  11.308  21.088  0.00  0.00    +0.000 C 
ATOM      4  N   UNL     1       0.576  10.499  19.878  0.00  0.00    +0.000 N 
ATOM      5  C   UNL     1       1.133   9.257  19.890  0.00  0.00    +0.000 A 
ATOM      6  N   UNL     1       1.805   8.727  18.885  0.00  0.00    +0.000 NA
ATOM      7  C   UNL     1       2.267   7.454  19.203  0.00  0.00    +0.000 A 
ATOM      8  C   UNL     1       1.855   6.986  20.432  0.00  0.00    +0.000 A 
ATOM      9  S   UNL     1       0.954   8.182  21.242  0.00  0.00    +0.000 S 
ATOM     10  C   UNL     1       0.414  11.238  18.629  0.00  0.00    +0.000 C 
ATOM     11  C   UNL     1       1.274  12.523  18.612  0.00  0.00    +0.000 C 
ENDROOT
BRANCH   1  14
ATOM     12  C   UNL     1       4.033  15.527  19.143  0.00  0.00    +0.000 C 
ATOM     13  C   UNL     1       3.415  14.301  19.792  0.00  0.00    +0.000 C 
ATOM     14  C   UNL     1       1.914  14.595  19.785  0.00  0.00    +0.000 C 
ATOM     15  C   UNL     1       1.747  15.502  18.543  0.00  0.00    +0.000 C 
ATOM     16  N   UNL     1       3.086  15.834  18.062  0.00  0.00    +0.000 NA
ATOM     17  H   UNL     1       3.174  16.791  17.732  0.00  0.00    +0.000 HD
BRANCH  12  19
ATOM     18  O   UNL     1       5.647  14.447  17.664  0.00  0.00    +0.000 OA
ATOM     19  C   UNL     1       5.448  15.226  18.600  0.00  0.00    +0.000 C 
ATOM     20  N   UNL     1       6.511  15.870  19.218  0.00  0.00    +0.000 N 
ATOM     21  C   UNL     1       7.875  15.556  18.812  0.00  0.00    +0.000 C 
ATOM     22  C   UNL     1       8.854  16.592  19.357  0.00  0.00    +0.000 C 
ATOM     23  S   UNL     1       7.845  17.945  19.999  0.00  0.00    +0.000 S 
ATOM     24  C   UNL     1       6.415  16.883  20.240  0.00  0.00    +0.000 C 
ENDBRANCH  12  19
ENDBRANCH   1  14
BRANCH   7  25
ATOM     25  C   UNL     1       3.118   6.684  18.297  0.00  0.00    +0.000 A 
ATOM     26  C   UNL     1       4.019   7.321  17.426  0.00  0.00    +0.000 A 
ATOM     27  C   UNL     1       4.811   6.581  16.548  0.00  0.00    +0.000 A 
ATOM     28  C   UNL     1       4.714   5.193  16.525  0.00  0.00    +0.000 A 
ATOM     29  C   UNL     1       3.825   4.545  17.381  0.00  0.00    +0.000 A 
ATOM     30  C   UNL     1       3.029   5.286  18.261  0.00  0.00    +0.000 A 
ENDBRANCH   7  25
TORSDOF 3
ENDMDL
MODEL 6
REMARK VINA RESULT:      -7.0      4.578      9.088
REMARK  Name = 
REMARK  3 active torsions:
REMARK  status: ('A' for Active; 'I' for Inactive)
REMARK    1  A    between atoms: C_2  and  C_3
REMARK    2  A    between atoms: C_5  and  N_6
REMARK    3  A    between atoms: C_12  and  C_13
REMARK                            x       y       z     vdW  Elec       q    Type
REMARK                         _______ _______ _______ _____ _____    ______ ____
ROOT
ATOM      1  N   UNL     1       0.747  12.333  20.096  0.00  0.00    +0.000 NA
ATOM      2  C   UNL     1       1.151  11.427  21.197  0.00  0.00    +0.000 C 
ATOM      3  C   UNL     1       0.444  10.052  21.129  0.00  0.00    +0.000 C 
ATOM      4  N   UNL     1       0.673   9.420  19.829  0.00  0.00    +0.000 N 
ATOM      5  C   UNL     1       1.404   8.281  19.683  0.00  0.00    +0.000 A 
ATOM      6  N   UNL     1       2.110   7.976  18.610  0.00  0.00    +0.000 NA
ATOM      7  C   UNL     1       2.763   6.758  18.766  0.00  0.00    +0.000 A 
ATOM      8  C   UNL     1       2.467   6.095  19.938  0.00  0.00    +0.000 A 
ATOM      9  S   UNL     1       1.431   7.043  20.901  0.00  0.00    +0.000 S 
ATOM     10  C   UNL     1       0.361  10.265  18.680  0.00  0.00    +0.000 C 
ATOM     11  C   UNL     1       1.024  11.657  18.801  0.00  0.00    +0.000 C 
ENDROOT
BRANCH   1  14
ATOM     12  C   UNL     1       3.100  15.097  19.316  0.00  0.00    +0.000 C 
ATOM     13  C   UNL     1       2.850  13.655  19.724  0.00  0.00    +0.000 C 
ATOM     14  C   UNL     1       1.397  13.652  20.201  0.00  0.00    +0.000 C 
ATOM     15  C   UNL     1       0.757  14.786  19.364  0.00  0.00    +0.000 C 
ATOM     16  N   UNL     1       1.839  15.472  18.662  0.00  0.00    +0.000 NA
ATOM     17  H   UNL     1       1.716  16.479  18.611  0.00  0.00    +0.000 HD
BRANCH  12  19
ATOM     18  O   UNL     1       4.169  15.301  17.131  0.00  0.00    +0.000 OA
ATOM     19  C   UNL     1       4.304  15.211  18.354  0.00  0.00    +0.000 C 
ATOM     20  N   UNL     1       5.570  15.202  18.924  0.00  0.00    +0.000 N 
ATOM     21  C   UNL     1       6.745  15.214  18.062  0.00  0.00    +0.000 C 
ATOM     22  C   UNL     1       8.001  15.540  18.865  0.00  0.00    +0.000 C 
ATOM     23  S   UNL     1       7.430  16.094  20.486  0.00  0.00    +0.000 S 
ATOM     24  C   UNL     1       5.869  15.217  20.335  0.00  0.00    +0.000 C 
ENDBRANCH  12  19
ENDBRANCH   1  14
BRANCH   7  25
ATOM     25  C   UNL     1       3.684   6.232  17.760  0.00  0.00    +0.000 A 
ATOM     26  C   UNL     1       4.471   7.091  16.972  0.00  0.00    +0.000 A 
ATOM     27  C   UNL     1       5.330   6.583  15.998  0.00  0.00    +0.000 A 
ATOM     28  C   UNL     1       5.417   5.209  15.794  0.00  0.00    +0.000 A 
ATOM     29  C   UNL     1       4.645   4.344  16.566  0.00  0.00    +0.000 A 
ATOM     30  C   UNL     1       3.781   4.852  17.543  0.00  0.00    +0.000 A 
ENDBRANCH   7  25
TORSDOF 3
ENDMDL
MODEL 7
REMARK VINA RESULT:      -6.9      5.274      8.529
REMARK  Name = 
REMARK  3 active torsions:
REMARK  status: ('A' for Active; 'I' for Inactive)
REMARK    1  A    between atoms: C_2  and  C_3
REMARK    2  A    between atoms: C_5  and  N_6
REMARK    3  A    between atoms: C_12  and  C_13
REMARK                            x       y       z     vdW  Elec       q    Type
REMARK                         _______ _______ _______ _____ _____    ______ ____
ROOT
ATOM      1  N   UNL     1       1.636  14.388  19.589  0.00  0.00    +0.000 NA
ATOM      2  C   UNL     1       1.613  13.858  20.972  0.00  0.00    +0.000 C 
ATOM      3  C   UNL     1       0.421  12.905  21.227  0.00  0.00    +0.000 C 
ATOM      4  N   UNL     1       0.420  11.811  20.254  0.00  0.00    +0.000 N 
ATOM      5  C   UNL     1       0.643  10.515  20.604  0.00  0.00    +0.000 A 
ATOM      6  N   UNL     1       1.203   9.613  19.820  0.00  0.00    +0.000 NA
ATOM      7  C   UNL     1       1.313   8.385  20.464  0.00  0.00    +0.000 A 
ATOM      8  C   UNL     1       0.742   8.342  21.717  0.00  0.00    +0.000 A 
ATOM      9  S   UNL     1       0.139   9.877  22.139  0.00  0.00    +0.000 S 
ATOM     10  C   UNL     1       0.505  12.239  18.860  0.00  0.00    +0.000 C 
ATOM     11  C   UNL     1       1.662  13.242  18.642  0.00  0.00    +0.000 C 
ENDROOT
BRANCH   1  14
ATOM     12  C   UNL     1       5.070  15.547  18.780  0.00  0.00    +0.000 C 
ATOM     13  C   UNL     1       4.128  14.705  19.623  0.00  0.00    +0.000 C 
ATOM     14  C   UNL     1       2.753  15.327  19.376  0.00  0.00    +0.000 C 
ATOM     15  C   UNL     1       2.887  15.901  17.945  0.00  0.00    +0.000 C 
ATOM     16  N   UNL     1       4.289  15.780  17.556  0.00  0.00    +0.000 NA
ATOM     17  H   UNL     1       4.634  16.574  17.024  0.00  0.00    +0.000 HD
BRANCH  12  19
ATOM     18  O   UNL     1       6.513  14.019  17.540  0.00  0.00    +0.000 OA
ATOM     19  C   UNL     1       6.390  14.798  18.489  0.00  0.00    +0.000 C 
ATOM     20  N   UNL     1       7.451  15.031  19.351  0.00  0.00    +0.000 N 
ATOM     21  C   UNL     1       8.691  14.285  19.182  0.00  0.00    +0.000 C 
ATOM     22  C   UNL     1       9.818  14.917  19.993  0.00  0.00    +0.000 C 
ATOM     23  S   UNL     1       9.196  16.516  20.554  0.00  0.00    +0.000 S 
ATOM     24  C   UNL     1       7.481  15.995  20.424  0.00  0.00    +0.000 C 
ENDBRANCH  12  19
ENDBRANCH   1  14
BRANCH   7  25
ATOM     25  C   UNL     1       1.981   7.239  19.848  0.00  0.00    +0.000 A 
ATOM     26  C   UNL     1       2.581   7.340  18.581  0.00  0.00    +0.000 A 
ATOM     27  C   UNL     1       3.196   6.235  17.990  0.00  0.00    +0.000 A 
ATOM     28  C   UNL     1       3.220   5.013  18.655  0.00  0.00    +0.000 A 
ATOM     29  C   UNL     1       2.629   4.896  19.911  0.00  0.00    +0.000 A 
ATOM     30  C   UNL     1       2.011   6.002  20.505  0.00  0.00    +0.000 A 
ENDBRANCH   7  25
TORSDOF 3
ENDMDL
MODEL 8
REMARK VINA RESULT:      -6.9      3.846     11.011
REMARK  Name = 
REMARK  3 active torsions:
REMARK  status: ('A' for Active; 'I' for Inactive)
REMARK    1  A    between atoms: C_2  and  C_3
REMARK    2  A    between atoms: C_5  and  N_6
REMARK    3  A    between atoms: C_12  and  C_13
REMARK                            x       y       z     vdW  Elec       q    Type
REMARK                         _______ _______ _______ _____ _____    ______ ____
ROOT
ATOM      1  N   UNL     1      -0.983  11.289  20.005  0.00  0.00    +0.000 NA
ATOM      2  C   UNL     1      -0.670  10.820  18.635  0.00  0.00    +0.000 C 
ATOM      3  C   UNL     1       0.850  10.663  18.390  0.00  0.00    +0.000 C 
ATOM      4  N   UNL     1       1.442   9.772  19.390  0.00  0.00    +0.000 N 
ATOM      5  C   UNL     1       1.961   8.555  19.074  0.00  0.00    +0.000 A 
ATOM      6  N   UNL     1       1.980   7.514  19.887  0.00  0.00    +0.000 NA
ATOM      7  C   UNL     1       2.557   6.407  19.274  0.00  0.00    +0.000 A 
ATOM      8  C   UNL     1       3.065   6.648  18.016  0.00  0.00    +0.000 A 
ATOM      9  S   UNL     1       2.738   8.252  17.550  0.00  0.00    +0.000 S 
ATOM     10  C   UNL     1       1.133  10.122  20.774  0.00  0.00    +0.000 C 
ATOM     11  C   UNL     1      -0.385  10.339  20.980  0.00  0.00    +0.000 C 
ENDROOT
BRANCH   1  14
ATOM     12  C   UNL     1      -4.172  13.043  20.742  0.00  0.00    +0.000 C 
ATOM     13  C   UNL     1      -2.772  12.624  21.158  0.00  0.00    +0.000 C 
ATOM     14  C   UNL     1      -2.432  11.475  20.207  0.00  0.00    +0.000 C 
ATOM     15  C   UNL     1      -3.249  11.823  18.940  0.00  0.00    +0.000 C 
ATOM     16  N   UNL     1      -4.117  12.949  19.277  0.00  0.00    +0.000 NA
ATOM     17  H   UNL     1      -5.042  12.888  18.859  0.00  0.00    +0.000 HD
BRANCH  12  19
ATOM     18  O   UNL     1      -4.050  15.479  20.649  0.00  0.00    +0.000 OA
ATOM     19  C   UNL     1      -4.496  14.478  21.216  0.00  0.00    +0.000 C 
ATOM     20  N   UNL     1      -5.317  14.605  22.327  0.00  0.00    +0.000 N 
ATOM     21  C   UNL     1      -5.584  15.928  22.876  0.00  0.00    +0.000 C 
ATOM     22  C   UNL     1      -6.751  15.882  23.857  0.00  0.00    +0.000 C 
ATOM     23  S   UNL     1      -7.507  14.255  23.661  0.00  0.00    +0.000 S 
ATOM     24  C   UNL     1      -5.994  13.532  23.013  0.00  0.00    +0.000 C 
ENDBRANCH  12  19
ENDBRANCH   1  14
BRANCH   7  25
ATOM     25  C   UNL     1       2.618   5.099  19.925  0.00  0.00    +0.000 A 
ATOM     26  C   UNL     1       3.591   4.150  19.565  0.00  0.00    +0.000 A 
ATOM     27  C   UNL     1       3.628   2.896  20.176  0.00  0.00    +0.000 A 
ATOM     28  C   UNL     1       2.694   2.569  21.153  0.00  0.00    +0.000 A 
ATOM     29  C   UNL     1       1.722   3.498  21.521  0.00  0.00    +0.000 A 
ATOM     30  C   UNL     1       1.682   4.756  20.910  0.00  0.00    +0.000 A 
ENDBRANCH   7  25
TORSDOF 3
ENDMDL
MODEL 9
REMARK VINA RESULT:      -6.8      6.591     11.148
REMARK  Name = 
REMARK  3 active torsions:
REMARK  status: ('A' for Active; 'I' for Inactive)
REMARK    1  A    between atoms: C_2  and  C_3
REMARK    2  A    between atoms: C_5  and  N_6
REMARK    3  A    between atoms: C_12  and  C_13
REMARK                            x       y       z     vdW  Elec       q    Type
REMARK                         _______ _______ _______ _____ _____    ______ ____
ROOT
ATOM      1  N   UNL     1       2.646  15.445  19.524  0.00  0.00    +0.000 NA
ATOM      2  C   UNL     1       3.494  16.451  18.843  0.00  0.00    +0.000 C 
ATOM      3  C   UNL     1       4.603  17.017  19.762  0.00  0.00    +0.000 C 
ATOM      4  N   UNL     1       5.422  15.934  20.308  0.00  0.00    +0.000 N 
ATOM      5  C   UNL     1       6.732  15.767  19.982  0.00  0.00    +0.000 A 
ATOM      6  N   UNL     1       7.353  14.602  19.943  0.00  0.00    +0.000 NA
ATOM      7  C   UNL     1       8.681  14.751  19.557  0.00  0.00    +0.000 A 
ATOM      8  C   UNL     1       9.087  16.058  19.395  0.00  0.00    +0.000 A 
ATOM      9  S   UNL     1       7.774  17.114  19.637  0.00  0.00    +0.000 S 
ATOM     10  C   UNL     1       4.663  14.861  20.945  0.00  0.00    +0.000 C 
ATOM     11  C   UNL     1       3.519  14.355  20.034  0.00  0.00    +0.000 C 
ENDROOT
BRANCH   1  14
ATOM     12  C   UNL     1      -0.112  13.259  18.337  0.00  0.00    +0.000 C 
ATOM     13  C   UNL     1       1.335  13.441  18.764  0.00  0.00    +0.000 C 
ATOM     14  C   UNL     1       1.569  14.948  18.648  0.00  0.00    +0.000 C 
ATOM     15  C   UNL     1       0.161  15.537  18.911  0.00  0.00    +0.000 C 
ATOM     16  N   UNL     1      -0.778  14.419  18.948  0.00  0.00    +0.000 NA
ATOM     17  H   UNL     1      -1.672  14.624  18.510  0.00  0.00    +0.000 HD
BRANCH  12  19
ATOM     18  O   UNL     1      -0.372  11.444  19.948  0.00  0.00    +0.000 OA
ATOM     19  C   UNL     1      -0.690  11.923  18.856  0.00  0.00    +0.000 C 
ATOM     20  N   UNL     1      -1.592  11.264  18.033  0.00  0.00    +0.000 N 
ATOM     21  C   UNL     1      -2.100   9.956  18.427  0.00  0.00    +0.000 C 
ATOM     22  C   UNL     1      -3.307   9.567  17.578  0.00  0.00    +0.000 C 
ATOM     23  S   UNL     1      -3.781  11.053  16.669  0.00  0.00    +0.000 S 
ATOM     24  C   UNL     1      -2.134  11.762  16.792  0.00  0.00    +0.000 C 
ENDBRANCH  12  19
ENDBRANCH   1  14
BRANCH   7  25
ATOM     25  C   UNL     1       9.565  13.606  19.348  0.00  0.00    +0.000 A 
ATOM     26  C   UNL     1      10.673  13.378  20.183  0.00  0.00    +0.000 A 
ATOM     27  C   UNL     1      11.525  12.295  19.963  0.00  0.00    +0.000 A 
ATOM     28  C   UNL     1      11.285  11.424  18.905  0.00  0.00    +0.000 A 
ATOM     29  C   UNL     1      10.192  11.635  18.067  0.00  0.00    +0.000 A 
ATOM     30  C   UNL     1       9.336  12.721  18.286  0.00  0.00    +0.000 A 
ENDBRANCH   7  25
TORSDOF 3
ENDMDL
