MODEL 1
REMARK VINA RESULT:      -7.3      0.000      0.000
REMARK  Name = 
REMARK  3 active torsions:
REMARK  status: ('A' for Active; 'I' for Inactive)
REMARK    1  A    between atoms: C_1  and  O_2
REMARK    2  A    between atoms: O_2  and  C_3
REMARK    3  A    between atoms: C_5  and  C_6
REMARK                            x       y       z     vdW  Elec       q    Type
REMARK                         _______ _______ _______ _____ _____    ______ ____
ROOT
ATOM      1  C   UNL     1       5.865   4.190  16.501  0.00  0.00    +0.000 A 
ATOM      2  C   UNL     1       6.912   4.891  17.121  0.00  0.00    +0.000 A 
ATOM      3  C   UNL     1       6.816   5.428  18.434  0.00  0.00    +0.000 A 
ATOM      4  C   UNL     1       8.016   6.122  19.032  0.00  0.00    +0.000 C 
ATOM      5  C   UNL     1       5.643   5.317  19.207  0.00  0.00    +0.000 A 
ATOM      6  C   UNL     1       4.561   4.657  18.637  0.00  0.00    +0.000 A 
ATOM      7  C   UNL     1       4.701   4.103  17.278  0.00  0.00    +0.000 A 
ATOM      8  C   UNL     1       3.411   3.493  17.055  0.00  0.00    +0.000 A 
ATOM      9  N   UNL     1       2.589   3.648  18.190  0.00  0.00    +0.000 N 
ATOM     10  N   UNL     1       3.263   4.349  19.131  0.00  0.00    +0.000 N 
ATOM     11  C   UNL     1       2.732   4.633  20.468  0.00  0.00    +0.000 C 
ATOM     12  C   UNL     1       1.252   4.297  20.597  0.00  0.00    +0.000 C 
ATOM     13  C   UNL     1       0.915   3.002  19.866  0.00  0.00    +0.000 C 
ATOM     14  C   UNL     1       1.226   3.153  18.383  0.00  0.00    +0.000 C 
ENDROOT
BRANCH   1  16
ATOM     15  C   UNL     1       6.611   4.369  14.280  0.00  0.00    +0.000 C 
ATOM     16  O   UNL     1       5.895   3.623  15.265  0.00  0.00    +0.000 OA
ENDBRANCH   1  16
TORSDOF 1
ENDMDL
MODEL 2
REMARK VINA RESULT:      -7.3      1.326      3.006
REMARK  Name = 
REMARK  3 active torsions:
REMARK  status: ('A' for Active; 'I' for Inactive)
REMARK    1  A    between atoms: C_1  and  O_2
REMARK    2  A    between atoms: O_2  and  C_3
REMARK    3  A    between atoms: C_5  and  C_6
REMARK                            x       y       z     vdW  Elec       q    Type
REMARK                         _______ _______ _______ _____ _____    ______ ____
ROOT
ATOM      1  C   UNL     1       6.888   4.671  17.803  0.00  0.00    +0.000 A 
ATOM      2  C   UNL     1       7.064   4.538  16.416  0.00  0.00    +0.000 A 
ATOM      3  C   UNL     1       6.021   4.140  15.536  0.00  0.00    +0.000 A 
ATOM      4  C   UNL     1       6.297   4.075  14.053  0.00  0.00    +0.000 C 
ATOM      5  C   UNL     1       4.728   3.823  15.998  0.00  0.00    +0.000 A 
ATOM      6  C   UNL     1       4.498   3.909  17.366  0.00  0.00    +0.000 A 
ATOM      7  C   UNL     1       5.600   4.336  18.246  0.00  0.00    +0.000 A 
ATOM      8  C   UNL     1       4.981   4.324  19.551  0.00  0.00    +0.000 A 
ATOM      9  N   UNL     1       3.625   3.950  19.450  0.00  0.00    +0.000 N 
ATOM     10  N   UNL     1       3.335   3.690  18.154  0.00  0.00    +0.000 N 
ATOM     11  C   UNL     1       1.993   3.340  17.677  0.00  0.00    +0.000 C 
ATOM     12  C   UNL     1       1.025   3.035  18.814  0.00  0.00    +0.000 C 
ATOM     13  C   UNL     1       1.229   3.992  19.982  0.00  0.00    +0.000 C 
ATOM     14  C   UNL     1       2.643   3.842  20.528  0.00  0.00    +0.000 C 
ENDROOT
BRANCH   1  16
ATOM     15  C   UNL     1       7.992   6.492  18.795  0.00  0.00    +0.000 C 
ATOM     16  O   UNL     1       7.827   5.077  18.700  0.00  0.00    +0.000 OA
ENDBRANCH   1  16
TORSDOF 1
ENDMDL
MODEL 3
REMARK VINA RESULT:      -6.7      2.749      5.634
REMARK  Name = 
REMARK  3 active torsions:
REMARK  status: ('A' for Active; 'I' for Inactive)
REMARK    1  A    between atoms: C_1  and  O_2
REMARK    2  A    between atoms: O_2  and  C_3
REMARK    3  A    between atoms: C_5  and  C_6
REMARK                            x       y       z     vdW  Elec       q    Type
REMARK                         _______ _______ _______ _____ _____    ______ ____
ROOT
ATOM      1  C   UNL     1       2.195   6.590  19.914  0.00  0.00    +0.000 A 
ATOM      2  C   UNL     1       1.707   5.507  20.664  0.00  0.00    +0.000 A 
ATOM      3  C   UNL     1       2.024   4.153  20.370  0.00  0.00    +0.000 A 
ATOM      4  C   UNL     1       1.490   3.064  21.267  0.00  0.00    +0.000 C 
ATOM      5  C   UNL     1       2.840   3.793  19.279  0.00  0.00    +0.000 A 
ATOM      6  C   UNL     1       3.332   4.818  18.481  0.00  0.00    +0.000 A 
ATOM      7  C   UNL     1       2.992   6.211  18.823  0.00  0.00    +0.000 A 
ATOM      8  C   UNL     1       3.688   6.962  17.805  0.00  0.00    +0.000 A 
ATOM      9  N   UNL     1       4.401   6.094  16.952  0.00  0.00    +0.000 N 
ATOM     10  N   UNL     1       4.184   4.816  17.341  0.00  0.00    +0.000 N 
ATOM     11  C   UNL     1       4.828   3.657  16.718  0.00  0.00    +0.000 C 
ATOM     12  C   UNL     1       5.549   4.009  15.423  0.00  0.00    +0.000 C 
ATOM     13  C   UNL     1       6.265   5.350  15.540  0.00  0.00    +0.000 C 
ATOM     14  C   UNL     1       5.252   6.452  15.818  0.00  0.00    +0.000 C 
ENDROOT
BRANCH   1  16
ATOM     15  C   UNL     1       1.062   8.171  21.231  0.00  0.00    +0.000 C 
ATOM     16  O   UNL     1       1.961   7.908  20.153  0.00  0.00    +0.000 OA
ENDBRANCH   1  16
TORSDOF 1
ENDMDL
MODEL 4
REMARK VINA RESULT:      -6.7      2.517      3.278
REMARK  Name = 
REMARK  3 active torsions:
REMARK  status: ('A' for Active; 'I' for Inactive)
REMARK    1  A    between atoms: C_1  and  O_2
REMARK    2  A    between atoms: O_2  and  C_3
REMARK    3  A    between atoms: C_5  and  C_6
REMARK                            x       y       z     vdW  Elec       q    Type
REMARK                         _______ _______ _______ _____ _____    ______ ____
ROOT
ATOM      1  C   UNL     1       4.680   6.543  17.398  0.00  0.00    +0.000 A 
ATOM      2  C   UNL     1       3.945   7.731  17.263  0.00  0.00    +0.000 A 
ATOM      3  C   UNL     1       2.722   7.971  17.946  0.00  0.00    +0.000 A 
ATOM      4  C   UNL     1       2.033   9.302  17.773  0.00  0.00    +0.000 C 
ATOM      5  C   UNL     1       2.140   7.012  18.800  0.00  0.00    +0.000 A 
ATOM      6  C   UNL     1       2.806   5.803  18.956  0.00  0.00    +0.000 A 
ATOM      7  C   UNL     1       4.078   5.596  18.239  0.00  0.00    +0.000 A 
ATOM      8  C   UNL     1       4.462   4.269  18.662  0.00  0.00    +0.000 A 
ATOM      9  N   UNL     1       3.516   3.747  19.570  0.00  0.00    +0.000 N 
ATOM     10  N   UNL     1       2.523   4.651  19.739  0.00  0.00    +0.000 N 
ATOM     11  C   UNL     1       1.407   4.464  20.672  0.00  0.00    +0.000 C 
ATOM     12  C   UNL     1       1.332   3.046  21.225  0.00  0.00    +0.000 C 
ATOM     13  C   UNL     1       2.723   2.500  21.529  0.00  0.00    +0.000 C 
ATOM     14  C   UNL     1       3.548   2.453  20.250  0.00  0.00    +0.000 C 
ENDROOT
BRANCH   1  16
ATOM     15  C   UNL     1       7.011   6.839  17.434  0.00  0.00    +0.000 C 
ATOM     16  O   UNL     1       5.869   6.257  16.803  0.00  0.00    +0.000 OA
ENDBRANCH   1  16
TORSDOF 1
ENDMDL
MODEL 5
REMARK VINA RESULT:      -6.5      2.571      5.242
REMARK  Name = 
REMARK  3 active torsions:
REMARK  status: ('A' for Active; 'I' for Inactive)
REMARK    1  A    between atoms: C_1  and  O_2
REMARK    2  A    between atoms: O_2  and  C_3
REMARK    3  A    between atoms: C_5  and  C_6
REMARK                            x       y       z     vdW  Elec       q    Type
REMARK                         _______ _______ _______ _____ _____    ______ ____
ROOT
ATOM      1  C   UNL     1       2.314   4.000  19.926  0.00  0.00    +0.000 A 
ATOM      2  C   UNL     1       1.813   5.172  20.514  0.00  0.00    +0.000 A 
ATOM      3  C   UNL     1       2.122   6.475  20.036  0.00  0.00    +0.000 A 
ATOM      4  C   UNL     1       1.493   7.671  20.707  0.00  0.00    +0.000 C 
ATOM      5  C   UNL     1       2.982   6.687  18.940  0.00  0.00    +0.000 A 
ATOM      6  C   UNL     1       3.533   5.566  18.331  0.00  0.00    +0.000 A 
ATOM      7  C   UNL     1       3.180   4.231  18.847  0.00  0.00    +0.000 A 
ATOM      8  C   UNL     1       3.910   3.352  17.964  0.00  0.00    +0.000 A 
ATOM      9  N   UNL     1       4.611   4.097  16.994  0.00  0.00    +0.000 N 
ATOM     10  N   UNL     1       4.400   5.416  17.213  0.00  0.00    +0.000 N 
ATOM     11  C   UNL     1       4.922   6.477  16.347  0.00  0.00    +0.000 C 
ATOM     12  C   UNL     1       5.945   5.964  15.339  0.00  0.00    +0.000 C 
ATOM     13  C   UNL     1       5.531   4.610  14.776  0.00  0.00    +0.000 C 
ATOM     14  C   UNL     1       5.443   3.589  15.904  0.00  0.00    +0.000 C 
ENDROOT
BRANCH   1  16
ATOM     15  C   UNL     1       1.579   2.587  21.653  0.00  0.00    +0.000 C 
ATOM     16  O   UNL     1       2.038   2.724  20.308  0.00  0.00    +0.000 OA
ENDBRANCH   1  16
TORSDOF 1
ENDMDL
MODEL 6
REMARK VINA RESULT:      -6.4      2.548      3.259
REMARK  Name = 
REMARK  3 active torsions:
REMARK  status: ('A' for Active; 'I' for Inactive)
REMARK    1  A    between atoms: C_1  and  O_2
REMARK    2  A    between atoms: O_2  and  C_3
REMARK    3  A    between atoms: C_5  and  C_6
REMARK                            x       y       z     vdW  Elec       q    Type
REMARK                         _______ _______ _______ _____ _____    ______ ____
ROOT
ATOM      1  C   UNL     1       4.837   6.731  16.938  0.00  0.00    +0.000 A 
ATOM      2  C   UNL     1       4.108   7.910  17.163  0.00  0.00    +0.000 A 
ATOM      3  C   UNL     1       2.817   7.924  17.758  0.00  0.00    +0.000 A 
ATOM      4  C   UNL     1       2.136   9.248  18.003  0.00  0.00    +0.000 C 
ATOM      5  C   UNL     1       2.158   6.740  18.149  0.00  0.00    +0.000 A 
ATOM      6  C   UNL     1       2.817   5.538  17.929  0.00  0.00    +0.000 A 
ATOM      7  C   UNL     1       4.159   5.563  17.319  0.00  0.00    +0.000 A 
ATOM      8  C   UNL     1       4.510   4.163  17.276  0.00  0.00    +0.000 A 
ATOM      9  N   UNL     1       3.480   3.379  17.836  0.00  0.00    +0.000 N 
ATOM     10  N   UNL     1       2.465   4.189  18.215  0.00  0.00    +0.000 N 
ATOM     11  C   UNL     1       1.260   3.714  18.901  0.00  0.00    +0.000 C 
ATOM     12  C   UNL     1       1.142   2.195  18.899  0.00  0.00    +0.000 C 
ATOM     13  C   UNL     1       2.498   1.538  19.128  0.00  0.00    +0.000 C 
ATOM     14  C   UNL     1       3.454   1.927  18.008  0.00  0.00    +0.000 C 
ENDROOT
BRANCH   1  16
ATOM     15  C   UNL     1       7.149   6.873  17.328  0.00  0.00    +0.000 C 
ATOM     16  O   UNL     1       6.085   6.643  16.404  0.00  0.00    +0.000 OA
ENDBRANCH   1  16
TORSDOF 1
ENDMDL
MODEL 7
REMARK VINA RESULT:      -6.2      2.951      3.995
REMARK  Name = 
REMARK  3 active torsions:
REMARK  status: ('A' for Active; 'I' for Inactive)
REMARK    1  A    between atoms: C_1  and  O_2
REMARK    2  A    between atoms: O_2  and  C_3
REMARK    3  A    between atoms: C_5  and  C_6
REMARK                            x       y       z     vdW  Elec       q    Type
REMARK                         _______ _______ _______ _____ _____    ______ ____
ROOT
ATOM      1  C   UNL     1       4.878   4.225  18.637  0.00  0.00    +0.000 A 
ATOM      2  C   UNL     1       5.558   4.258  17.409  0.00  0.00    +0.000 A 
ATOM      3  C   UNL     1       5.391   5.299  16.456  0.00  0.00    +0.000 A 
ATOM      4  C   UNL     1       6.206   5.269  15.186  0.00  0.00    +0.000 C 
ATOM      5  C   UNL     1       4.502   6.372  16.665  0.00  0.00    +0.000 A 
ATOM      6  C   UNL     1       3.778   6.383  17.851  0.00  0.00    +0.000 A 
ATOM      7  C   UNL     1       3.987   5.293  18.821  0.00  0.00    +0.000 A 
ATOM      8  C   UNL     1       3.100   5.660  19.900  0.00  0.00    +0.000 A 
ATOM      9  N   UNL     1       2.444   6.874  19.608  0.00  0.00    +0.000 N 
ATOM     10  N   UNL     1       2.835   7.304  18.386  0.00  0.00    +0.000 N 
ATOM     11  C   UNL     1       2.403   8.574  17.795  0.00  0.00    +0.000 C 
ATOM     12  C   UNL     1       1.266   9.227  18.572  0.00  0.00    +0.000 C 
ATOM     13  C   UNL     1       1.469   9.078  20.075  0.00  0.00    +0.000 C 
ATOM     14  C   UNL     1       1.491   7.601  20.446  0.00  0.00    +0.000 C 
ENDROOT
BRANCH   1  16
ATOM     15  C   UNL     1       4.108   2.180  19.500  0.00  0.00    +0.000 C 
ATOM     16  O   UNL     1       5.010   3.282  19.608  0.00  0.00    +0.000 OA
ENDBRANCH   1  16
TORSDOF 1
ENDMDL
MODEL 8
REMARK VINA RESULT:      -6.1      2.977      5.404
REMARK  Name = 
REMARK  3 active torsions:
REMARK  status: ('A' for Active; 'I' for Inactive)
REMARK    1  A    between atoms: C_1  and  O_2
REMARK    2  A    between atoms: O_2  and  C_3
REMARK    3  A    between atoms: C_5  and  C_6
REMARK                            x       y       z     vdW  Elec       q    Type
REMARK                         _______ _______ _______ _____ _____    ______ ____
ROOT
ATOM      1  C   UNL     1       2.527   5.864  19.868  0.00  0.00    +0.000 A 
ATOM      2  C   UNL     1       1.957   7.143  19.776  0.00  0.00    +0.000 A 
ATOM      3  C   UNL     1       2.229   8.041  18.707  0.00  0.00    +0.000 A 
ATOM      4  C   UNL     1       1.527   9.376  18.673  0.00  0.00    +0.000 C 
ATOM      5  C   UNL     1       3.120   7.717  17.664  0.00  0.00    +0.000 A 
ATOM      6  C   UNL     1       3.739   6.474  17.713  0.00  0.00    +0.000 A 
ATOM      7  C   UNL     1       3.422   5.565  18.830  0.00  0.00    +0.000 A 
ATOM      8  C   UNL     1       4.220   4.401  18.523  0.00  0.00    +0.000 A 
ATOM      9  N   UNL     1       4.926   4.591  17.316  0.00  0.00    +0.000 N 
ATOM     10  N   UNL     1       4.653   5.827  16.835  0.00  0.00    +0.000 N 
ATOM     11  C   UNL     1       5.163   6.331  15.557  0.00  0.00    +0.000 C 
ATOM     12  C   UNL     1       6.242   5.437  14.960  0.00  0.00    +0.000 C 
ATOM     13  C   UNL     1       5.906   3.963  15.156  0.00  0.00    +0.000 C 
ATOM     14  C   UNL     1       5.818   3.649  16.643  0.00  0.00    +0.000 C 
ENDROOT
BRANCH   1  16
ATOM     15  C   UNL     1       1.163   4.098  20.602  0.00  0.00    +0.000 C 
ATOM     16  O   UNL     1       2.290   4.942  20.840  0.00  0.00    +0.000 OA
ENDBRANCH   1  16
TORSDOF 1
ENDMDL
MODEL 9
REMARK VINA RESULT:      -6.1      3.213      4.580
REMARK  Name = 
REMARK  3 active torsions:
REMARK  status: ('A' for Active; 'I' for Inactive)
REMARK    1  A    between atoms: C_1  and  O_2
REMARK    2  A    between atoms: O_2  and  C_3
REMARK    3  A    between atoms: C_5  and  C_6
REMARK                            x       y       z     vdW  Elec       q    Type
REMARK                         _______ _______ _______ _____ _____    ______ ____
ROOT
ATOM      1  C   UNL     1       3.194   4.377  18.314  0.00  0.00    +0.000 A 
ATOM      2  C   UNL     1       3.050   3.428  19.339  0.00  0.00    +0.000 A 
ATOM      3  C   UNL     1       2.478   3.732  20.605  0.00  0.00    +0.000 A 
ATOM      4  C   UNL     1       2.321   2.630  21.623  0.00  0.00    +0.000 C 
ATOM      5  C   UNL     1       2.033   5.028  20.935  0.00  0.00    +0.000 A 
ATOM      6  C   UNL     1       2.174   6.019  19.971  0.00  0.00    +0.000 A 
ATOM      7  C   UNL     1       2.760   5.663  18.666  0.00  0.00    +0.000 A 
ATOM      8  C   UNL     1       2.718   6.918  17.952  0.00  0.00    +0.000 A 
ATOM      9  N   UNL     1       2.133   7.921  18.751  0.00  0.00    +0.000 N 
ATOM     10  N   UNL     1       1.817   7.396  19.958  0.00  0.00    +0.000 N 
ATOM     11  C   UNL     1       1.127   8.144  21.013  0.00  0.00    +0.000 C 
ATOM     12  C   UNL     1       1.045   9.637  20.720  0.00  0.00    +0.000 C 
ATOM     13  C   UNL     1       0.756   9.892  19.245  0.00  0.00    +0.000 C 
ATOM     14  C   UNL     1       1.879   9.317  18.394  0.00  0.00    +0.000 C 
ENDROOT
BRANCH   1  16
ATOM     15  C   UNL     1       5.125   4.207  16.987  0.00  0.00    +0.000 C 
ATOM     16  O   UNL     1       3.701   4.152  17.072  0.00  0.00    +0.000 OA
ENDBRANCH   1  16
TORSDOF 1
ENDMDL
