MODEL 1
REMARK VINA RESULT:      -5.0      0.000      0.000
REMARK  Name = 
REMARK  3 active torsions:
REMARK  status: ('A' for Active; 'I' for Inactive)
REMARK    1  A    between atoms: C_1  and  C_2
REMARK    2  A    between atoms: C_2  and  C_3
REMARK    3  A    between atoms: C_6  and  C_7
REMARK                            x       y       z     vdW  Elec       q    Type
REMARK                         _______ _______ _______ _____ _____    ______ ____
ROOT
ATOM      1  C   UNL     1       2.583   4.231  17.857  0.00  0.00    +0.000 A 
ATOM      2  C   UNL     1       3.516   3.376  17.256  0.00  0.00    +0.000 A 
ATOM      3  C   UNL     1       4.740   3.869  16.801  0.00  0.00    +0.000 A 
ATOM      4  C   UNL     1       5.053   5.223  16.959  0.00  0.00    +0.000 A 
ATOM      5  C   UNL     1       4.138   6.077  17.580  0.00  0.00    +0.000 A 
ATOM      6  C   UNL     1       2.910   5.583  18.029  0.00  0.00    +0.000 A 
ENDROOT
BRANCH   1   8
ATOM      7  C   UNL     1       1.078   3.795  19.827  0.00  0.00    +0.000 C 
ATOM      8  C   UNL     1       1.249   3.700  18.320  0.00  0.00    +0.000 C 
ENDBRANCH   1   8
BRANCH   4   9
ATOM      9  C   UNL     1       6.307   5.729  16.484  0.00  0.00    +0.000 C 
ATOM     10  N   UNL     1       7.321   6.142  16.104  0.00  0.00    +0.000 NA
ENDBRANCH   4   9
TORSDOF 2
ENDMDL
MODEL 2
REMARK VINA RESULT:      -5.0      1.026      1.253
REMARK  Name = 
REMARK  3 active torsions:
REMARK  status: ('A' for Active; 'I' for Inactive)
REMARK    1  A    between atoms: C_1  and  C_2
REMARK    2  A    between atoms: C_2  and  C_3
REMARK    3  A    between atoms: C_6  and  C_7
REMARK                            x       y       z     vdW  Elec       q    Type
REMARK                         _______ _______ _______ _____ _____    ______ ____
ROOT
ATOM      1  C   UNL     1       1.991   3.825  18.707  0.00  0.00    +0.000 A 
ATOM      2  C   UNL     1       2.825   3.144  17.810  0.00  0.00    +0.000 A 
ATOM      3  C   UNL     1       3.790   3.834  17.074  0.00  0.00    +0.000 A 
ATOM      4  C   UNL     1       3.943   5.214  17.240  0.00  0.00    +0.000 A 
ATOM      5  C   UNL     1       3.131   5.897  18.150  0.00  0.00    +0.000 A 
ATOM      6  C   UNL     1       2.162   5.205  18.881  0.00  0.00    +0.000 A 
ENDROOT
BRANCH   1   8
ATOM      7  C   UNL     1       1.271   2.949  20.954  0.00  0.00    +0.000 C 
ATOM      8  C   UNL     1       0.931   3.080  19.479  0.00  0.00    +0.000 C 
ENDBRANCH   1   8
BRANCH   4   9
ATOM      9  C   UNL     1       4.927   5.923  16.477  0.00  0.00    +0.000 C 
ATOM     10  N   UNL     1       5.722   6.494  15.855  0.00  0.00    +0.000 NA
ENDBRANCH   4   9
TORSDOF 2
ENDMDL
MODEL 3
REMARK VINA RESULT:      -4.9      1.000      1.218
REMARK  Name = 
REMARK  3 active torsions:
REMARK  status: ('A' for Active; 'I' for Inactive)
REMARK    1  A    between atoms: C_1  and  C_2
REMARK    2  A    between atoms: C_2  and  C_3
REMARK    3  A    between atoms: C_6  and  C_7
REMARK                            x       y       z     vdW  Elec       q    Type
REMARK                         _______ _______ _______ _____ _____    ______ ____
ROOT
ATOM      1  C   UNL     1       3.246   4.903  17.710  0.00  0.00    +0.000 A 
ATOM      2  C   UNL     1       3.869   3.756  17.201  0.00  0.00    +0.000 A 
ATOM      3  C   UNL     1       4.994   3.864  16.381  0.00  0.00    +0.000 A 
ATOM      4  C   UNL     1       5.519   5.123  16.075  0.00  0.00    +0.000 A 
ATOM      5  C   UNL     1       4.918   6.271  16.598  0.00  0.00    +0.000 A 
ATOM      6  C   UNL     1       3.789   6.161  17.414  0.00  0.00    +0.000 A 
ENDROOT
BRANCH   1   8
ATOM      7  C   UNL     1       1.268   3.479  18.341  0.00  0.00    +0.000 C 
ATOM      8  C   UNL     1       2.013   4.783  18.572  0.00  0.00    +0.000 C 
ENDBRANCH   1   8
BRANCH   4   9
ATOM      9  C   UNL     1       6.669   5.232  15.226  0.00  0.00    +0.000 C 
ATOM     10  N   UNL     1       7.601   5.323  14.543  0.00  0.00    +0.000 NA
ENDBRANCH   4   9
TORSDOF 2
ENDMDL
MODEL 4
REMARK VINA RESULT:      -4.9      0.435      1.588
REMARK  Name = 
REMARK  3 active torsions:
REMARK  status: ('A' for Active; 'I' for Inactive)
REMARK    1  A    between atoms: C_1  and  C_2
REMARK    2  A    between atoms: C_2  and  C_3
REMARK    3  A    between atoms: C_6  and  C_7
REMARK                            x       y       z     vdW  Elec       q    Type
REMARK                         _______ _______ _______ _____ _____    ______ ____
ROOT
ATOM      1  C   UNL     1       2.588   4.385  17.759  0.00  0.00    +0.000 A 
ATOM      2  C   UNL     1       2.883   5.734  17.997  0.00  0.00    +0.000 A 
ATOM      3  C   UNL     1       4.126   6.263  17.642  0.00  0.00    +0.000 A 
ATOM      4  C   UNL     1       5.083   5.450  17.026  0.00  0.00    +0.000 A 
ATOM      5  C   UNL     1       4.788   4.109  16.762  0.00  0.00    +0.000 A 
ATOM      6  C   UNL     1       3.546   3.581  17.125  0.00  0.00    +0.000 A 
ENDROOT
BRANCH   1   8
ATOM      7  C   UNL     1       1.381   2.819  19.316  0.00  0.00    +0.000 C 
ATOM      8  C   UNL     1       1.256   3.810  18.171  0.00  0.00    +0.000 C 
ENDBRANCH   1   8
BRANCH   4   9
ATOM      9  C   UNL     1       6.360   5.993  16.669  0.00  0.00    +0.000 C 
ATOM     10  N   UNL     1       7.394   6.434  16.386  0.00  0.00    +0.000 NA
ENDBRANCH   4   9
TORSDOF 2
ENDMDL
MODEL 5
REMARK VINA RESULT:      -4.9      1.386      2.373
REMARK  Name = 
REMARK  3 active torsions:
REMARK  status: ('A' for Active; 'I' for Inactive)
REMARK    1  A    between atoms: C_1  and  C_2
REMARK    2  A    between atoms: C_2  and  C_3
REMARK    3  A    between atoms: C_6  and  C_7
REMARK                            x       y       z     vdW  Elec       q    Type
REMARK                         _______ _______ _______ _____ _____    ______ ____
ROOT
ATOM      1  C   UNL     1       1.946   3.594  19.133  0.00  0.00    +0.000 A 
ATOM      2  C   UNL     1       2.246   4.846  18.579  0.00  0.00    +0.000 A 
ATOM      3  C   UNL     1       3.264   4.978  17.633  0.00  0.00    +0.000 A 
ATOM      4  C   UNL     1       3.984   3.854  17.216  0.00  0.00    +0.000 A 
ATOM      5  C   UNL     1       3.675   2.598  17.746  0.00  0.00    +0.000 A 
ATOM      6  C   UNL     1       2.660   2.469  18.697  0.00  0.00    +0.000 A 
ENDROOT
BRANCH   1   8
ATOM      7  C   UNL     1       1.369   2.806  21.452  0.00  0.00    +0.000 C 
ATOM      8  C   UNL     1       0.865   3.459  20.176  0.00  0.00    +0.000 C 
ENDBRANCH   1   8
BRANCH   4   9
ATOM      9  C   UNL     1       5.034   3.994  16.251  0.00  0.00    +0.000 C 
ATOM     10  N   UNL     1       5.887   4.109  15.475  0.00  0.00    +0.000 NA
ENDBRANCH   4   9
TORSDOF 2
ENDMDL
MODEL 6
REMARK VINA RESULT:      -4.9      1.147      2.120
REMARK  Name = 
REMARK  3 active torsions:
REMARK  status: ('A' for Active; 'I' for Inactive)
REMARK    1  A    between atoms: C_1  and  C_2
REMARK    2  A    between atoms: C_2  and  C_3
REMARK    3  A    between atoms: C_6  and  C_7
REMARK                            x       y       z     vdW  Elec       q    Type
REMARK                         _______ _______ _______ _____ _____    ______ ____
ROOT
ATOM      1  C   UNL     1       1.894   3.894  18.990  0.00  0.00    +0.000 A 
ATOM      2  C   UNL     1       2.178   5.233  19.289  0.00  0.00    +0.000 A 
ATOM      3  C   UNL     1       3.123   5.942  18.545  0.00  0.00    +0.000 A 
ATOM      4  C   UNL     1       3.783   5.323  17.479  0.00  0.00    +0.000 A 
ATOM      5  C   UNL     1       3.489   3.994  17.159  0.00  0.00    +0.000 A 
ATOM      6  C   UNL     1       2.547   3.285  17.909  0.00  0.00    +0.000 A 
ENDROOT
BRANCH   1   8
ATOM      7  C   UNL     1       1.366   2.905  21.243  0.00  0.00    +0.000 C 
ATOM      8  C   UNL     1       0.894   3.123  19.815  0.00  0.00    +0.000 C 
ENDBRANCH   1   8
BRANCH   4   9
ATOM      9  C   UNL     1       4.759   6.049  16.722  0.00  0.00    +0.000 C 
ATOM     10  N   UNL     1       5.553   6.635  16.113  0.00  0.00    +0.000 NA
ENDBRANCH   4   9
TORSDOF 2
ENDMDL
MODEL 7
REMARK VINA RESULT:      -4.9      1.598      2.295
REMARK  Name = 
REMARK  3 active torsions:
REMARK  status: ('A' for Active; 'I' for Inactive)
REMARK    1  A    between atoms: C_1  and  C_2
REMARK    2  A    between atoms: C_2  and  C_3
REMARK    3  A    between atoms: C_6  and  C_7
REMARK                            x       y       z     vdW  Elec       q    Type
REMARK                         _______ _______ _______ _____ _____    ______ ____
ROOT
ATOM      1  C   UNL     1       2.097   3.850  19.430  0.00  0.00    +0.000 A 
ATOM      2  C   UNL     1       3.395   4.302  19.702  0.00  0.00    +0.000 A 
ATOM      3  C   UNL     1       4.364   4.326  18.696  0.00  0.00    +0.000 A 
ATOM      4  C   UNL     1       4.039   3.915  17.400  0.00  0.00    +0.000 A 
ATOM      5  C   UNL     1       2.739   3.486  17.114  0.00  0.00    +0.000 A 
ATOM      6  C   UNL     1       1.774   3.456  18.124  0.00  0.00    +0.000 A 
ENDROOT
BRANCH   1   8
ATOM      7  C   UNL     1       1.393   2.760  21.586  0.00  0.00    +0.000 C 
ATOM      8  C   UNL     1       1.062   3.797  20.526  0.00  0.00    +0.000 C 
ENDBRANCH   1   8
BRANCH   4   9
ATOM      9  C   UNL     1       5.036   3.933  16.371  0.00  0.00    +0.000 C 
ATOM     10  N   UNL     1       5.844   3.943  15.540  0.00  0.00    +0.000 NA
ENDBRANCH   4   9
TORSDOF 2
ENDMDL
MODEL 8
REMARK VINA RESULT:      -4.9      3.545      4.951
REMARK  Name = 
REMARK  3 active torsions:
REMARK  status: ('A' for Active; 'I' for Inactive)
REMARK    1  A    between atoms: C_1  and  C_2
REMARK    2  A    between atoms: C_2  and  C_3
REMARK    3  A    between atoms: C_6  and  C_7
REMARK                            x       y       z     vdW  Elec       q    Type
REMARK                         _______ _______ _______ _____ _____    ______ ____
ROOT
ATOM      1  C   UNL     1       2.537   6.699  18.549  0.00  0.00    +0.000 A 
ATOM      2  C   UNL     1       2.595   5.376  18.090  0.00  0.00    +0.000 A 
ATOM      3  C   UNL     1       2.329   4.312  18.954  0.00  0.00    +0.000 A 
ATOM      4  C   UNL     1       1.983   4.561  20.286  0.00  0.00    +0.000 A 
ATOM      5  C   UNL     1       1.899   5.879  20.746  0.00  0.00    +0.000 A 
ATOM      6  C   UNL     1       2.172   6.942  19.881  0.00  0.00    +0.000 A 
ENDROOT
BRANCH   1   8
ATOM      7  C   UNL     1       1.911   9.021  17.807  0.00  0.00    +0.000 C 
ATOM      8  C   UNL     1       2.854   7.844  17.620  0.00  0.00    +0.000 C 
ENDBRANCH   1   8
BRANCH   4   9
ATOM      9  C   UNL     1       1.719   3.468  21.174  0.00  0.00    +0.000 C 
ATOM     10  N   UNL     1       1.506   2.587  21.896  0.00  0.00    +0.000 NA
ENDBRANCH   4   9
TORSDOF 2
ENDMDL
MODEL 9
REMARK VINA RESULT:      -4.9      1.308      1.329
REMARK  Name = 
REMARK  3 active torsions:
REMARK  status: ('A' for Active; 'I' for Inactive)
REMARK    1  A    between atoms: C_1  and  C_2
REMARK    2  A    between atoms: C_2  and  C_3
REMARK    3  A    between atoms: C_6  and  C_7
REMARK                            x       y       z     vdW  Elec       q    Type
REMARK                         _______ _______ _______ _____ _____    ______ ____
ROOT
ATOM      1  C   UNL     1       2.754   4.217  18.697  0.00  0.00    +0.000 A 
ATOM      2  C   UNL     1       3.065   3.738  17.417  0.00  0.00    +0.000 A 
ATOM      3  C   UNL     1       4.368   3.830  16.923  0.00  0.00    +0.000 A 
ATOM      4  C   UNL     1       5.380   4.387  17.711  0.00  0.00    +0.000 A 
ATOM      5  C   UNL     1       5.082   4.845  18.998  0.00  0.00    +0.000 A 
ATOM      6  C   UNL     1       3.776   4.758  19.488  0.00  0.00    +0.000 A 
ENDROOT
BRANCH   1   8
ATOM      7  C   UNL     1       1.204   3.197  20.397  0.00  0.00    +0.000 C 
ATOM      8  C   UNL     1       1.339   4.143  19.216  0.00  0.00    +0.000 C 
ENDBRANCH   1   8
BRANCH   4   9
ATOM      9  C   UNL     1       6.714   4.488  17.199  0.00  0.00    +0.000 C 
ATOM     10  N   UNL     1       7.791   4.570  16.779  0.00  0.00    +0.000 NA
ENDBRANCH   4   9
TORSDOF 2
ENDMDL
