MODEL 1
REMARK VINA RESULT:      -7.6      0.000      0.000
REMARK  Name = 
REMARK  3 active torsions:
REMARK  status: ('A' for Active; 'I' for Inactive)
REMARK    1  A    between atoms: O_1  and  C_2
REMARK    2  A    between atoms: C_5  and  C_6
REMARK    3  A    between atoms: C_11  and  O_12
REMARK                            x       y       z     vdW  Elec       q    Type
REMARK                         _______ _______ _______ _____ _____    ______ ____
ROOT
ATOM      1  C   UNL     1       4.281   3.704  17.299  0.00  0.00    +0.000 A 
ATOM      2  C   UNL     1       2.910   3.577  17.147  0.00  0.00    +0.000 A 
ATOM      3  C   UNL     1       2.333   3.364  18.419  0.00  0.00    +0.000 A 
ATOM      4  C   UNL     1       1.007   3.363  18.894  0.00  0.00    +0.000 A 
ATOM      5  C   UNL     1       0.770   3.057  20.237  0.00  0.00    +0.000 A 
ATOM      6  C   UNL     1       1.828   2.697  21.064  0.00  0.00    +0.000 A 
ATOM      7  C   UNL     1       3.155   2.726  20.627  0.00  0.00    +0.000 A 
ATOM      8  C   UNL     1       3.378   3.119  19.302  0.00  0.00    +0.000 A 
ATOM      9  N   UNL     1       4.544   3.378  18.622  0.00  0.00    +0.000 N 
ATOM     10  H   UNL     1       5.454   3.424  19.052  0.00  0.00    +0.000 HD
ENDROOT
BRANCH   1  14
ATOM     11  C   UNL     1       7.250   5.072  14.542  0.00  0.00    +0.000 A 
ATOM     12  C   UNL     1       7.363   5.364  15.892  0.00  0.00    +0.000 A 
ATOM     13  C   UNL     1       6.381   4.909  16.770  0.00  0.00    +0.000 A 
ATOM     14  C   UNL     1       5.275   4.165  16.322  0.00  0.00    +0.000 A 
ATOM     15  C   UNL     1       5.187   3.875  14.953  0.00  0.00    +0.000 A 
ATOM     16  C   UNL     1       6.175   4.323  14.069  0.00  0.00    +0.000 A 
BRANCH  11  17
ATOM     17  O   UNL     1       8.183   5.504  13.648  0.00  0.00    +0.000 OA
ATOM     18  H   UNL     1       8.082   6.462  13.533  0.00  0.00    +0.000 HD
ENDBRANCH  11  17
ENDBRANCH   1  14
BRANCH   6  19
ATOM     19  O   UNL     1       1.596   2.304  22.352  0.00  0.00    +0.000 OA
ATOM     20  H   UNL     1       2.266   2.721  22.919  0.00  0.00    +0.000 HD
ENDBRANCH   6  19
TORSDOF 3
ENDMDL
MODEL 2
REMARK VINA RESULT:      -7.6      0.082      1.171
REMARK  Name = 
REMARK  3 active torsions:
REMARK  status: ('A' for Active; 'I' for Inactive)
REMARK    1  A    between atoms: O_1  and  C_2
REMARK    2  A    between atoms: C_5  and  C_6
REMARK    3  A    between atoms: C_11  and  O_12
REMARK                            x       y       z     vdW  Elec       q    Type
REMARK                         _______ _______ _______ _____ _____    ______ ____
ROOT
ATOM      1  C   UNL     1       4.343   3.688  17.368  0.00  0.00    +0.000 A 
ATOM      2  C   UNL     1       2.981   3.525  17.175  0.00  0.00    +0.000 A 
ATOM      3  C   UNL     1       2.370   3.320  18.432  0.00  0.00    +0.000 A 
ATOM      4  C   UNL     1       1.030   3.295  18.866  0.00  0.00    +0.000 A 
ATOM      5  C   UNL     1       0.758   3.007  20.207  0.00  0.00    +0.000 A 
ATOM      6  C   UNL     1       1.798   2.687  21.072  0.00  0.00    +0.000 A 
ATOM      7  C   UNL     1       3.136   2.741  20.677  0.00  0.00    +0.000 A 
ATOM      8  C   UNL     1       3.391   3.117  19.352  0.00  0.00    +0.000 A 
ATOM      9  N   UNL     1       4.572   3.392  18.704  0.00  0.00    +0.000 N 
ATOM     10  H   UNL     1       5.467   3.468  19.162  0.00  0.00    +0.000 HD
ENDROOT
BRANCH   1  14
ATOM     11  C   UNL     1       7.219   5.029  14.501  0.00  0.00    +0.000 A 
ATOM     12  C   UNL     1       6.094   4.335  14.089  0.00  0.00    +0.000 A 
ATOM     13  C   UNL     1       5.172   3.906  15.042  0.00  0.00    +0.000 A 
ATOM     14  C   UNL     1       5.357   4.156  16.414  0.00  0.00    +0.000 A 
ATOM     15  C   UNL     1       6.499   4.867  16.806  0.00  0.00    +0.000 A 
ATOM     16  C   UNL     1       7.423   5.307  15.851  0.00  0.00    +0.000 A 
BRANCH  11  17
ATOM     17  O   UNL     1       8.148   5.460  13.602  0.00  0.00    +0.000 OA
ATOM     18  H   UNL     1       9.026   5.178  13.905  0.00  0.00    +0.000 HD
ENDBRANCH  11  17
ENDBRANCH   1  14
BRANCH   6  19
ATOM     19  O   UNL     1       1.535   2.312  22.359  0.00  0.00    +0.000 OA
ATOM     20  H   UNL     1       2.349   1.940  22.737  0.00  0.00    +0.000 HD
ENDBRANCH   6  19
TORSDOF 3
ENDMDL
MODEL 3
REMARK VINA RESULT:      -7.0      5.962      7.697
REMARK  Name = 
REMARK  3 active torsions:
REMARK  status: ('A' for Active; 'I' for Inactive)
REMARK    1  A    between atoms: O_1  and  C_2
REMARK    2  A    between atoms: C_5  and  C_6
REMARK    3  A    between atoms: C_11  and  O_12
REMARK                            x       y       z     vdW  Elec       q    Type
REMARK                         _______ _______ _______ _____ _____    ______ ____
ROOT
ATOM      1  C   UNL     1       8.654   9.092  18.473  0.00  0.00    +0.000 A 
ATOM      2  C   UNL     1       7.717   8.957  17.462  0.00  0.00    +0.000 A 
ATOM      3  C   UNL     1       7.103   7.691  17.583  0.00  0.00    +0.000 A 
ATOM      4  C   UNL     1       5.976   7.098  16.980  0.00  0.00    +0.000 A 
ATOM      5  C   UNL     1       5.660   5.773  17.291  0.00  0.00    +0.000 A 
ATOM      6  C   UNL     1       6.490   5.042  18.134  0.00  0.00    +0.000 A 
ATOM      7  C   UNL     1       7.591   5.616  18.773  0.00  0.00    +0.000 A 
ATOM      8  C   UNL     1       7.840   6.970  18.514  0.00  0.00    +0.000 A 
ATOM      9  N   UNL     1       8.738   7.845  19.076  0.00  0.00    +0.000 N 
ATOM     10  H   UNL     1       9.306   7.638  19.883  0.00  0.00    +0.000 HD
ENDROOT
BRANCH   1  14
ATOM     11  C   UNL     1      10.738  12.644  19.627  0.00  0.00    +0.000 A 
ATOM     12  C   UNL     1      10.613  12.312  18.287  0.00  0.00    +0.000 A 
ATOM     13  C   UNL     1       9.931  11.148  17.936  0.00  0.00    +0.000 A 
ATOM     14  C   UNL     1       9.371  10.299  18.907  0.00  0.00    +0.000 A 
ATOM     15  C   UNL     1       9.503  10.659  20.255  0.00  0.00    +0.000 A 
ATOM     16  C   UNL     1      10.179  11.832  20.611  0.00  0.00    +0.000 A 
BRANCH  11  17
ATOM     17  O   UNL     1      11.402  13.769  20.013  0.00  0.00    +0.000 OA
ATOM     18  H   UNL     1      10.965  14.539  19.616  0.00  0.00    +0.000 HD
ENDBRANCH  11  17
ENDBRANCH   1  14
BRANCH   6  19
ATOM     19  O   UNL     1       6.244   3.719  18.369  0.00  0.00    +0.000 OA
ATOM     20  H   UNL     1       5.740   3.368  17.616  0.00  0.00    +0.000 HD
ENDBRANCH   6  19
TORSDOF 3
ENDMDL
MODEL 4
REMARK VINA RESULT:      -7.0      5.955      7.624
REMARK  Name = 
REMARK  3 active torsions:
REMARK  status: ('A' for Active; 'I' for Inactive)
REMARK    1  A    between atoms: O_1  and  C_2
REMARK    2  A    between atoms: C_5  and  C_6
REMARK    3  A    between atoms: C_11  and  O_12
REMARK                            x       y       z     vdW  Elec       q    Type
REMARK                         _______ _______ _______ _____ _____    ______ ____
ROOT
ATOM      1  C   UNL     1       8.638   9.076  18.444  0.00  0.00    +0.000 A 
ATOM      2  C   UNL     1       7.695   8.920  17.443  0.00  0.00    +0.000 A 
ATOM      3  C   UNL     1       7.084   7.656  17.592  0.00  0.00    +0.000 A 
ATOM      4  C   UNL     1       5.954   7.049  17.008  0.00  0.00    +0.000 A 
ATOM      5  C   UNL     1       5.642   5.730  17.347  0.00  0.00    +0.000 A 
ATOM      6  C   UNL     1       6.479   5.016  18.197  0.00  0.00    +0.000 A 
ATOM      7  C   UNL     1       7.583   5.605  18.818  0.00  0.00    +0.000 A 
ATOM      8  C   UNL     1       7.828   6.954  18.532  0.00  0.00    +0.000 A 
ATOM      9  N   UNL     1       8.728   7.841  19.071  0.00  0.00    +0.000 N 
ATOM     10  H   UNL     1       9.302   7.650  19.878  0.00  0.00    +0.000 HD
ENDROOT
BRANCH   1  14
ATOM     11  C   UNL     1      10.725  12.577  19.739  0.00  0.00    +0.000 A 
ATOM     12  C   UNL     1      10.110  11.749  20.664  0.00  0.00    +0.000 A 
ATOM     13  C   UNL     1       9.434  10.614  20.217  0.00  0.00    +0.000 A 
ATOM     14  C   UNL     1       9.355  10.291  18.851  0.00  0.00    +0.000 A 
ATOM     15  C   UNL     1       9.992  11.140  17.935  0.00  0.00    +0.000 A 
ATOM     16  C   UNL     1      10.678  12.276  18.380  0.00  0.00    +0.000 A 
BRANCH  11  17
ATOM     17  O   UNL     1      11.390  13.699  20.133  0.00  0.00    +0.000 OA
ATOM     18  H   UNL     1      10.956  14.471  19.737  0.00  0.00    +0.000 HD
ENDBRANCH  11  17
ENDBRANCH   1  14
BRANCH   6  19
ATOM     19  O   UNL     1       6.236   3.698  18.459  0.00  0.00    +0.000 OA
ATOM     20  H   UNL     1       5.676   3.348  17.747  0.00  0.00    +0.000 HD
ENDBRANCH   6  19
TORSDOF 3
ENDMDL
MODEL 5
REMARK VINA RESULT:      -6.9      4.893      5.258
REMARK  Name = 
REMARK  3 active torsions:
REMARK  status: ('A' for Active; 'I' for Inactive)
REMARK    1  A    between atoms: O_1  and  C_2
REMARK    2  A    between atoms: C_5  and  C_6
REMARK    3  A    between atoms: C_11  and  O_12
REMARK                            x       y       z     vdW  Elec       q    Type
REMARK                         _______ _______ _______ _____ _____    ______ ____
ROOT
ATOM      1  C   UNL     1       2.582   7.099  18.670  0.00  0.00    +0.000 A 
ATOM      2  C   UNL     1       1.953   8.228  18.171  0.00  0.00    +0.000 A 
ATOM      3  C   UNL     1       1.504   9.011  19.257  0.00  0.00    +0.000 A 
ATOM      4  C   UNL     1       0.992  10.319  19.364  0.00  0.00    +0.000 A 
ATOM      5  C   UNL     1       0.584  10.786  20.616  0.00  0.00    +0.000 A 
ATOM      6  C   UNL     1       0.626   9.941  21.719  0.00  0.00    +0.000 A 
ATOM      7  C   UNL     1       1.164   8.654  21.648  0.00  0.00    +0.000 A 
ATOM      8  C   UNL     1       1.648   8.237  20.402  0.00  0.00    +0.000 A 
ATOM      9  N   UNL     1       2.344   7.110  20.037  0.00  0.00    +0.000 N 
ATOM     10  H   UNL     1       2.718   6.436  20.687  0.00  0.00    +0.000 HD
ENDROOT
BRANCH   1  14
ATOM     11  C   UNL     1       5.070   4.324  16.573  0.00  0.00    +0.000 A 
ATOM     12  C   UNL     1       5.309   5.685  16.478  0.00  0.00    +0.000 A 
ATOM     13  C   UNL     1       4.483   6.570  17.169  0.00  0.00    +0.000 A 
ATOM     14  C   UNL     1       3.409   6.117  17.956  0.00  0.00    +0.000 A 
ATOM     15  C   UNL     1       3.192   4.735  18.043  0.00  0.00    +0.000 A 
ATOM     16  C   UNL     1       4.024   3.843  17.357  0.00  0.00    +0.000 A 
BRANCH  11  17
ATOM     17  O   UNL     1       5.849   3.425  15.908  0.00  0.00    +0.000 OA
ATOM     18  H   UNL     1       6.780   3.668  16.037  0.00  0.00    +0.000 HD
ENDBRANCH  11  17
ENDBRANCH   1  14
BRANCH   6  19
ATOM     19  O   UNL     1       0.141  10.357  22.927  0.00  0.00    +0.000 OA
ATOM     20  H   UNL     1       0.406   9.706  23.598  0.00  0.00    +0.000 HD
ENDBRANCH   6  19
TORSDOF 3
ENDMDL
MODEL 6
REMARK VINA RESULT:      -6.9      4.897      5.304
REMARK  Name = 
REMARK  3 active torsions:
REMARK  status: ('A' for Active; 'I' for Inactive)
REMARK    1  A    between atoms: O_1  and  C_2
REMARK    2  A    between atoms: C_5  and  C_6
REMARK    3  A    between atoms: C_11  and  O_12
REMARK                            x       y       z     vdW  Elec       q    Type
REMARK                         _______ _______ _______ _____ _____    ______ ____
ROOT
ATOM      1  C   UNL     1       2.605   7.147  18.686  0.00  0.00    +0.000 A 
ATOM      2  C   UNL     1       1.942   8.262  18.201  0.00  0.00    +0.000 A 
ATOM      3  C   UNL     1       1.476   9.021  19.298  0.00  0.00    +0.000 A 
ATOM      4  C   UNL     1       0.927  10.313  19.419  0.00  0.00    +0.000 A 
ATOM      5  C   UNL     1       0.512  10.757  20.678  0.00  0.00    +0.000 A 
ATOM      6  C   UNL     1       0.584   9.902  21.773  0.00  0.00    +0.000 A 
ATOM      7  C   UNL     1       1.158   8.632  21.687  0.00  0.00    +0.000 A 
ATOM      8  C   UNL     1       1.647   8.240  20.434  0.00  0.00    +0.000 A 
ATOM      9  N   UNL     1       2.374   7.137  20.054  0.00  0.00    +0.000 N 
ATOM     10  H   UNL     1       2.770   6.468  20.697  0.00  0.00    +0.000 HD
ENDROOT
BRANCH   1  14
ATOM     11  C   UNL     1       5.004   4.293  16.591  0.00  0.00    +0.000 A 
ATOM     12  C   UNL     1       3.947   3.871  17.381  0.00  0.00    +0.000 A 
ATOM     13  C   UNL     1       3.181   4.820  18.056  0.00  0.00    +0.000 A 
ATOM     14  C   UNL     1       3.457   6.196  17.960  0.00  0.00    +0.000 A 
ATOM     15  C   UNL     1       4.526   6.599  17.149  0.00  0.00    +0.000 A 
ATOM     16  C   UNL     1       5.293   5.650  16.463  0.00  0.00    +0.000 A 
BRANCH  11  17
ATOM     17  O   UNL     1       5.782   3.397  15.920  0.00  0.00    +0.000 OA
ATOM     18  H   UNL     1       5.594   2.508  16.260  0.00  0.00    +0.000 HD
ENDBRANCH  11  17
ENDBRANCH   1  14
BRANCH   6  19
ATOM     19  O   UNL     1       0.093  10.292  22.986  0.00  0.00    +0.000 OA
ATOM     20  H   UNL     1       0.667   9.920  23.676  0.00  0.00    +0.000 HD
ENDBRANCH   6  19
TORSDOF 3
ENDMDL
MODEL 7
REMARK VINA RESULT:      -6.9      4.870      6.054
REMARK  Name = 
REMARK  3 active torsions:
REMARK  status: ('A' for Active; 'I' for Inactive)
REMARK    1  A    between atoms: O_1  and  C_2
REMARK    2  A    between atoms: C_5  and  C_6
REMARK    3  A    between atoms: C_11  and  O_12
REMARK                            x       y       z     vdW  Elec       q    Type
REMARK                         _______ _______ _______ _____ _____    ______ ____
ROOT
ATOM      1  C   UNL     1       2.582   6.146  18.993  0.00  0.00    +0.000 A 
ATOM      2  C   UNL     1       2.140   6.764  20.151  0.00  0.00    +0.000 A 
ATOM      3  C   UNL     1       1.693   8.063  19.825  0.00  0.00    +0.000 A 
ATOM      4  C   UNL     1       0.976   9.048  20.534  0.00  0.00    +0.000 A 
ATOM      5  C   UNL     1       0.733  10.281  19.922  0.00  0.00    +0.000 A 
ATOM      6  C   UNL     1       1.253  10.542  18.659  0.00  0.00    +0.000 A 
ATOM      7  C   UNL     1       1.934   9.571  17.921  0.00  0.00    +0.000 A 
ATOM      8  C   UNL     1       2.091   8.314  18.518  0.00  0.00    +0.000 A 
ATOM      9  N   UNL     1       2.580   7.132  18.016  0.00  0.00    +0.000 N 
ATOM     10  H   UNL     1       2.808   6.977  17.046  0.00  0.00    +0.000 HD
ENDROOT
BRANCH   1  14
ATOM     11  C   UNL     1       3.609   2.029  18.456  0.00  0.00    +0.000 A 
ATOM     12  C   UNL     1       4.286   2.802  19.385  0.00  0.00    +0.000 A 
ATOM     13  C   UNL     1       3.935   4.142  19.540  0.00  0.00    +0.000 A 
ATOM     14  C   UNL     1       2.913   4.732  18.774  0.00  0.00    +0.000 A 
ATOM     15  C   UNL     1       2.237   3.928  17.846  0.00  0.00    +0.000 A 
ATOM     16  C   UNL     1       2.581   2.580  17.693  0.00  0.00    +0.000 A 
BRANCH  11  17
ATOM     17  O   UNL     1       3.926   0.717  18.268  0.00  0.00    +0.000 OA
ATOM     18  H   UNL     1       4.442   0.638  17.450  0.00  0.00    +0.000 HD
ENDBRANCH  11  17
ENDBRANCH   1  14
BRANCH   6  19
ATOM     19  O   UNL     1       1.103  11.776  18.092  0.00  0.00    +0.000 OA
ATOM     20  H   UNL     1       1.405  12.440  18.733  0.00  0.00    +0.000 HD
ENDBRANCH   6  19
TORSDOF 3
ENDMDL
MODEL 8
REMARK VINA RESULT:      -6.9      4.513      5.784
REMARK  Name = 
REMARK  3 active torsions:
REMARK  status: ('A' for Active; 'I' for Inactive)
REMARK    1  A    between atoms: O_1  and  C_2
REMARK    2  A    between atoms: C_5  and  C_6
REMARK    3  A    between atoms: C_11  and  O_12
REMARK                            x       y       z     vdW  Elec       q    Type
REMARK                         _______ _______ _______ _____ _____    ______ ____
ROOT
ATOM      1  C   UNL     1       2.575   6.326  18.906  0.00  0.00    +0.000 A 
ATOM      2  C   UNL     1       2.225   5.381  17.956  0.00  0.00    +0.000 A 
ATOM      3  C   UNL     1       2.784   4.139  18.329  0.00  0.00    +0.000 A 
ATOM      4  C   UNL     1       2.606   2.819  17.870  0.00  0.00    +0.000 A 
ATOM      5  C   UNL     1       3.371   1.796  18.438  0.00  0.00    +0.000 A 
ATOM      6  C   UNL     1       4.336   2.100  19.391  0.00  0.00    +0.000 A 
ATOM      7  C   UNL     1       4.506   3.393  19.890  0.00  0.00    +0.000 A 
ATOM      8  C   UNL     1       3.669   4.389  19.370  0.00  0.00    +0.000 A 
ATOM      9  N   UNL     1       3.493   5.701  19.737  0.00  0.00    +0.000 N 
ATOM     10  H   UNL     1       3.898   6.121  20.560  0.00  0.00    +0.000 HD
ENDROOT
BRANCH   1  14
ATOM     11  C   UNL     1       1.043  10.298  19.317  0.00  0.00    +0.000 A 
ATOM     12  C   UNL     1       1.550   9.868  18.101  0.00  0.00    +0.000 A 
ATOM     13  C   UNL     1       2.046   8.569  17.993  0.00  0.00    +0.000 A 
ATOM     14  C   UNL     1       2.049   7.686  19.087  0.00  0.00    +0.000 A 
ATOM     15  C   UNL     1       1.524   8.141  20.304  0.00  0.00    +0.000 A 
ATOM     16  C   UNL     1       1.018   9.442  20.415  0.00  0.00    +0.000 A 
BRANCH  11  17
ATOM     17  O   UNL     1       0.555  11.562  19.467  0.00  0.00    +0.000 OA
ATOM     18  H   UNL     1       0.024  11.594  20.278  0.00  0.00    +0.000 HD
ENDBRANCH  11  17
ENDBRANCH   1  14
BRANCH   6  19
ATOM     19  O   UNL     1       5.154   1.122  19.882  0.00  0.00    +0.000 OA
ATOM     20  H   UNL     1       5.961   1.104  19.340  0.00  0.00    +0.000 HD
ENDBRANCH   6  19
TORSDOF 3
ENDMDL
MODEL 9
REMARK VINA RESULT:      -6.8      4.522      5.750
REMARK  Name = 
REMARK  3 active torsions:
REMARK  status: ('A' for Active; 'I' for Inactive)
REMARK    1  A    between atoms: O_1  and  C_2
REMARK    2  A    between atoms: C_5  and  C_6
REMARK    3  A    between atoms: C_11  and  O_12
REMARK                            x       y       z     vdW  Elec       q    Type
REMARK                         _______ _______ _______ _____ _____    ______ ____
ROOT
ATOM      1  C   UNL     1       2.545   6.357  18.858  0.00  0.00    +0.000 A 
ATOM      2  C   UNL     1       2.183   5.390  17.935  0.00  0.00    +0.000 A 
ATOM      3  C   UNL     1       2.750   4.157  18.328  0.00  0.00    +0.000 A 
ATOM      4  C   UNL     1       2.568   2.826  17.904  0.00  0.00    +0.000 A 
ATOM      5  C   UNL     1       3.345   1.819  18.482  0.00  0.00    +0.000 A 
ATOM      6  C   UNL     1       4.324   2.146  19.413  0.00  0.00    +0.000 A 
ATOM      7  C   UNL     1       4.499   3.452  19.878  0.00  0.00    +0.000 A 
ATOM      8  C   UNL     1       3.651   4.433  19.349  0.00  0.00    +0.000 A 
ATOM      9  N   UNL     1       3.478   5.753  19.689  0.00  0.00    +0.000 N 
ATOM     10  H   UNL     1       3.895   6.193  20.495  0.00  0.00    +0.000 HD
ENDROOT
BRANCH   1  14
ATOM     11  C   UNL     1       1.016  10.309  19.434  0.00  0.00    +0.000 A 
ATOM     12  C   UNL     1       1.018   9.401  20.482  0.00  0.00    +0.000 A 
ATOM     13  C   UNL     1       1.520   8.118  20.268  0.00  0.00    +0.000 A 
ATOM     14  C   UNL     1       2.020   7.719  19.016  0.00  0.00    +0.000 A 
ATOM     15  C   UNL     1       2.014   8.657  17.974  0.00  0.00    +0.000 A 
ATOM     16  C   UNL     1       1.518   9.949  18.186  0.00  0.00    +0.000 A 
BRANCH  11  17
ATOM     17  O   UNL     1       0.528  11.571  19.599  0.00  0.00    +0.000 OA
ATOM     18  H   UNL     1       0.393  11.729  20.546  0.00  0.00    +0.000 HD
ENDBRANCH  11  17
ENDBRANCH   1  14
BRANCH   6  19
ATOM     19  O   UNL     1       5.152   1.182  19.913  0.00  0.00    +0.000 OA
ATOM     20  H   UNL     1       5.703   0.851  19.184  0.00  0.00    +0.000 HD
ENDBRANCH   6  19
TORSDOF 3
ENDMDL
