MODEL 1
REMARK VINA RESULT:      -7.3      0.000      0.000
REMARK  Name = 
REMARK  2 active torsions:
REMARK  status: ('A' for Active; 'I' for Inactive)
REMARK    1  A    between atoms: C_2  and  C_14
REMARK    2  A    between atoms: N_3  and  C_4
REMARK                            x       y       z     vdW  Elec       q    Type
REMARK                         _______ _______ _______ _____ _____    ______ ____
ROOT
ATOM      1  O   UNL     1       6.458   4.517  17.132  0.00  0.00    +0.000 OA
ATOM      2  C   UNL     1       5.733   4.791  16.182  0.00  0.00    +0.000 C 
ATOM      3  N   UNL     1       4.397   5.166  16.244  0.00  0.00    +0.000 N 
ATOM      4  H   UNL     1       3.903   5.199  15.360  0.00  0.00    +0.000 HD
ENDROOT
BRANCH   3   5
ATOM      5  C   UNL     1       3.670   5.371  17.449  0.00  0.00    +0.000 A 
ATOM      6  C   UNL     1       3.750   6.602  18.118  0.00  0.00    +0.000 A 
ATOM      7  C   UNL     1       3.079   6.835  19.313  0.00  0.00    +0.000 A 
ATOM      8  C   UNL     1       2.290   5.838  19.858  0.00  0.00    +0.000 A 
ATOM      9  C   UNL     1       2.153   4.605  19.203  0.00  0.00    +0.000 A 
ATOM     10  C   UNL     1       2.852   4.352  17.993  0.00  0.00    +0.000 A 
ATOM     11  C   UNL     1       2.694   3.010  17.309  0.00  0.00    +0.000 C 
ATOM     12  C   UNL     1       2.149   1.908  18.221  0.00  0.00    +0.000 C 
ATOM     13  C   UNL     1       0.922   2.401  18.972  0.00  0.00    +0.000 C 
ATOM     14  C   UNL     1       1.309   3.554  19.886  0.00  0.00    +0.000 C 
ENDBRANCH   3   5
BRANCH   2  15
ATOM     15  C   UNL     1       6.320   4.668  14.822  0.00  0.00    +0.000 A 
ATOM     16  C   UNL     1       5.706   3.801  13.920  0.00  0.00    +0.000 A 
ATOM     17  N   UNL     1       6.172   3.604  12.663  0.00  0.00    +0.000 NA
ATOM     18  C   UNL     1       7.285   4.303  12.353  0.00  0.00    +0.000 A 
ATOM     19  C   UNL     1       7.902   5.164  13.254  0.00  0.00    +0.000 A 
ATOM     20  N   UNL     1       7.437   5.381  14.513  0.00  0.00    +0.000 NA
ENDBRANCH   2  15
TORSDOF 2
ENDMDL
MODEL 2
REMARK VINA RESULT:      -7.3      1.350      3.110
REMARK  Name = 
REMARK  2 active torsions:
REMARK  status: ('A' for Active; 'I' for Inactive)
REMARK    1  A    between atoms: C_2  and  C_14
REMARK    2  A    between atoms: N_3  and  C_4
REMARK                            x       y       z     vdW  Elec       q    Type
REMARK                         _______ _______ _______ _____ _____    ______ ____
ROOT
ATOM      1  O   UNL     1       6.088   4.177  18.416  0.00  0.00    +0.000 OA
ATOM      2  C   UNL     1       5.353   4.349  17.449  0.00  0.00    +0.000 C 
ATOM      3  N   UNL     1       3.966   4.423  17.469  0.00  0.00    +0.000 N 
ATOM      4  H   UNL     1       3.507   4.405  16.565  0.00  0.00    +0.000 HD
ENDROOT
BRANCH   3   5
ATOM      5  C   UNL     1       3.172   4.386  18.648  0.00  0.00    +0.000 A 
ATOM      6  C   UNL     1       2.919   3.163  19.288  0.00  0.00    +0.000 A 
ATOM      7  C   UNL     1       2.124   3.079  20.425  0.00  0.00    +0.000 A 
ATOM      8  C   UNL     1       1.579   4.230  20.964  0.00  0.00    +0.000 A 
ATOM      9  C   UNL     1       1.837   5.478  20.377  0.00  0.00    +0.000 A 
ATOM     10  C   UNL     1       2.629   5.570  19.202  0.00  0.00    +0.000 A 
ATOM     11  C   UNL     1       2.886   6.928  18.583  0.00  0.00    +0.000 C 
ATOM     12  C   UNL     1       1.901   8.012  19.030  0.00  0.00    +0.000 C 
ATOM     13  C   UNL     1       1.760   8.006  20.544  0.00  0.00    +0.000 C 
ATOM     14  C   UNL     1       1.167   6.681  20.998  0.00  0.00    +0.000 C 
ENDBRANCH   3   5
BRANCH   2  15
ATOM     15  C   UNL     1       5.999   4.445  16.114  0.00  0.00    +0.000 A 
ATOM     16  C   UNL     1       7.021   5.376  15.946  0.00  0.00    +0.000 A 
ATOM     17  N   UNL     1       7.661   5.554  14.765  0.00  0.00    +0.000 NA
ATOM     18  C   UNL     1       7.226   4.768  13.757  0.00  0.00    +0.000 A 
ATOM     19  C   UNL     1       6.202   3.842  13.922  0.00  0.00    +0.000 A 
ATOM     20  N   UNL     1       5.561   3.644  15.105  0.00  0.00    +0.000 NA
ENDBRANCH   2  15
TORSDOF 2
ENDMDL
MODEL 3
REMARK VINA RESULT:      -7.3      0.922      2.519
REMARK  Name = 
REMARK  2 active torsions:
REMARK  status: ('A' for Active; 'I' for Inactive)
REMARK    1  A    between atoms: C_2  and  C_14
REMARK    2  A    between atoms: N_3  and  C_4
REMARK                            x       y       z     vdW  Elec       q    Type
REMARK                         _______ _______ _______ _____ _____    ______ ____
ROOT
ATOM      1  O   UNL     1       6.768   4.450  17.148  0.00  0.00    +0.000 OA
ATOM      2  C   UNL     1       5.983   4.283  16.220  0.00  0.00    +0.000 C 
ATOM      3  N   UNL     1       4.647   3.918  16.324  0.00  0.00    +0.000 N 
ATOM      4  H   UNL     1       4.187   3.666  15.457  0.00  0.00    +0.000 HD
ENDROOT
BRANCH   3   5
ATOM      5  C   UNL     1       3.948   3.753  17.551  0.00  0.00    +0.000 A 
ATOM      6  C   UNL     1       3.837   2.480  18.131  0.00  0.00    +0.000 A 
ATOM      7  C   UNL     1       3.137   2.269  19.314  0.00  0.00    +0.000 A 
ATOM      8  C   UNL     1       2.548   3.342  19.958  0.00  0.00    +0.000 A 
ATOM      9  C   UNL     1       2.666   4.637  19.433  0.00  0.00    +0.000 A 
ATOM     10  C   UNL     1       3.360   4.857  18.214  0.00  0.00    +0.000 A 
ATOM     11  C   UNL     1       3.467   6.264  17.662  0.00  0.00    +0.000 C 
ATOM     12  C   UNL     1       2.439   7.239  18.242  0.00  0.00    +0.000 C 
ATOM     13  C   UNL     1       2.411   7.138  19.759  0.00  0.00    +0.000 C 
ATOM     14  C   UNL     1       1.955   5.746  20.172  0.00  0.00    +0.000 C 
ENDBRANCH   3   5
BRANCH   2  15
ATOM     15  C   UNL     1       6.518   4.441  14.843  0.00  0.00    +0.000 A 
ATOM     16  C   UNL     1       5.963   3.660  13.831  0.00  0.00    +0.000 A 
ATOM     17  N   UNL     1       6.390   3.715  12.547  0.00  0.00    +0.000 NA
ATOM     18  C   UNL     1       7.404   4.578  12.321  0.00  0.00    +0.000 A 
ATOM     19  C   UNL     1       7.963   5.355  13.330  0.00  0.00    +0.000 A 
ATOM     20  N   UNL     1       7.534   5.319  14.620  0.00  0.00    +0.000 NA
ENDBRANCH   2  15
TORSDOF 2
ENDMDL
MODEL 4
REMARK VINA RESULT:      -7.2      0.660      1.167
REMARK  Name = 
REMARK  2 active torsions:
REMARK  status: ('A' for Active; 'I' for Inactive)
REMARK    1  A    between atoms: C_2  and  C_14
REMARK    2  A    between atoms: N_3  and  C_4
REMARK                            x       y       z     vdW  Elec       q    Type
REMARK                         _______ _______ _______ _____ _____    ______ ____
ROOT
ATOM      1  O   UNL     1       6.216   4.405  17.464  0.00  0.00    +0.000 OA
ATOM      2  C   UNL     1       5.538   4.735  16.496  0.00  0.00    +0.000 C 
ATOM      3  N   UNL     1       4.215   5.157  16.520  0.00  0.00    +0.000 N 
ATOM      4  H   UNL     1       3.757   5.235  15.619  0.00  0.00    +0.000 HD
ENDROOT
BRANCH   3   5
ATOM      5  C   UNL     1       3.449   5.349  17.703  0.00  0.00    +0.000 A 
ATOM      6  C   UNL     1       3.496   6.579  18.378  0.00  0.00    +0.000 A 
ATOM      7  C   UNL     1       2.787   6.799  19.553  0.00  0.00    +0.000 A 
ATOM      8  C   UNL     1       1.990   5.793  20.069  0.00  0.00    +0.000 A 
ATOM      9  C   UNL     1       1.885   4.562  19.405  0.00  0.00    +0.000 A 
ATOM     10  C   UNL     1       2.624   4.321  18.216  0.00  0.00    +0.000 A 
ATOM     11  C   UNL     1       2.500   2.980  17.522  0.00  0.00    +0.000 C 
ATOM     12  C   UNL     1       1.938   1.869  18.413  0.00  0.00    +0.000 C 
ATOM     13  C   UNL     1       0.683   2.347  19.127  0.00  0.00    +0.000 C 
ATOM     14  C   UNL     1       1.031   3.500  20.057  0.00  0.00    +0.000 C 
ENDBRANCH   3   5
BRANCH   2  15
ATOM     15  C   UNL     1       6.174   4.634  15.156  0.00  0.00    +0.000 A 
ATOM     16  C   UNL     1       7.272   5.449  14.889  0.00  0.00    +0.000 A 
ATOM     17  N   UNL     1       7.911   5.446  13.694  0.00  0.00    +0.000 NA
ATOM     18  C   UNL     1       7.396   4.602  12.775  0.00  0.00    +0.000 A 
ATOM     19  C   UNL     1       6.296   3.792  13.039  0.00  0.00    +0.000 A 
ATOM     20  N   UNL     1       5.655   3.775  14.237  0.00  0.00    +0.000 NA
ENDBRANCH   2  15
TORSDOF 2
ENDMDL
MODEL 5
REMARK VINA RESULT:      -7.0      3.737      6.788
REMARK  Name = 
REMARK  2 active torsions:
REMARK  status: ('A' for Active; 'I' for Inactive)
REMARK    1  A    between atoms: C_2  and  C_14
REMARK    2  A    between atoms: N_3  and  C_4
REMARK                            x       y       z     vdW  Elec       q    Type
REMARK                         _______ _______ _______ _____ _____    ______ ____
ROOT
ATOM      1  O   UNL     1       1.967   8.873  17.324  0.00  0.00    +0.000 OA
ATOM      2  C   UNL     1       1.923   8.516  18.497  0.00  0.00    +0.000 C 
ATOM      3  N   UNL     1       2.404   7.320  19.015  0.00  0.00    +0.000 N 
ATOM      4  H   UNL     1       2.143   7.113  19.972  0.00  0.00    +0.000 HD
ENDROOT
BRANCH   3   5
ATOM      5  C   UNL     1       3.107   6.339  18.263  0.00  0.00    +0.000 A 
ATOM      6  C   UNL     1       4.190   6.715  17.454  0.00  0.00    +0.000 A 
ATOM      7  C   UNL     1       4.885   5.793  16.680  0.00  0.00    +0.000 A 
ATOM      8  C   UNL     1       4.522   4.459  16.718  0.00  0.00    +0.000 A 
ATOM      9  C   UNL     1       3.469   4.034  17.542  0.00  0.00    +0.000 A 
ATOM     10  C   UNL     1       2.740   4.973  18.318  0.00  0.00    +0.000 A 
ATOM     11  C   UNL     1       1.602   4.491  19.193  0.00  0.00    +0.000 C 
ATOM     12  C   UNL     1       1.069   3.107  18.813  0.00  0.00    +0.000 C 
ATOM     13  C   UNL     1       2.218   2.125  18.644  0.00  0.00    +0.000 C 
ATOM     14  C   UNL     1       3.105   2.568  17.491  0.00  0.00    +0.000 C 
ENDBRANCH   3   5
BRANCH   2  15
ATOM     15  C   UNL     1       1.249   9.427  19.459  0.00  0.00    +0.000 A 
ATOM     16  C   UNL     1       0.970   8.941  20.735  0.00  0.00    +0.000 A 
ATOM     17  N   UNL     1       0.344   9.684  21.679  0.00  0.00    +0.000 NA
ATOM     18  C   UNL     1      -0.001  10.929  21.287  0.00  0.00    +0.000 A 
ATOM     19  C   UNL     1       0.272  11.413  20.013  0.00  0.00    +0.000 A 
ATOM     20  N   UNL     1       0.912  10.683  19.061  0.00  0.00    +0.000 NA
ENDBRANCH   2  15
TORSDOF 2
ENDMDL
MODEL 6
REMARK VINA RESULT:      -7.0      3.742      6.829
REMARK  Name = 
REMARK  2 active torsions:
REMARK  status: ('A' for Active; 'I' for Inactive)
REMARK    1  A    between atoms: C_2  and  C_14
REMARK    2  A    between atoms: N_3  and  C_4
REMARK                            x       y       z     vdW  Elec       q    Type
REMARK                         _______ _______ _______ _____ _____    ______ ____
ROOT
ATOM      1  O   UNL     1       1.720   8.611  17.567  0.00  0.00    +0.000 OA
ATOM      2  C   UNL     1       1.831   8.309  18.751  0.00  0.00    +0.000 C 
ATOM      3  N   UNL     1       2.405   7.150  19.257  0.00  0.00    +0.000 N 
ATOM      4  H   UNL     1       2.269   6.982  20.248  0.00  0.00    +0.000 HD
ENDROOT
BRANCH   3   5
ATOM      5  C   UNL     1       3.037   6.150  18.468  0.00  0.00    +0.000 A 
ATOM      6  C   UNL     1       4.086   6.496  17.603  0.00  0.00    +0.000 A 
ATOM      7  C   UNL     1       4.712   5.556  16.792  0.00  0.00    +0.000 A 
ATOM      8  C   UNL     1       4.312   4.233  16.848  0.00  0.00    +0.000 A 
ATOM      9  C   UNL     1       3.293   3.837  17.727  0.00  0.00    +0.000 A 
ATOM     10  C   UNL     1       2.634   4.795  18.541  0.00  0.00    +0.000 A 
ATOM     11  C   UNL     1       1.530   4.344  19.476  0.00  0.00    +0.000 C 
ATOM     12  C   UNL     1       0.937   2.978  19.124  0.00  0.00    +0.000 C 
ATOM     13  C   UNL     1       2.046   1.963  18.893  0.00  0.00    +0.000 C 
ATOM     14  C   UNL     1       2.884   2.383  17.694  0.00  0.00    +0.000 C 
ENDBRANCH   3   5
BRANCH   2  15
ATOM     15  C   UNL     1       1.255   9.249  19.748  0.00  0.00    +0.000 A 
ATOM     16  C   UNL     1       0.893  10.522  19.315  0.00  0.00    +0.000 A 
ATOM     17  N   UNL     1       0.376  11.459  20.147  0.00  0.00    +0.000 NA
ATOM     18  C   UNL     1       0.250  11.068  21.434  0.00  0.00    +0.000 A 
ATOM     19  C   UNL     1       0.616   9.799  21.869  0.00  0.00    +0.000 A 
ATOM     20  N   UNL     1       1.122   8.847  21.042  0.00  0.00    +0.000 NA
ENDBRANCH   2  15
TORSDOF 2
ENDMDL
MODEL 7
REMARK VINA RESULT:      -7.0      4.209      7.449
REMARK  Name = 
REMARK  2 active torsions:
REMARK  status: ('A' for Active; 'I' for Inactive)
REMARK    1  A    between atoms: C_2  and  C_14
REMARK    2  A    between atoms: N_3  and  C_4
REMARK                            x       y       z     vdW  Elec       q    Type
REMARK                         _______ _______ _______ _____ _____    ______ ____
ROOT
ATOM      1  O   UNL     1       1.435   9.033  18.656  0.00  0.00    +0.000 OA
ATOM      2  C   UNL     1       1.419   8.509  19.765  0.00  0.00    +0.000 C 
ATOM      3  N   UNL     1       1.912   7.252  20.091  0.00  0.00    +0.000 N 
ATOM      4  H   UNL     1       1.673   6.907  21.014  0.00  0.00    +0.000 HD
ENDROOT
BRANCH   3   5
ATOM      5  C   UNL     1       2.594   6.391  19.187  0.00  0.00    +0.000 A 
ATOM      6  C   UNL     1       3.564   6.913  18.318  0.00  0.00    +0.000 A 
ATOM      7  C   UNL     1       4.234   6.113  17.398  0.00  0.00    +0.000 A 
ATOM      8  C   UNL     1       3.959   4.759  17.345  0.00  0.00    +0.000 A 
ATOM      9  C   UNL     1       3.024   4.190  18.221  0.00  0.00    +0.000 A 
ATOM     10  C   UNL     1       2.319   5.004  19.148  0.00  0.00    +0.000 A 
ATOM     11  C   UNL     1       1.308   4.367  20.079  0.00  0.00    +0.000 C 
ATOM     12  C   UNL     1       0.826   2.987  19.622  0.00  0.00    +0.000 C 
ATOM     13  C   UNL     1       2.010   2.108  19.254  0.00  0.00    +0.000 C 
ATOM     14  C   UNL     1       2.748   2.712  18.068  0.00  0.00    +0.000 C 
ENDBRANCH   3   5
BRANCH   2  15
ATOM     15  C   UNL     1       0.771   9.268  20.866  0.00  0.00    +0.000 A 
ATOM     16  C   UNL     1       1.150   8.976  22.175  0.00  0.00    +0.000 A 
ATOM     17  N   UNL     1       0.607   9.598  23.249  0.00  0.00    +0.000 NA
ATOM     18  C   UNL     1      -0.340  10.516  22.957  0.00  0.00    +0.000 A 
ATOM     19  C   UNL     1      -0.723  10.804  21.652  0.00  0.00    +0.000 A 
ATOM     20  N   UNL     1      -0.176  10.198  20.565  0.00  0.00    +0.000 NA
ENDBRANCH   2  15
TORSDOF 2
ENDMDL
MODEL 8
REMARK VINA RESULT:      -6.9      3.562      7.205
REMARK  Name = 
REMARK  2 active torsions:
REMARK  status: ('A' for Active; 'I' for Inactive)
REMARK    1  A    between atoms: C_2  and  C_14
REMARK    2  A    between atoms: N_3  and  C_4
REMARK                            x       y       z     vdW  Elec       q    Type
REMARK                         _______ _______ _______ _____ _____    ______ ____
ROOT
ATOM      1  O   UNL     1       1.828   6.277  20.783  0.00  0.00    +0.000 OA
ATOM      2  C   UNL     1       1.886   7.158  19.931  0.00  0.00    +0.000 C 
ATOM      3  N   UNL     1       2.361   7.020  18.632  0.00  0.00    +0.000 N 
ATOM      4  H   UNL     1       2.490   7.881  18.113  0.00  0.00    +0.000 HD
ENDROOT
BRANCH   3   5
ATOM      5  C   UNL     1       2.788   5.793  18.053  0.00  0.00    +0.000 A 
ATOM      6  C   UNL     1       1.935   4.679  18.059  0.00  0.00    +0.000 A 
ATOM      7  C   UNL     1       2.324   3.453  17.531  0.00  0.00    +0.000 A 
ATOM      8  C   UNL     1       3.577   3.322  16.960  0.00  0.00    +0.000 A 
ATOM      9  C   UNL     1       4.447   4.421  16.900  0.00  0.00    +0.000 A 
ATOM     10  C   UNL     1       4.066   5.671  17.458  0.00  0.00    +0.000 A 
ATOM     11  C   UNL     1       5.026   6.840  17.387  0.00  0.00    +0.000 C 
ATOM     12  C   UNL     1       6.478   6.437  17.120  0.00  0.00    +0.000 C 
ATOM     13  C   UNL     1       6.552   5.467  15.951  0.00  0.00    +0.000 C 
ATOM     14  C   UNL     1       5.814   4.184  16.303  0.00  0.00    +0.000 C 
ENDBRANCH   3   5
BRANCH   2  15
ATOM     15  C   UNL     1       1.451   8.520  20.332  0.00  0.00    +0.000 A 
ATOM     16  C   UNL     1       1.315   8.791  21.692  0.00  0.00    +0.000 A 
ATOM     17  N   UNL     1       0.907   9.994  22.161  0.00  0.00    +0.000 NA
ATOM     18  C   UNL     1       0.631  10.912  21.210  0.00  0.00    +0.000 A 
ATOM     19  C   UNL     1       0.761  10.642  19.852  0.00  0.00    +0.000 A 
ATOM     20  N   UNL     1       1.182   9.443  19.369  0.00  0.00    +0.000 NA
ENDBRANCH   2  15
TORSDOF 2
ENDMDL
MODEL 9
REMARK VINA RESULT:      -6.7      3.508      7.145
REMARK  Name = 
REMARK  2 active torsions:
REMARK  status: ('A' for Active; 'I' for Inactive)
REMARK    1  A    between atoms: C_2  and  C_14
REMARK    2  A    between atoms: N_3  and  C_4
REMARK                            x       y       z     vdW  Elec       q    Type
REMARK                         _______ _______ _______ _____ _____    ______ ____
ROOT
ATOM      1  O   UNL     1       1.915   6.194  20.769  0.00  0.00    +0.000 OA
ATOM      2  C   UNL     1       1.918   7.076  19.917  0.00  0.00    +0.000 C 
ATOM      3  N   UNL     1       2.365   6.957  18.607  0.00  0.00    +0.000 N 
ATOM      4  H   UNL     1       2.449   7.822  18.085  0.00  0.00    +0.000 HD
ENDROOT
BRANCH   3   5
ATOM      5  C   UNL     1       2.825   5.747  18.017  0.00  0.00    +0.000 A 
ATOM      6  C   UNL     1       1.989   4.621  17.980  0.00  0.00    +0.000 A 
ATOM      7  C   UNL     1       2.409   3.411  17.439  0.00  0.00    +0.000 A 
ATOM      8  C   UNL     1       3.678   3.309  16.899  0.00  0.00    +0.000 A 
ATOM      9  C   UNL     1       4.533   4.421  16.882  0.00  0.00    +0.000 A 
ATOM     10  C   UNL     1       4.120   5.654  17.452  0.00  0.00    +0.000 A 
ATOM     11  C   UNL     1       5.064   6.838  17.429  0.00  0.00    +0.000 C 
ATOM     12  C   UNL     1       6.529   6.460  17.192  0.00  0.00    +0.000 C 
ATOM     13  C   UNL     1       6.647   5.514  16.008  0.00  0.00    +0.000 C 
ATOM     14  C   UNL     1       5.918   4.214  16.316  0.00  0.00    +0.000 C 
ENDBRANCH   3   5
BRANCH   2  15
ATOM     15  C   UNL     1       1.441   8.422  20.330  0.00  0.00    +0.000 A 
ATOM     16  C   UNL     1       1.229   9.375  19.336  0.00  0.00    +0.000 A 
ATOM     17  N   UNL     1       0.812  10.635  19.608  0.00  0.00    +0.000 NA
ATOM     18  C   UNL     1       0.628  10.903  20.919  0.00  0.00    +0.000 A 
ATOM     19  C   UNL     1       0.844   9.954  21.912  0.00  0.00    +0.000 A 
ATOM     20  N   UNL     1       1.249   8.683  21.651  0.00  0.00    +0.000 NA
ENDBRANCH   2  15
TORSDOF 2
ENDMDL
