MODEL 1
REMARK VINA RESULT:      -7.6      0.000      0.000
REMARK  Name = 
REMARK  11 active torsions:
REMARK  status: ('A' for Active; 'I' for Inactive)
REMARK    1  A    between atoms: C_1  and  C_2
REMARK    2  A    between atoms: C_2  and  C_3
REMARK    3  A    between atoms: C_2  and  N_4
REMARK    4  A    between atoms: C_2  and  C_5
REMARK    5  A    between atoms: N_7  and  C_8
REMARK    6  A    between atoms: C_8  and  C_9
REMARK    7  A    between atoms: C_8  and  C_18
REMARK    8  A    between atoms: C_9  and  O_10
REMARK    9  A    between atoms: O_10  and  C_11
REMARK   10  A    between atoms: C_11  and  C_12
REMARK   11  A    between atoms: C_27  and  O_28
REMARK                            x       y       z     vdW  Elec       q    Type
REMARK                         _______ _______ _______ _____ _____    ______ ____
ROOT
ATOM      1  C   UNL     1       2.456   6.600  18.492  0.00  0.00    +0.000 C 
ENDROOT
BRANCH   1   2
ATOM      2  C   UNL     1       1.886   7.202  19.800  0.00  0.00    +0.000 C 
ATOM      3  O   UNL     1       1.865   6.506  20.824  0.00  0.00    +0.000 OA
ATOM      4  N   UNL     1       1.428   8.520  19.776  0.00  0.00    +0.000 N 
ATOM      5  C   UNL     1       0.907   9.022  21.035  0.00  0.00    +0.000 C 
ATOM      6  C   UNL     1       1.104  10.513  21.162  0.00  0.00    +0.000 C 
ATOM      7  C   UNL     1       0.689  11.419  19.965  0.00  0.00    +0.000 C 
ATOM      8  C   UNL     1       1.156  10.765  18.651  0.00  0.00    +0.000 C 
ATOM      9  C   UNL     1       0.950   9.238  18.590  0.00  0.00    +0.000 C 
ATOM     10  C   UNL     1       1.466  12.756  20.352  0.00  0.00    +0.000 C 
ATOM     11  C   UNL     1       0.541  13.920  20.113  0.00  0.00    +0.000 C 
ATOM     12  C   UNL     1      -0.749  13.252  20.478  0.00  0.00    +0.000 A 
ATOM     13  C   UNL     1      -1.886  13.868  20.970  0.00  0.00    +0.000 A 
ATOM     14  C   UNL     1      -3.101  13.355  20.555  0.00  0.00    +0.000 A 
ATOM     15  C   UNL     1      -3.099  12.336  19.593  0.00  0.00    +0.000 A 
ATOM     16  C   UNL     1      -1.920  11.610  19.306  0.00  0.00    +0.000 A 
ATOM     17  C   UNL     1      -0.748  11.955  19.952  0.00  0.00    +0.000 A 
BRANCH  11  18
ATOM     18  O   UNL     1       0.580  14.240  18.718  0.00  0.00    +0.000 OA
ATOM     19  H   UNL     1       1.214  14.970  18.590  0.00  0.00    +0.000 HD
ENDBRANCH  11  18
ENDBRANCH   1   2
BRANCH   1  22
ATOM     20  C   UNL     1       2.178   4.176  18.051  0.00  0.00    +0.000 C 
ATOM     21  O   UNL     1       1.191   4.371  17.337  0.00  0.00    +0.000 OA
ATOM     22  N   UNL     1       2.826   5.203  18.697  0.00  0.00    +0.000 N 
ATOM     23  H   UNL     1       3.565   4.968  19.353  0.00  0.00    +0.000 HD
BRANCH  20  25
ATOM     24  C   UNL     1       2.795   2.507  19.863  0.00  0.00    +0.000 C 
ATOM     25  C   UNL     1       2.722   2.756  18.353  0.00  0.00    +0.000 C 
ATOM     26  C   UNL     1       4.123   2.620  17.742  0.00  0.00    +0.000 C 
BRANCH  25  27
ATOM     27  N   UNL     1       1.813   1.763  17.741  0.00  0.00    +0.000 NA
ATOM     28  H   UNL     1       1.343   1.236  18.470  0.00  0.00    +0.000 HD
ATOM     29  H   UNL     1       2.382   1.076  17.222  0.00  0.00    +0.000 HD
ENDBRANCH  25  27
ENDBRANCH  20  25
ENDBRANCH   1  22
BRANCH   1  30
ATOM     30  C   UNL     1       3.659   7.433  17.985  0.00  0.00    +0.000 C 
BRANCH  30  31
ATOM     31  O   UNL     1       3.964   7.233  16.594  0.00  0.00    +0.000 OA
BRANCH  31  32
ATOM     32  C   UNL     1       4.943   6.221  16.368  0.00  0.00    +0.000 C 
BRANCH  32  33
ATOM     33  C   UNL     1       6.102   6.413  17.314  0.00  0.00    +0.000 A 
ATOM     34  C   UNL     1       6.375   5.442  18.296  0.00  0.00    +0.000 A 
ATOM     35  C   UNL     1       7.481   5.607  19.143  0.00  0.00    +0.000 A 
ATOM     36  C   UNL     1       8.307   6.723  19.015  0.00  0.00    +0.000 A 
ATOM     37  C   UNL     1       8.029   7.691  18.050  0.00  0.00    +0.000 A 
ATOM     38  C   UNL     1       6.928   7.539  17.206  0.00  0.00    +0.000 A 
ENDBRANCH  32  33
ENDBRANCH  31  32
ENDBRANCH  30  31
ENDBRANCH   1  30
TORSDOF 9
ENDMDL
MODEL 2
REMARK VINA RESULT:      -7.5      1.821      2.406
REMARK  Name = 
REMARK  11 active torsions:
REMARK  status: ('A' for Active; 'I' for Inactive)
REMARK    1  A    between atoms: C_1  and  C_2
REMARK    2  A    between atoms: C_2  and  C_3
REMARK    3  A    between atoms: C_2  and  N_4
REMARK    4  A    between atoms: C_2  and  C_5
REMARK    5  A    between atoms: N_7  and  C_8
REMARK    6  A    between atoms: C_8  and  C_9
REMARK    7  A    between atoms: C_8  and  C_18
REMARK    8  A    between atoms: C_9  and  O_10
REMARK    9  A    between atoms: O_10  and  C_11
REMARK   10  A    between atoms: C_11  and  C_12
REMARK   11  A    between atoms: C_27  and  O_28
REMARK                            x       y       z     vdW  Elec       q    Type
REMARK                         _______ _______ _______ _____ _____    ______ ____
ROOT
ATOM      1  C   UNL     1       3.525   5.981  18.714  0.00  0.00    +0.000 C 
ENDROOT
BRANCH   1   2
ATOM      2  C   UNL     1       2.576   6.545  19.800  0.00  0.00    +0.000 C 
ATOM      3  O   UNL     1       2.407   5.903  20.845  0.00  0.00    +0.000 OA
ATOM      4  N   UNL     1       1.956   7.772  19.562  0.00  0.00    +0.000 N 
ATOM      5  C   UNL     1       1.080   8.245  20.620  0.00  0.00    +0.000 C 
ATOM      6  C   UNL     1       1.028   9.752  20.667  0.00  0.00    +0.000 C 
ATOM      7  C   UNL     1       0.791  10.525  19.336  0.00  0.00    +0.000 C 
ATOM      8  C   UNL     1       1.650   9.893  18.224  0.00  0.00    +0.000 C 
ATOM      9  C   UNL     1       1.682   8.351  18.242  0.00  0.00    +0.000 C 
ATOM     10  C   UNL     1       1.254  11.984  19.782  0.00  0.00    +0.000 C 
ATOM     11  C   UNL     1       0.260  12.976  19.240  0.00  0.00    +0.000 C 
ATOM     12  C   UNL     1      -0.973  12.131  19.349  0.00  0.00    +0.000 A 
ATOM     13  C   UNL     1      -2.270  12.584  19.511  0.00  0.00    +0.000 A 
ATOM     14  C   UNL     1      -3.263  11.868  18.869  0.00  0.00    +0.000 A 
ATOM     15  C   UNL     1      -2.885  10.819  18.021  0.00  0.00    +0.000 A 
ATOM     16  C   UNL     1      -1.581  10.274  18.075  0.00  0.00    +0.000 A 
ATOM     17  C   UNL     1      -0.661  10.829  18.946  0.00  0.00    +0.000 A 
BRANCH  11  18
ATOM     18  O   UNL     1       0.589  13.235  17.870  0.00  0.00    +0.000 OA
ATOM     19  H   UNL     1       0.069  12.629  17.312  0.00  0.00    +0.000 HD
ENDBRANCH  11  18
ENDBRANCH   1   2
BRANCH   1  22
ATOM     20  C   UNL     1       3.339   3.515  18.893  0.00  0.00    +0.000 C 
ATOM     21  O   UNL     1       4.109   3.480  19.856  0.00  0.00    +0.000 OA
ATOM     22  N   UNL     1       3.039   4.688  18.241  0.00  0.00    +0.000 N 
ATOM     23  H   UNL     1       2.483   4.638  17.392  0.00  0.00    +0.000 HD
BRANCH  20  25
ATOM     24  C   UNL     1       1.441   1.834  19.036  0.00  0.00    +0.000 C 
ATOM     25  C   UNL     1       2.711   2.237  18.280  0.00  0.00    +0.000 C 
ATOM     26  C   UNL     1       3.735   1.097  18.352  0.00  0.00    +0.000 C 
BRANCH  25  27
ATOM     27  N   UNL     1       2.368   2.511  16.867  0.00  0.00    +0.000 NA
ATOM     28  H   UNL     1       1.374   2.697  16.788  0.00  0.00    +0.000 HD
ATOM     29  H   UNL     1       2.537   1.654  16.318  0.00  0.00    +0.000 HD
ENDBRANCH  25  27
ENDBRANCH  20  25
ENDBRANCH   1  22
BRANCH   1  30
ATOM     30  C   UNL     1       4.973   5.875  19.253  0.00  0.00    +0.000 C 
BRANCH  30  31
ATOM     31  O   UNL     1       5.985   6.061  18.248  0.00  0.00    +0.000 OA
BRANCH  31  32
ATOM     32  C   UNL     1       6.675   4.859  17.910  0.00  0.00    +0.000 C 
BRANCH  32  33
ATOM     33  C   UNL     1       6.553   4.601  16.430  0.00  0.00    +0.000 A 
ATOM     34  C   UNL     1       5.540   3.752  15.947  0.00  0.00    +0.000 A 
ATOM     35  C   UNL     1       5.405   3.551  14.565  0.00  0.00    +0.000 A 
ATOM     36  C   UNL     1       6.266   4.189  13.673  0.00  0.00    +0.000 A 
ATOM     37  C   UNL     1       7.278   5.022  14.152  0.00  0.00    +0.000 A 
ATOM     38  C   UNL     1       7.423   5.223  15.526  0.00  0.00    +0.000 A 
ENDBRANCH  32  33
ENDBRANCH  31  32
ENDBRANCH  30  31
ENDBRANCH   1  30
TORSDOF 9
ENDMDL
MODEL 3
REMARK VINA RESULT:      -7.4      0.526      1.052
REMARK  Name = 
REMARK  11 active torsions:
REMARK  status: ('A' for Active; 'I' for Inactive)
REMARK    1  A    between atoms: C_1  and  C_2
REMARK    2  A    between atoms: C_2  and  C_3
REMARK    3  A    between atoms: C_2  and  N_4
REMARK    4  A    between atoms: C_2  and  C_5
REMARK    5  A    between atoms: N_7  and  C_8
REMARK    6  A    between atoms: C_8  and  C_9
REMARK    7  A    between atoms: C_8  and  C_18
REMARK    8  A    between atoms: C_9  and  O_10
REMARK    9  A    between atoms: O_10  and  C_11
REMARK   10  A    between atoms: C_11  and  C_12
REMARK   11  A    between atoms: C_27  and  O_28
REMARK                            x       y       z     vdW  Elec       q    Type
REMARK                         _______ _______ _______ _____ _____    ______ ____
ROOT
ATOM      1  C   UNL     1       2.588   6.520  18.578  0.00  0.00    +0.000 C 
ENDROOT
BRANCH   1   2
ATOM      2  C   UNL     1       1.959   7.121  19.859  0.00  0.00    +0.000 C 
ATOM      3  O   UNL     1       1.900   6.429  20.883  0.00  0.00    +0.000 OA
ATOM      4  N   UNL     1       1.491   8.435  19.810  0.00  0.00    +0.000 N 
ATOM      5  C   UNL     1       0.914   8.938  21.044  0.00  0.00    +0.000 C 
ATOM      6  C   UNL     1       1.094  10.430  21.173  0.00  0.00    +0.000 C 
ATOM      7  C   UNL     1       0.722  11.329  19.957  0.00  0.00    +0.000 C 
ATOM      8  C   UNL     1       1.249  10.674  18.666  0.00  0.00    +0.000 C 
ATOM      9  C   UNL     1       1.058   9.145  18.602  0.00  0.00    +0.000 C 
ATOM     10  C   UNL     1       1.472  12.674  20.371  0.00  0.00    +0.000 C 
ATOM     11  C   UNL     1       0.549  13.829  20.089  0.00  0.00    +0.000 C 
ATOM     12  C   UNL     1      -0.751  13.152  20.402  0.00  0.00    +0.000 A 
ATOM     13  C   UNL     1      -1.912  13.761  20.843  0.00  0.00    +0.000 A 
ATOM     14  C   UNL     1      -3.104  13.237  20.379  0.00  0.00    +0.000 A 
ATOM     15  C   UNL     1      -3.054  12.215  19.422  0.00  0.00    +0.000 A 
ATOM     16  C   UNL     1      -1.858  11.497  19.187  0.00  0.00    +0.000 A 
ATOM     17  C   UNL     1      -0.717  11.854  19.881  0.00  0.00    +0.000 A 
BRANCH  11  18
ATOM     18  O   UNL     1       0.644  14.145  18.696  0.00  0.00    +0.000 OA
ATOM     19  H   UNL     1       1.578  14.331  18.488  0.00  0.00    +0.000 HD
ENDBRANCH  11  18
ENDBRANCH   1   2
BRANCH   1  22
ATOM     20  C   UNL     1       2.470   4.072  18.199  0.00  0.00    +0.000 C 
ATOM     21  O   UNL     1       1.489   4.186  17.460  0.00  0.00    +0.000 OA
ATOM     22  N   UNL     1       3.039   5.154  18.830  0.00  0.00    +0.000 N 
ATOM     23  H   UNL     1       3.776   4.983  19.506  0.00  0.00    +0.000 HD
BRANCH  20  25
ATOM     24  C   UNL     1       2.017   1.610  18.623  0.00  0.00    +0.000 C 
ATOM     25  C   UNL     1       3.094   2.697  18.551  0.00  0.00    +0.000 C 
ATOM     26  C   UNL     1       3.803   2.806  19.907  0.00  0.00    +0.000 C 
BRANCH  25  27
ATOM     27  N   UNL     1       4.074   2.341  17.502  0.00  0.00    +0.000 NA
ATOM     28  H   UNL     1       4.961   2.104  17.932  0.00  0.00    +0.000 HD
ATOM     29  H   UNL     1       4.255   3.178  16.928  0.00  0.00    +0.000 HD
ENDBRANCH  25  27
ENDBRANCH  20  25
ENDBRANCH   1  22
BRANCH   1  30
ATOM     30  C   UNL     1       3.747   7.411  18.067  0.00  0.00    +0.000 C 
BRANCH  30  31
ATOM     31  O   UNL     1       4.006   7.281  16.658  0.00  0.00    +0.000 OA
BRANCH  31  32
ATOM     32  C   UNL     1       4.983   6.289  16.351  0.00  0.00    +0.000 C 
BRANCH  32  33
ATOM     33  C   UNL     1       6.168   6.438  17.271  0.00  0.00    +0.000 A 
ATOM     34  C   UNL     1       6.981   7.585  17.189  0.00  0.00    +0.000 A 
ATOM     35  C   UNL     1       8.055   7.737  18.077  0.00  0.00    +0.000 A 
ATOM     36  C   UNL     1       8.318   6.762  19.038  0.00  0.00    +0.000 A 
ATOM     37  C   UNL     1       7.519   5.620  19.113  0.00  0.00    +0.000 A 
ATOM     38  C   UNL     1       6.452   5.457  18.229  0.00  0.00    +0.000 A 
ENDBRANCH  32  33
ENDBRANCH  31  32
ENDBRANCH  30  31
ENDBRANCH   1  30
TORSDOF 9
ENDMDL
MODEL 4
REMARK VINA RESULT:      -7.4      1.594      2.264
REMARK  Name = 
REMARK  11 active torsions:
REMARK  status: ('A' for Active; 'I' for Inactive)
REMARK    1  A    between atoms: C_1  and  C_2
REMARK    2  A    between atoms: C_2  and  C_3
REMARK    3  A    between atoms: C_2  and  N_4
REMARK    4  A    between atoms: C_2  and  C_5
REMARK    5  A    between atoms: N_7  and  C_8
REMARK    6  A    between atoms: C_8  and  C_9
REMARK    7  A    between atoms: C_8  and  C_18
REMARK    8  A    between atoms: C_9  and  O_10
REMARK    9  A    between atoms: O_10  and  C_11
REMARK   10  A    between atoms: C_11  and  C_12
REMARK   11  A    between atoms: C_27  and  O_28
REMARK                            x       y       z     vdW  Elec       q    Type
REMARK                         _______ _______ _______ _____ _____    ______ ____
ROOT
ATOM      1  C   UNL     1       3.575   5.782  19.098  0.00  0.00    +0.000 C 
ENDROOT
BRANCH   1   2
ATOM      2  C   UNL     1       2.553   6.386  20.093  0.00  0.00    +0.000 C 
ATOM      3  O   UNL     1       2.299   5.777  21.140  0.00  0.00    +0.000 OA
ATOM      4  N   UNL     1       1.963   7.609  19.772  0.00  0.00    +0.000 N 
ATOM      5  C   UNL     1       1.015   8.120  20.746  0.00  0.00    +0.000 C 
ATOM      6  C   UNL     1       0.973   9.628  20.744  0.00  0.00    +0.000 C 
ATOM      7  C   UNL     1       0.843  10.362  19.376  0.00  0.00    +0.000 C 
ATOM      8  C   UNL     1       1.777   9.690  18.352  0.00  0.00    +0.000 C 
ATOM      9  C   UNL     1       1.795   8.150  18.419  0.00  0.00    +0.000 C 
ATOM     10  C   UNL     1       1.285  11.831  19.812  0.00  0.00    +0.000 C 
ATOM     11  C   UNL     1       0.343  12.812  19.167  0.00  0.00    +0.000 C 
ATOM     12  C   UNL     1      -0.902  11.980  19.208  0.00  0.00    +0.000 A 
ATOM     13  C   UNL     1      -2.204  12.445  19.259  0.00  0.00    +0.000 A 
ATOM     14  C   UNL     1      -3.152  11.717  18.565  0.00  0.00    +0.000 A 
ATOM     15  C   UNL     1      -2.721  10.640  17.780  0.00  0.00    +0.000 A 
ATOM     16  C   UNL     1      -1.430  10.089  17.949  0.00  0.00    +0.000 A 
ATOM     17  C   UNL     1      -0.573  10.663  18.869  0.00  0.00    +0.000 A 
BRANCH  11  18
ATOM     18  O   UNL     1       0.777  13.026  17.819  0.00  0.00    +0.000 OA
ATOM     19  H   UNL     1       0.854  12.159  17.382  0.00  0.00    +0.000 HD
ENDBRANCH  11  18
ENDBRANCH   1   2
BRANCH   1  22
ATOM     20  C   UNL     1       2.351   3.819  18.206  0.00  0.00    +0.000 C 
ATOM     21  O   UNL     1       1.505   4.535  17.663  0.00  0.00    +0.000 OA
ATOM     22  N   UNL     1       3.367   4.343  18.971  0.00  0.00    +0.000 N 
ATOM     23  H   UNL     1       3.968   3.700  19.478  0.00  0.00    +0.000 HD
BRANCH  20  25
ATOM     24  C   UNL     1       1.113   1.735  18.961  0.00  0.00    +0.000 C 
ATOM     25  C   UNL     1       2.295   2.271  18.149  0.00  0.00    +0.000 C 
ATOM     26  C   UNL     1       3.605   1.706  18.713  0.00  0.00    +0.000 C 
BRANCH  25  27
ATOM     27  N   UNL     1       2.141   1.857  16.737  0.00  0.00    +0.000 NA
ATOM     28  H   UNL     1       1.195   1.528  16.580  0.00  0.00    +0.000 HD
ATOM     29  H   UNL     1       2.753   1.044  16.567  0.00  0.00    +0.000 HD
ENDBRANCH  25  27
ENDBRANCH  20  25
ENDBRANCH   1  22
BRANCH   1  30
ATOM     30  C   UNL     1       5.024   6.106  19.540  0.00  0.00    +0.000 C 
BRANCH  30  31
ATOM     31  O   UNL     1       5.983   5.095  19.181  0.00  0.00    +0.000 OA
BRANCH  31  32
ATOM     32  C   UNL     1       6.985   5.559  18.280  0.00  0.00    +0.000 C 
BRANCH  32  33
ATOM     33  C   UNL     1       6.550   5.306  16.859  0.00  0.00    +0.000 A 
ATOM     34  C   UNL     1       7.014   4.166  16.176  0.00  0.00    +0.000 A 
ATOM     35  C   UNL     1       6.570   3.914  14.869  0.00  0.00    +0.000 A 
ATOM     36  C   UNL     1       5.673   4.783  14.249  0.00  0.00    +0.000 A 
ATOM     37  C   UNL     1       5.222   5.920  14.923  0.00  0.00    +0.000 A 
ATOM     38  C   UNL     1       5.663   6.181  16.221  0.00  0.00    +0.000 A 
ENDBRANCH  32  33
ENDBRANCH  31  32
ENDBRANCH  30  31
ENDBRANCH   1  30
TORSDOF 9
ENDMDL
MODEL 5
REMARK VINA RESULT:      -7.3      1.283      2.046
REMARK  Name = 
REMARK  11 active torsions:
REMARK  status: ('A' for Active; 'I' for Inactive)
REMARK    1  A    between atoms: C_1  and  C_2
REMARK    2  A    between atoms: C_2  and  C_3
REMARK    3  A    between atoms: C_2  and  N_4
REMARK    4  A    between atoms: C_2  and  C_5
REMARK    5  A    between atoms: N_7  and  C_8
REMARK    6  A    between atoms: C_8  and  C_9
REMARK    7  A    between atoms: C_8  and  C_18
REMARK    8  A    between atoms: C_9  and  O_10
REMARK    9  A    between atoms: O_10  and  C_11
REMARK   10  A    between atoms: C_11  and  C_12
REMARK   11  A    between atoms: C_27  and  O_28
REMARK                            x       y       z     vdW  Elec       q    Type
REMARK                         _______ _______ _______ _____ _____    ______ ____
ROOT
ATOM      1  C   UNL     1       2.534   6.507  18.582  0.00  0.00    +0.000 C 
ENDROOT
BRANCH   1   2
ATOM      2  C   UNL     1       1.928   7.128  19.864  0.00  0.00    +0.000 C 
ATOM      3  O   UNL     1       1.882   6.451  20.899  0.00  0.00    +0.000 OA
ATOM      4  N   UNL     1       1.465   8.443  19.805  0.00  0.00    +0.000 N 
ATOM      5  C   UNL     1       0.909   8.966  21.040  0.00  0.00    +0.000 C 
ATOM      6  C   UNL     1       1.096  10.459  21.146  0.00  0.00    +0.000 C 
ATOM      7  C   UNL     1       0.709  11.342  19.923  0.00  0.00    +0.000 C 
ATOM      8  C   UNL     1       1.213  10.667  18.634  0.00  0.00    +0.000 C 
ATOM      9  C   UNL     1       1.015   9.139  18.594  0.00  0.00    +0.000 C 
ATOM     10  C   UNL     1       1.470  12.690  20.307  0.00  0.00    +0.000 C 
ATOM     11  C   UNL     1       0.547  13.845  20.023  0.00  0.00    +0.000 C 
ATOM     12  C   UNL     1      -0.750  13.177  20.366  0.00  0.00    +0.000 A 
ATOM     13  C   UNL     1      -1.902  13.796  20.817  0.00  0.00    +0.000 A 
ATOM     14  C   UNL     1      -3.103  13.271  20.380  0.00  0.00    +0.000 A 
ATOM     15  C   UNL     1      -3.072  12.235  19.436  0.00  0.00    +0.000 A 
ATOM     16  C   UNL     1      -1.883  11.510  19.192  0.00  0.00    +0.000 A 
ATOM     17  C   UNL     1      -0.729  11.872  19.863  0.00  0.00    +0.000 A 
BRANCH  11  18
ATOM     18  O   UNL     1       0.621  14.141  18.624  0.00  0.00    +0.000 OA
ATOM     19  H   UNL     1      -0.283  14.122  18.260  0.00  0.00    +0.000 HD
ENDBRANCH  11  18
ENDBRANCH   1   2
BRANCH   1  22
ATOM     20  C   UNL     1       2.111   4.106  18.130  0.00  0.00    +0.000 C 
ATOM     21  O   UNL     1       1.151   4.365  17.399  0.00  0.00    +0.000 OA
ATOM     22  N   UNL     1       2.811   5.088  18.790  0.00  0.00    +0.000 N 
ATOM     23  H   UNL     1       3.521   4.806  19.459  0.00  0.00    +0.000 HD
BRANCH  20  25
ATOM     24  C   UNL     1       2.924   2.495  19.916  0.00  0.00    +0.000 C 
ATOM     25  C   UNL     1       2.557   2.653  18.437  0.00  0.00    +0.000 C 
ATOM     26  C   UNL     1       3.774   2.314  17.567  0.00  0.00    +0.000 C 
BRANCH  25  27
ATOM     27  N   UNL     1       1.441   1.738  18.113  0.00  0.00    +0.000 NA
ATOM     28  H   UNL     1       1.623   0.824  18.514  0.00  0.00    +0.000 HD
ATOM     29  H   UNL     1       1.422   1.597  17.091  0.00  0.00    +0.000 HD
ENDBRANCH  25  27
ENDBRANCH  20  25
ENDBRANCH   1  22
BRANCH   1  30
ATOM     30  C   UNL     1       3.810   7.273  18.154  0.00  0.00    +0.000 C 
BRANCH  30  31
ATOM     31  O   UNL     1       4.349   6.849  16.889  0.00  0.00    +0.000 OA
BRANCH  31  32
ATOM     32  C   UNL     1       5.589   6.154  17.005  0.00  0.00    +0.000 C 
BRANCH  32  33
ATOM     33  C   UNL     1       5.879   5.412  15.725  0.00  0.00    +0.000 A 
ATOM     34  C   UNL     1       7.166   5.468  15.158  0.00  0.00    +0.000 A 
ATOM     35  C   UNL     1       7.441   4.740  13.991  0.00  0.00    +0.000 A 
ATOM     36  C   UNL     1       6.448   3.964  13.394  0.00  0.00    +0.000 A 
ATOM     37  C   UNL     1       5.169   3.918  13.950  0.00  0.00    +0.000 A 
ATOM     38  C   UNL     1       4.885   4.643  15.108  0.00  0.00    +0.000 A 
ENDBRANCH  32  33
ENDBRANCH  31  32
ENDBRANCH  30  31
ENDBRANCH   1  30
TORSDOF 9
ENDMDL
MODEL 6
REMARK VINA RESULT:      -7.3      1.334      1.795
REMARK  Name = 
REMARK  11 active torsions:
REMARK  status: ('A' for Active; 'I' for Inactive)
REMARK    1  A    between atoms: C_1  and  C_2
REMARK    2  A    between atoms: C_2  and  C_3
REMARK    3  A    between atoms: C_2  and  N_4
REMARK    4  A    between atoms: C_2  and  C_5
REMARK    5  A    between atoms: N_7  and  C_8
REMARK    6  A    between atoms: C_8  and  C_9
REMARK    7  A    between atoms: C_8  and  C_18
REMARK    8  A    between atoms: C_9  and  O_10
REMARK    9  A    between atoms: O_10  and  C_11
REMARK   10  A    between atoms: C_11  and  C_12
REMARK   11  A    between atoms: C_27  and  O_28
REMARK                            x       y       z     vdW  Elec       q    Type
REMARK                         _______ _______ _______ _____ _____    ______ ____
ROOT
ATOM      1  C   UNL     1       2.507   6.138  18.916  0.00  0.00    +0.000 C 
ENDROOT
BRANCH   1   2
ATOM      2  C   UNL     1       1.980   6.910  20.150  0.00  0.00    +0.000 C 
ATOM      3  O   UNL     1       1.960   6.345  21.251  0.00  0.00    +0.000 OA
ATOM      4  N   UNL     1       1.557   8.228  19.974  0.00  0.00    +0.000 N 
ATOM      5  C   UNL     1       1.075   8.895  21.170  0.00  0.00    +0.000 C 
ATOM      6  C   UNL     1       1.314  10.383  21.112  0.00  0.00    +0.000 C 
ATOM      7  C   UNL     1       0.900  11.149  19.821  0.00  0.00    +0.000 C 
ATOM      8  C   UNL     1       1.323  10.327  18.588  0.00  0.00    +0.000 C 
ATOM      9  C   UNL     1       1.075   8.811  18.716  0.00  0.00    +0.000 C 
ATOM     10  C   UNL     1       1.721  12.500  20.029  0.00  0.00    +0.000 C 
ATOM     11  C   UNL     1       0.823  13.653  19.666  0.00  0.00    +0.000 C 
ATOM     12  C   UNL     1      -0.478  13.072  20.130  0.00  0.00    +0.000 A 
ATOM     13  C   UNL     1      -1.587  13.776  20.562  0.00  0.00    +0.000 A 
ATOM     14  C   UNL     1      -2.823  13.252  20.233  0.00  0.00    +0.000 A 
ATOM     15  C   UNL     1      -2.868  12.125  19.402  0.00  0.00    +0.000 A 
ATOM     16  C   UNL     1      -1.715  11.335  19.186  0.00  0.00    +0.000 A 
ATOM     17  C   UNL     1      -0.522  11.722  19.766  0.00  0.00    +0.000 A 
BRANCH  11  18
ATOM     18  O   UNL     1       0.843  13.801  18.241  0.00  0.00    +0.000 OA
ATOM     19  H   UNL     1       0.521  12.971  17.844  0.00  0.00    +0.000 HD
ENDBRANCH  11  18
ENDBRANCH   1   2
BRANCH   1  22
ATOM     20  C   UNL     1       1.675   3.891  18.280  0.00  0.00    +0.000 C 
ATOM     21  O   UNL     1       1.017   4.348  17.342  0.00  0.00    +0.000 OA
ATOM     22  N   UNL     1       2.391   4.699  19.132  0.00  0.00    +0.000 N 
ATOM     23  H   UNL     1       2.825   4.274  19.946  0.00  0.00    +0.000 HD
BRANCH  20  25
ATOM     24  C   UNL     1       1.868   2.173  20.140  0.00  0.00    +0.000 C 
ATOM     25  C   UNL     1       1.686   2.381  18.633  0.00  0.00    +0.000 C 
ATOM     26  C   UNL     1       2.836   1.703  17.879  0.00  0.00    +0.000 C 
BRANCH  25  27
ATOM     27  N   UNL     1       0.396   1.789  18.214  0.00  0.00    +0.000 NA
ATOM     28  H   UNL     1       0.141   2.144  17.298  0.00  0.00    +0.000 HD
ATOM     29  H   UNL     1      -0.339   2.120  18.857  0.00  0.00    +0.000 HD
ENDBRANCH  25  27
ENDBRANCH  20  25
ENDBRANCH   1  22
BRANCH   1  30
ATOM     30  C   UNL     1       3.968   6.544  18.600  0.00  0.00    +0.000 C 
BRANCH  30  31
ATOM     31  O   UNL     1       4.953   5.813  19.351  0.00  0.00    +0.000 OA
BRANCH  31  32
ATOM     32  C   UNL     1       5.182   4.496  18.855  0.00  0.00    +0.000 C 
BRANCH  32  33
ATOM     33  C   UNL     1       5.702   4.567  17.441  0.00  0.00    +0.000 A 
ATOM     34  C   UNL     1       4.859   4.232  16.365  0.00  0.00    +0.000 A 
ATOM     35  C   UNL     1       5.336   4.344  15.051  0.00  0.00    +0.000 A 
ATOM     36  C   UNL     1       6.636   4.785  14.808  0.00  0.00    +0.000 A 
ATOM     37  C   UNL     1       7.476   5.106  15.876  0.00  0.00    +0.000 A 
ATOM     38  C   UNL     1       7.011   4.993  17.187  0.00  0.00    +0.000 A 
ENDBRANCH  32  33
ENDBRANCH  31  32
ENDBRANCH  30  31
ENDBRANCH   1  30
TORSDOF 9
ENDMDL
MODEL 7
REMARK VINA RESULT:      -7.3      1.278      1.671
REMARK  Name = 
REMARK  11 active torsions:
REMARK  status: ('A' for Active; 'I' for Inactive)
REMARK    1  A    between atoms: C_1  and  C_2
REMARK    2  A    between atoms: C_2  and  C_3
REMARK    3  A    between atoms: C_2  and  N_4
REMARK    4  A    between atoms: C_2  and  C_5
REMARK    5  A    between atoms: N_7  and  C_8
REMARK    6  A    between atoms: C_8  and  C_9
REMARK    7  A    between atoms: C_8  and  C_18
REMARK    8  A    between atoms: C_9  and  O_10
REMARK    9  A    between atoms: O_10  and  C_11
REMARK   10  A    between atoms: C_11  and  C_12
REMARK   11  A    between atoms: C_27  and  O_28
REMARK                            x       y       z     vdW  Elec       q    Type
REMARK                         _______ _______ _______ _____ _____    ______ ____
ROOT
ATOM      1  C   UNL     1       1.785   7.417  18.903  0.00  0.00    +0.000 C 
ENDROOT
BRANCH   1   2
ATOM      2  C   UNL     1       1.481   8.216  20.195  0.00  0.00    +0.000 C 
ATOM      3  O   UNL     1       1.748   7.710  21.293  0.00  0.00    +0.000 OA
ATOM      4  N   UNL     1       0.926   9.490  20.068  0.00  0.00    +0.000 N 
ATOM      5  C   UNL     1       0.666  10.184  21.316  0.00  0.00    +0.000 C 
ATOM      6  C   UNL     1       0.768  11.681  21.151  0.00  0.00    +0.000 C 
ATOM      7  C   UNL     1       0.022  12.346  19.957  0.00  0.00    +0.000 C 
ATOM      8  C   UNL     1       0.229  11.491  18.692  0.00  0.00    +0.000 C 
ATOM      9  C   UNL     1       0.136   9.969  18.929  0.00  0.00    +0.000 C 
ATOM     10  C   UNL     1       0.758  13.760  19.928  0.00  0.00    +0.000 C 
ATOM     11  C   UNL     1      -0.286  14.826  19.731  0.00  0.00    +0.000 C 
ATOM     12  C   UNL     1      -1.404  14.182  20.493  0.00  0.00    +0.000 A 
ATOM     13  C   UNL     1      -2.444  14.829  21.135  0.00  0.00    +0.000 A 
ATOM     14  C   UNL     1      -3.677  14.204  21.108  0.00  0.00    +0.000 A 
ATOM     15  C   UNL     1      -3.813  13.034  20.350  0.00  0.00    +0.000 A 
ATOM     16  C   UNL     1      -2.676  12.315  19.912  0.00  0.00    +0.000 A 
ATOM     17  C   UNL     1      -1.418  12.815  20.198  0.00  0.00    +0.000 A 
BRANCH  11  18
ATOM     18  O   UNL     1      -0.590  14.899  18.333  0.00  0.00    +0.000 OA
ATOM     19  H   UNL     1       0.127  14.457  17.842  0.00  0.00    +0.000 HD
ENDBRANCH  11  18
ENDBRANCH   1   2
BRANCH   1  22
ATOM     20  C   UNL     1       2.278   5.020  18.502  0.00  0.00    +0.000 C 
ATOM     21  O   UNL     1       1.444   4.953  17.596  0.00  0.00    +0.000 OA
ATOM     22  N   UNL     1       2.473   6.171  19.230  0.00  0.00    +0.000 N 
ATOM     23  H   UNL     1       3.097   6.134  20.030  0.00  0.00    +0.000 HD
BRANCH  20  25
ATOM     24  C   UNL     1       4.509   4.232  19.422  0.00  0.00    +0.000 C 
ATOM     25  C   UNL     1       3.115   3.798  18.959  0.00  0.00    +0.000 C 
ATOM     26  C   UNL     1       3.246   2.820  17.785  0.00  0.00    +0.000 C 
BRANCH  25  27
ATOM     27  N   UNL     1       2.414   3.139  20.081  0.00  0.00    +0.000 NA
ATOM     28  H   UNL     1       2.593   2.140  20.055  0.00  0.00    +0.000 HD
ATOM     29  H   UNL     1       1.398   3.245  19.939  0.00  0.00    +0.000 HD
ENDBRANCH  25  27
ENDBRANCH  20  25
ENDBRANCH   1  22
BRANCH   1  30
ATOM     30  C   UNL     1       2.612   8.274  17.912  0.00  0.00    +0.000 C 
BRANCH  30  31
ATOM     31  O   UNL     1       3.984   7.861  17.787  0.00  0.00    +0.000 OA
BRANCH  31  32
ATOM     32  C   UNL     1       4.309   7.359  16.493  0.00  0.00    +0.000 C 
BRANCH  32  33
ATOM     33  C   UNL     1       5.425   6.351  16.603  0.00  0.00    +0.000 A 
ATOM     34  C   UNL     1       6.495   6.582  17.487  0.00  0.00    +0.000 A 
ATOM     35  C   UNL     1       7.506   5.619  17.617  0.00  0.00    +0.000 A 
ATOM     36  C   UNL     1       7.455   4.439  16.876  0.00  0.00    +0.000 A 
ATOM     37  C   UNL     1       6.400   4.215  15.991  0.00  0.00    +0.000 A 
ATOM     38  C   UNL     1       5.392   5.170  15.852  0.00  0.00    +0.000 A 
ENDBRANCH  32  33
ENDBRANCH  31  32
ENDBRANCH  30  31
ENDBRANCH   1  30
TORSDOF 9
ENDMDL
MODEL 8
REMARK VINA RESULT:      -7.2      1.333      1.951
REMARK  Name = 
REMARK  11 active torsions:
REMARK  status: ('A' for Active; 'I' for Inactive)
REMARK    1  A    between atoms: C_1  and  C_2
REMARK    2  A    between atoms: C_2  and  C_3
REMARK    3  A    between atoms: C_2  and  N_4
REMARK    4  A    between atoms: C_2  and  C_5
REMARK    5  A    between atoms: N_7  and  C_8
REMARK    6  A    between atoms: C_8  and  C_9
REMARK    7  A    between atoms: C_8  and  C_18
REMARK    8  A    between atoms: C_9  and  O_10
REMARK    9  A    between atoms: O_10  and  C_11
REMARK   10  A    between atoms: C_11  and  C_12
REMARK   11  A    between atoms: C_27  and  O_28
REMARK                            x       y       z     vdW  Elec       q    Type
REMARK                         _______ _______ _______ _____ _____    ______ ____
ROOT
ATOM      1  C   UNL     1       2.025   7.333  18.684  0.00  0.00    +0.000 C 
ENDROOT
BRANCH   1   2
ATOM      2  C   UNL     1       1.554   8.011  19.994  0.00  0.00    +0.000 C 
ATOM      3  O   UNL     1       1.718   7.421  21.070  0.00  0.00    +0.000 OA
ATOM      4  N   UNL     1       0.972   9.276  19.911  0.00  0.00    +0.000 N 
ATOM      5  C   UNL     1       0.553   9.854  21.175  0.00  0.00    +0.000 C 
ATOM      6  C   UNL     1       0.619  11.361  21.146  0.00  0.00    +0.000 C 
ATOM      7  C   UNL     1      -0.017  12.106  19.934  0.00  0.00    +0.000 C 
ATOM      8  C   UNL     1       0.357  11.367  18.635  0.00  0.00    +0.000 C 
ATOM      9  C   UNL     1       0.293   9.830  18.735  0.00  0.00    +0.000 C 
ATOM     10  C   UNL     1       0.667  13.536  20.103  0.00  0.00    +0.000 C 
ATOM     11  C   UNL     1      -0.387  14.588  19.879  0.00  0.00    +0.000 C 
ATOM     12  C   UNL     1      -1.556  13.851  20.458  0.00  0.00    +0.000 A 
ATOM     13  C   UNL     1      -2.683  14.414  21.031  0.00  0.00    +0.000 A 
ATOM     14  C   UNL     1      -3.882  13.761  20.816  0.00  0.00    +0.000 A 
ATOM     15  C   UNL     1      -3.893  12.656  19.954  0.00  0.00    +0.000 A 
ATOM     16  C   UNL     1      -2.691  12.008  19.588  0.00  0.00    +0.000 A 
ATOM     17  C   UNL     1      -1.491  12.514  20.052  0.00  0.00    +0.000 A 
BRANCH  11  18
ATOM     18  O   UNL     1      -0.540  14.771  18.467  0.00  0.00    +0.000 OA
ATOM     19  H   UNL     1      -1.429  15.134  18.301  0.00  0.00    +0.000 HD
ENDBRANCH  11  18
ENDBRANCH   1   2
BRANCH   1  22
ATOM     20  C   UNL     1       2.341   4.895  18.365  0.00  0.00    +0.000 C 
ATOM     21  O   UNL     1       1.374   4.822  17.602  0.00  0.00    +0.000 OA
ATOM     22  N   UNL     1       2.698   6.072  18.980  0.00  0.00    +0.000 N 
ATOM     23  H   UNL     1       3.436   6.046  19.677  0.00  0.00    +0.000 HD
BRANCH  20  25
ATOM     24  C   UNL     1       3.778   2.976  17.529  0.00  0.00    +0.000 C 
ATOM     25  C   UNL     1       3.183   3.656  18.766  0.00  0.00    +0.000 C 
ATOM     26  C   UNL     1       2.282   2.665  19.513  0.00  0.00    +0.000 C 
BRANCH  25  27
ATOM     27  N   UNL     1       4.281   4.099  19.652  0.00  0.00    +0.000 NA
ATOM     28  H   UNL     1       3.953   4.849  20.252  0.00  0.00    +0.000 HD
ATOM     29  H   UNL     1       5.025   4.511  19.069  0.00  0.00    +0.000 HD
ENDBRANCH  25  27
ENDBRANCH  20  25
ENDBRANCH   1  22
BRANCH   1  30
ATOM     30  C   UNL     1       2.942   8.285  17.875  0.00  0.00    +0.000 C 
BRANCH  30  31
ATOM     31  O   UNL     1       3.773   7.615  16.911  0.00  0.00    +0.000 OA
BRANCH  31  32
ATOM     32  C   UNL     1       5.091   7.349  17.385  0.00  0.00    +0.000 C 
BRANCH  32  33
ATOM     33  C   UNL     1       5.668   6.165  16.653  0.00  0.00    +0.000 A 
ATOM     34  C   UNL     1       5.173   5.817  15.382  0.00  0.00    +0.000 A 
ATOM     35  C   UNL     1       5.744   4.740  14.688  0.00  0.00    +0.000 A 
ATOM     36  C   UNL     1       6.796   4.018  15.249  0.00  0.00    +0.000 A 
ATOM     37  C   UNL     1       7.279   4.356  16.514  0.00  0.00    +0.000 A 
ATOM     38  C   UNL     1       6.713   5.422  17.214  0.00  0.00    +0.000 A 
ENDBRANCH  32  33
ENDBRANCH  31  32
ENDBRANCH  30  31
ENDBRANCH   1  30
TORSDOF 9
ENDMDL
MODEL 9
REMARK VINA RESULT:      -7.2      1.941      4.213
REMARK  Name = 
REMARK  11 active torsions:
REMARK  status: ('A' for Active; 'I' for Inactive)
REMARK    1  A    between atoms: C_1  and  C_2
REMARK    2  A    between atoms: C_2  and  C_3
REMARK    3  A    between atoms: C_2  and  N_4
REMARK    4  A    between atoms: C_2  and  C_5
REMARK    5  A    between atoms: N_7  and  C_8
REMARK    6  A    between atoms: C_8  and  C_9
REMARK    7  A    between atoms: C_8  and  C_18
REMARK    8  A    between atoms: C_9  and  O_10
REMARK    9  A    between atoms: O_10  and  C_11
REMARK   10  A    between atoms: C_11  and  C_12
REMARK   11  A    between atoms: C_27  and  O_28
REMARK                            x       y       z     vdW  Elec       q    Type
REMARK                         _______ _______ _______ _____ _____    ______ ____
ROOT
ATOM      1  C   UNL     1       2.801   7.171  18.824  0.00  0.00    +0.000 C 
ENDROOT
BRANCH   1   2
ATOM      2  C   UNL     1       2.289   8.439  18.098  0.00  0.00    +0.000 C 
ATOM      3  O   UNL     1       2.574   8.607  16.905  0.00  0.00    +0.000 OA
ATOM      4  N   UNL     1       1.508   9.343  18.819  0.00  0.00    +0.000 N 
ATOM      5  C   UNL     1       1.059  10.510  18.080  0.00  0.00    +0.000 C 
ATOM      6  C   UNL     1      -0.260  11.024  18.601  0.00  0.00    +0.000 C 
ATOM      7  C   UNL     1      -0.424  11.219  20.137  0.00  0.00    +0.000 C 
ATOM      8  C   UNL     1       0.188  10.009  20.868  0.00  0.00    +0.000 C 
ATOM      9  C   UNL     1       1.524   9.515  20.276  0.00  0.00    +0.000 C 
ATOM     10  C   UNL     1      -2.013  11.316  20.232  0.00  0.00    +0.000 C 
ATOM     11  C   UNL     1      -2.357  12.438  21.175  0.00  0.00    +0.000 C 
ATOM     12  C   UNL     1      -1.215  13.353  20.851  0.00  0.00    +0.000 A 
ATOM     13  C   UNL     1      -1.207  14.732  20.964  0.00  0.00    +0.000 A 
ATOM     14  C   UNL     1      -0.020  15.316  21.366  0.00  0.00    +0.000 A 
ATOM     15  C   UNL     1       1.042  14.480  21.734  0.00  0.00    +0.000 A 
ATOM     16  C   UNL     1       1.042  13.109  21.385  0.00  0.00    +0.000 A 
ATOM     17  C   UNL     1      -0.051  12.589  20.717  0.00  0.00    +0.000 A 
BRANCH  11  18
ATOM     18  O   UNL     1      -2.256  11.941  22.515  0.00  0.00    +0.000 OA
ATOM     19  H   UNL     1      -3.016  12.278  23.023  0.00  0.00    +0.000 HD
ENDBRANCH  11  18
ENDBRANCH   1   2
BRANCH   1  22
ATOM     20  C   UNL     1       4.801   5.730  18.555  0.00  0.00    +0.000 C 
ATOM     21  O   UNL     1       4.979   5.670  19.775  0.00  0.00    +0.000 OA
ATOM     22  N   UNL     1       3.792   6.483  18.002  0.00  0.00    +0.000 N 
ATOM     23  H   UNL     1       3.761   6.577  16.991  0.00  0.00    +0.000 HD
BRANCH  20  25
ATOM     24  C   UNL     1       6.696   6.048  16.896  0.00  0.00    +0.000 C 
ATOM     25  C   UNL     1       5.743   5.035  17.539  0.00  0.00    +0.000 C 
ATOM     26  C   UNL     1       4.894   4.367  16.451  0.00  0.00    +0.000 C 
BRANCH  25  27
ATOM     27  N   UNL     1       6.535   4.010  18.254  0.00  0.00    +0.000 NA
ATOM     28  H   UNL     1       6.558   4.228  19.244  0.00  0.00    +0.000 HD
ATOM     29  H   UNL     1       7.512   4.069  17.931  0.00  0.00    +0.000 HD
ENDBRANCH  25  27
ENDBRANCH  20  25
ENDBRANCH   1  22
BRANCH   1  30
ATOM     30  C   UNL     1       1.622   6.235  19.187  0.00  0.00    +0.000 C 
BRANCH  30  31
ATOM     31  O   UNL     1       1.745   5.616  20.480  0.00  0.00    +0.000 OA
BRANCH  31  32
ATOM     32  C   UNL     1       1.143   4.325  20.550  0.00  0.00    +0.000 C 
BRANCH  32  33
ATOM     33  C   UNL     1       1.990   3.327  19.802  0.00  0.00    +0.000 A 
ATOM     34  C   UNL     1       1.575   2.860  18.541  0.00  0.00    +0.000 A 
ATOM     35  C   UNL     1       2.390   1.966  17.832  0.00  0.00    +0.000 A 
ATOM     36  C   UNL     1       3.604   1.540  18.369  0.00  0.00    +0.000 A 
ATOM     37  C   UNL     1       4.010   1.994  19.625  0.00  0.00    +0.000 A 
ATOM     38  C   UNL     1       3.203   2.880  20.340  0.00  0.00    +0.000 A 
ENDBRANCH  32  33
ENDBRANCH  31  32
ENDBRANCH  30  31
ENDBRANCH   1  30
TORSDOF 9
ENDMDL
