MODEL 1
REMARK VINA RESULT:      -8.1      0.000      0.000
REMARK  Name = 
REMARK  7 active torsions:
REMARK  status: ('A' for Active; 'I' for Inactive)
REMARK    1  A    between atoms: C_1  and  C_2
REMARK    2  A    between atoms: C_2  and  C_3
REMARK    3  A    between atoms: C_3  and  C_4
REMARK    4  A    between atoms: N_6  and  C_7
REMARK    5  A    between atoms: C_10  and  C_11
REMARK    6  A    between atoms: C_13  and  C_14
REMARK    7  A    between atoms: C_20  and  C_21
REMARK                            x       y       z     vdW  Elec       q    Type
REMARK                         _______ _______ _______ _____ _____    ______ ____
ROOT
ATOM      1  C   UNL     1       2.780   5.141  18.432  0.00  0.00    +0.000 C 
ATOM      2  O   UNL     1       1.642   4.939  18.010  0.00  0.00    +0.000 OA
ATOM      3  N   UNL     1       3.206   6.333  18.995  0.00  0.00    +0.000 N 
ATOM      4  H   UNL     1       4.220   6.440  19.008  0.00  0.00    +0.000 HD
ENDROOT
BRANCH   1   5
ATOM      5  C   UNL     1       3.853   4.028  18.413  0.00  0.00    +0.000 C 
ATOM      6  C   UNL     1       5.124   4.603  19.042  0.00  0.00    +0.000 C 
ATOM      7  C   UNL     1       6.059   4.582  17.873  0.00  0.00    +0.000 C 
ATOM      8  N   UNL     1       5.577   4.057  16.786  0.00  0.00    +0.000 NA
ATOM      9  N   UNL     1       4.280   3.742  17.025  0.00  0.00    +0.000 N 
ATOM     10  H   UNL     1       4.072   2.784  16.728  0.00  0.00    +0.000 HD
BRANCH   7  11
ATOM     11  C   UNL     1       7.459   5.117  18.026  0.00  0.00    +0.000 C 
ATOM     12  F   UNL     1       7.700   6.163  17.186  0.00  0.00    +0.000 F 
ATOM     13  F   UNL     1       7.710   5.574  19.281  0.00  0.00    +0.000 F 
ATOM     14  F   UNL     1       8.407   4.182  17.749  0.00  0.00    +0.000 F 
ENDBRANCH   7  11
BRANCH   5  16
ATOM     15  C   UNL     1       3.461   1.478  18.360  0.00  0.00    +0.000 C 
ATOM     16  C   UNL     1       3.351   2.776  19.159  0.00  0.00    +0.000 C 
ENDBRANCH   5  16
ENDBRANCH   1   5
BRANCH   3  17
ATOM     17  C   UNL     1       2.399   7.476  19.061  0.00  0.00    +0.000 A 
ATOM     18  C   UNL     1       2.195   8.218  17.903  0.00  0.00    +0.000 A 
ATOM     19  C   UNL     1       1.355   9.333  17.934  0.00  0.00    +0.000 A 
ATOM     20  C   UNL     1       0.767   9.761  19.138  0.00  0.00    +0.000 A 
ATOM     21  C   UNL     1       1.009   9.049  20.323  0.00  0.00    +0.000 A 
ATOM     22  C   UNL     1       1.809   7.886  20.260  0.00  0.00    +0.000 A 
BRANCH  21  23
ATOM     23  C   UNL     1       0.479   9.457  21.678  0.00  0.00    +0.000 C 
ATOM     24  F   UNL     1       1.119   8.902  22.738  0.00  0.00    +0.000 F 
ATOM     25  F   UNL     1       0.536  10.802  21.870  0.00  0.00    +0.000 F 
ATOM     26  F   UNL     1      -0.833   9.115  21.827  0.00  0.00    +0.000 F 
ENDBRANCH  21  23
BRANCH  20  27
ATOM     27  C   UNL     1      -0.062  10.934  19.088  0.00  0.00    +0.000 C 
ATOM     28  N   UNL     1      -0.703  11.895  19.020  0.00  0.00    +0.000 NA
ENDBRANCH  20  27
ENDBRANCH   3  17
TORSDOF 6
ENDMDL
MODEL 2
REMARK VINA RESULT:      -8.1      2.511      3.286
REMARK  Name = 
REMARK  7 active torsions:
REMARK  status: ('A' for Active; 'I' for Inactive)
REMARK    1  A    between atoms: C_1  and  C_2
REMARK    2  A    between atoms: C_2  and  C_3
REMARK    3  A    between atoms: C_3  and  C_4
REMARK    4  A    between atoms: N_6  and  C_7
REMARK    5  A    between atoms: C_10  and  C_11
REMARK    6  A    between atoms: C_13  and  C_14
REMARK    7  A    between atoms: C_20  and  C_21
REMARK                            x       y       z     vdW  Elec       q    Type
REMARK                         _______ _______ _______ _____ _____    ______ ____
ROOT
ATOM      1  C   UNL     1       4.471   6.264  17.874  0.00  0.00    +0.000 C 
ATOM      2  O   UNL     1       4.924   7.256  17.302  0.00  0.00    +0.000 OA
ATOM      3  N   UNL     1       3.272   6.239  18.566  0.00  0.00    +0.000 N 
ATOM      4  H   UNL     1       3.192   5.460  19.219  0.00  0.00    +0.000 HD
ENDROOT
BRANCH   1   5
ATOM      5  C   UNL     1       5.204   4.904  17.822  0.00  0.00    +0.000 C 
ATOM      6  C   UNL     1       4.206   3.864  17.306  0.00  0.00    +0.000 C 
ATOM      7  C   UNL     1       4.071   2.974  18.503  0.00  0.00    +0.000 C 
ATOM      8  N   UNL     1       4.833   3.281  19.511  0.00  0.00    +0.000 NA
ATOM      9  N   UNL     1       5.497   4.419  19.189  0.00  0.00    +0.000 N 
ATOM     10  H   UNL     1       6.499   4.328  19.379  0.00  0.00    +0.000 HD
BRANCH   7  11
ATOM     11  C   UNL     1       3.125   1.804  18.462  0.00  0.00    +0.000 C 
ATOM     12  F   UNL     1       2.264   1.806  19.518  0.00  0.00    +0.000 F 
ATOM     13  F   UNL     1       2.352   1.794  17.344  0.00  0.00    +0.000 F 
ATOM     14  F   UNL     1       3.773   0.609  18.505  0.00  0.00    +0.000 F 
ENDBRANCH   7  11
BRANCH   5  16
ATOM     15  C   UNL     1       7.755   4.576  17.625  0.00  0.00    +0.000 C 
ATOM     16  C   UNL     1       6.459   4.995  16.932  0.00  0.00    +0.000 C 
ENDBRANCH   5  16
ENDBRANCH   1   5
BRANCH   3  17
ATOM     17  C   UNL     1       2.484   7.381  18.767  0.00  0.00    +0.000 A 
ATOM     18  C   UNL     1       2.259   8.234  17.693  0.00  0.00    +0.000 A 
ATOM     19  C   UNL     1       1.437   9.351  17.857  0.00  0.00    +0.000 A 
ATOM     20  C   UNL     1       0.891   9.668  19.115  0.00  0.00    +0.000 A 
ATOM     21  C   UNL     1       1.156   8.840  20.217  0.00  0.00    +0.000 A 
ATOM     22  C   UNL     1       1.936   7.680  20.017  0.00  0.00    +0.000 A 
BRANCH  21  23
ATOM     23  C   UNL     1       0.672   9.121  21.620  0.00  0.00    +0.000 C 
ATOM     24  F   UNL     1       0.571  10.435  21.943  0.00  0.00    +0.000 F 
ATOM     25  F   UNL     1      -0.554   8.583  21.860  0.00  0.00    +0.000 F 
ATOM     26  F   UNL     1       1.504   8.581  22.556  0.00  0.00    +0.000 F 
ENDBRANCH  21  23
BRANCH  20  27
ATOM     27  C   UNL     1       0.078  10.850  19.203  0.00  0.00    +0.000 C 
ATOM     28  N   UNL     1      -0.563  11.813  19.237  0.00  0.00    +0.000 NA
ENDBRANCH  20  27
ENDBRANCH   3  17
TORSDOF 6
ENDMDL
MODEL 3
REMARK VINA RESULT:      -8.1      0.357      1.144
REMARK  Name = 
REMARK  7 active torsions:
REMARK  status: ('A' for Active; 'I' for Inactive)
REMARK    1  A    between atoms: C_1  and  C_2
REMARK    2  A    between atoms: C_2  and  C_3
REMARK    3  A    between atoms: C_3  and  C_4
REMARK    4  A    between atoms: N_6  and  C_7
REMARK    5  A    between atoms: C_10  and  C_11
REMARK    6  A    between atoms: C_13  and  C_14
REMARK    7  A    between atoms: C_20  and  C_21
REMARK                            x       y       z     vdW  Elec       q    Type
REMARK                         _______ _______ _______ _____ _____    ______ ____
ROOT
ATOM      1  C   UNL     1       2.792   5.027  18.559  0.00  0.00    +0.000 C 
ATOM      2  O   UNL     1       1.596   4.745  18.488  0.00  0.00    +0.000 OA
ATOM      3  N   UNL     1       3.283   6.296  18.821  0.00  0.00    +0.000 N 
ATOM      4  H   UNL     1       4.257   6.422  18.548  0.00  0.00    +0.000 HD
ENDROOT
BRANCH   1   5
ATOM      5  C   UNL     1       3.883   3.943  18.406  0.00  0.00    +0.000 C 
ATOM      6  C   UNL     1       5.165   4.489  19.038  0.00  0.00    +0.000 C 
ATOM      7  C   UNL     1       6.058   4.588  17.840  0.00  0.00    +0.000 C 
ATOM      8  N   UNL     1       5.546   4.147  16.729  0.00  0.00    +0.000 NA
ATOM      9  N   UNL     1       4.264   3.786  16.985  0.00  0.00    +0.000 N 
ATOM     10  H   UNL     1       4.063   2.853  16.614  0.00  0.00    +0.000 HD
BRANCH   7  11
ATOM     11  C   UNL     1       7.452   5.137  17.990  0.00  0.00    +0.000 C 
ATOM     12  F   UNL     1       8.402   4.205  17.697  0.00  0.00    +0.000 F 
ATOM     13  F   UNL     1       7.690   6.191  17.165  0.00  0.00    +0.000 F 
ATOM     14  F   UNL     1       7.713   5.560  19.255  0.00  0.00    +0.000 F 
ENDBRANCH   7  11
BRANCH   5  16
ATOM     15  C   UNL     1       4.374   2.098  20.142  0.00  0.00    +0.000 C 
ATOM     16  C   UNL     1       3.431   2.621  19.059  0.00  0.00    +0.000 C 
ENDBRANCH   5  16
ENDBRANCH   1   5
BRANCH   3  17
ATOM     17  C   UNL     1       2.457   7.422  18.943  0.00  0.00    +0.000 A 
ATOM     18  C   UNL     1       2.216   8.199  17.816  0.00  0.00    +0.000 A 
ATOM     19  C   UNL     1       1.357   9.297  17.903  0.00  0.00    +0.000 A 
ATOM     20  C   UNL     1       0.789   9.674  19.134  0.00  0.00    +0.000 A 
ATOM     21  C   UNL     1       1.070   8.926  20.288  0.00  0.00    +0.000 A 
ATOM     22  C   UNL     1       1.888   7.781  20.168  0.00  0.00    +0.000 A 
BRANCH  21  23
ATOM     23  C   UNL     1       0.564   9.279  21.667  0.00  0.00    +0.000 C 
ATOM     24  F   UNL     1       0.517  10.607  21.941  0.00  0.00    +0.000 F 
ATOM     25  F   UNL     1      -0.693   8.807  21.891  0.00  0.00    +0.000 F 
ATOM     26  F   UNL     1       1.345   8.734  22.643  0.00  0.00    +0.000 F 
ENDBRANCH  21  23
BRANCH  20  27
ATOM     27  C   UNL     1      -0.061  10.833  19.141  0.00  0.00    +0.000 C 
ATOM     28  N   UNL     1      -0.772  11.745  19.123  0.00  0.00    +0.000 NA
ENDBRANCH  20  27
ENDBRANCH   3  17
TORSDOF 6
ENDMDL
MODEL 4
REMARK VINA RESULT:      -8.1      2.510      3.279
REMARK  Name = 
REMARK  7 active torsions:
REMARK  status: ('A' for Active; 'I' for Inactive)
REMARK    1  A    between atoms: C_1  and  C_2
REMARK    2  A    between atoms: C_2  and  C_3
REMARK    3  A    between atoms: C_3  and  C_4
REMARK    4  A    between atoms: N_6  and  C_7
REMARK    5  A    between atoms: C_10  and  C_11
REMARK    6  A    between atoms: C_13  and  C_14
REMARK    7  A    between atoms: C_20  and  C_21
REMARK                            x       y       z     vdW  Elec       q    Type
REMARK                         _______ _______ _______ _____ _____    ______ ____
ROOT
ATOM      1  C   UNL     1       4.488   6.256  17.872  0.00  0.00    +0.000 C 
ATOM      2  O   UNL     1       4.946   7.244  17.298  0.00  0.00    +0.000 OA
ATOM      3  N   UNL     1       3.285   6.237  18.559  0.00  0.00    +0.000 N 
ATOM      4  H   UNL     1       3.201   5.461  19.216  0.00  0.00    +0.000 HD
ENDROOT
BRANCH   1   5
ATOM      5  C   UNL     1       5.218   4.894  17.831  0.00  0.00    +0.000 C 
ATOM      6  C   UNL     1       4.220   3.853  17.319  0.00  0.00    +0.000 C 
ATOM      7  C   UNL     1       4.080   2.971  18.522  0.00  0.00    +0.000 C 
ATOM      8  N   UNL     1       4.840   3.283  19.530  0.00  0.00    +0.000 NA
ATOM      9  N   UNL     1       5.507   4.418  19.202  0.00  0.00    +0.000 N 
ATOM     10  H   UNL     1       6.508   4.325  19.395  0.00  0.00    +0.000 HD
BRANCH   7  11
ATOM     11  C   UNL     1       3.132   1.802  18.486  0.00  0.00    +0.000 C 
ATOM     12  F   UNL     1       2.363   1.802  17.360  0.00  0.00    +0.000 F 
ATOM     13  F   UNL     1       3.776   0.605  18.503  0.00  0.00    +0.000 F 
ATOM     14  F   UNL     1       2.267   1.800  19.535  0.00  0.00    +0.000 F 
ENDBRANCH   7  11
BRANCH   5  16
ATOM     15  C   UNL     1       7.773   4.587  17.651  0.00  0.00    +0.000 C 
ATOM     16  C   UNL     1       6.476   4.977  16.944  0.00  0.00    +0.000 C 
ENDBRANCH   5  16
ENDBRANCH   1   5
BRANCH   3  17
ATOM     17  C   UNL     1       2.499   7.381  18.750  0.00  0.00    +0.000 A 
ATOM     18  C   UNL     1       2.258   8.216  17.665  0.00  0.00    +0.000 A 
ATOM     19  C   UNL     1       1.437   9.334  17.820  0.00  0.00    +0.000 A 
ATOM     20  C   UNL     1       0.908   9.672  19.079  0.00  0.00    +0.000 A 
ATOM     21  C   UNL     1       1.189   8.864  20.192  0.00  0.00    +0.000 A 
ATOM     22  C   UNL     1       1.967   7.701  20.002  0.00  0.00    +0.000 A 
BRANCH  21  23
ATOM     23  C   UNL     1       0.723   9.169  21.596  0.00  0.00    +0.000 C 
ATOM     24  F   UNL     1      -0.567   8.840  21.859  0.00  0.00    +0.000 F 
ATOM     25  F   UNL     1       1.469   8.530  22.537  0.00  0.00    +0.000 F 
ATOM     26  F   UNL     1       0.823  10.499  21.882  0.00  0.00    +0.000 F 
ENDBRANCH  21  23
BRANCH  20  27
ATOM     27  C   UNL     1       0.095  10.855  19.158  0.00  0.00    +0.000 C 
ATOM     28  N   UNL     1      -0.575  11.794  19.256  0.00  0.00    +0.000 NA
ENDBRANCH  20  27
ENDBRANCH   3  17
TORSDOF 6
ENDMDL
MODEL 5
REMARK VINA RESULT:      -8.0      0.566      1.051
REMARK  Name = 
REMARK  7 active torsions:
REMARK  status: ('A' for Active; 'I' for Inactive)
REMARK    1  A    between atoms: C_1  and  C_2
REMARK    2  A    between atoms: C_2  and  C_3
REMARK    3  A    between atoms: C_3  and  C_4
REMARK    4  A    between atoms: N_6  and  C_7
REMARK    5  A    between atoms: C_10  and  C_11
REMARK    6  A    between atoms: C_13  and  C_14
REMARK    7  A    between atoms: C_20  and  C_21
REMARK                            x       y       z     vdW  Elec       q    Type
REMARK                         _______ _______ _______ _____ _____    ______ ____
ROOT
ATOM      1  C   UNL     1       2.788   5.025  18.462  0.00  0.00    +0.000 C 
ATOM      2  O   UNL     1       1.588   4.774  18.348  0.00  0.00    +0.000 OA
ATOM      3  N   UNL     1       3.300   6.271  18.783  0.00  0.00    +0.000 N 
ATOM      4  H   UNL     1       4.285   6.383  18.542  0.00  0.00    +0.000 HD
ENDROOT
BRANCH   1   5
ATOM      5  C   UNL     1       3.858   3.920  18.302  0.00  0.00    +0.000 C 
ATOM      6  C   UNL     1       5.225   4.566  18.537  0.00  0.00    +0.000 C 
ATOM      7  C   UNL     1       5.850   4.418  17.185  0.00  0.00    +0.000 C 
ATOM      8  N   UNL     1       5.136   3.773  16.311  0.00  0.00    +0.000 NA
ATOM      9  N   UNL     1       3.945   3.482  16.891  0.00  0.00    +0.000 N 
ATOM     10  H   UNL     1       3.701   2.497  16.758  0.00  0.00    +0.000 HD
BRANCH   7  11
ATOM     11  C   UNL     1       7.228   4.972  16.933  0.00  0.00    +0.000 C 
ATOM     12  F   UNL     1       7.304   6.302  17.218  0.00  0.00    +0.000 F 
ATOM     13  F   UNL     1       8.181   4.368  17.691  0.00  0.00    +0.000 F 
ATOM     14  F   UNL     1       7.613   4.840  15.636  0.00  0.00    +0.000 F 
ENDBRANCH   7  11
BRANCH   5  16
ATOM     15  C   UNL     1       3.451   1.391  18.610  0.00  0.00    +0.000 C 
ATOM     16  C   UNL     1       3.590   2.758  19.279  0.00  0.00    +0.000 C 
ENDBRANCH   5  16
ENDBRANCH   1   5
BRANCH   3  17
ATOM     17  C   UNL     1       2.498   7.412  18.921  0.00  0.00    +0.000 A 
ATOM     18  C   UNL     1       2.302   8.230  17.815  0.00  0.00    +0.000 A 
ATOM     19  C   UNL     1       1.467   9.344  17.917  0.00  0.00    +0.000 A 
ATOM     20  C   UNL     1       0.878   9.695  19.145  0.00  0.00    +0.000 A 
ATOM     21  C   UNL     1       1.112   8.905  20.281  0.00  0.00    +0.000 A 
ATOM     22  C   UNL     1       1.907   7.745  20.143  0.00  0.00    +0.000 A 
BRANCH  21  23
ATOM     23  C   UNL     1       0.580   9.225  21.658  0.00  0.00    +0.000 C 
ATOM     24  F   UNL     1       0.466  10.547  21.939  0.00  0.00    +0.000 F 
ATOM     25  F   UNL     1      -0.653   8.691  21.871  0.00  0.00    +0.000 F 
ATOM     26  F   UNL     1       1.380   8.714  22.637  0.00  0.00    +0.000 F 
ENDBRANCH  21  23
BRANCH  20  27
ATOM     27  C   UNL     1       0.054  10.873  19.170  0.00  0.00    +0.000 C 
ATOM     28  N   UNL     1      -0.640  11.798  19.201  0.00  0.00    +0.000 NA
ENDBRANCH  20  27
ENDBRANCH   3  17
TORSDOF 6
ENDMDL
MODEL 6
REMARK VINA RESULT:      -8.0      0.559      1.014
REMARK  Name = 
REMARK  7 active torsions:
REMARK  status: ('A' for Active; 'I' for Inactive)
REMARK    1  A    between atoms: C_1  and  C_2
REMARK    2  A    between atoms: C_2  and  C_3
REMARK    3  A    between atoms: C_3  and  C_4
REMARK    4  A    between atoms: N_6  and  C_7
REMARK    5  A    between atoms: C_10  and  C_11
REMARK    6  A    between atoms: C_13  and  C_14
REMARK    7  A    between atoms: C_20  and  C_21
REMARK                            x       y       z     vdW  Elec       q    Type
REMARK                         _______ _______ _______ _____ _____    ______ ____
ROOT
ATOM      1  C   UNL     1       2.759   5.112  18.269  0.00  0.00    +0.000 C 
ATOM      2  O   UNL     1       1.593   4.945  17.911  0.00  0.00    +0.000 OA
ATOM      3  N   UNL     1       3.250   6.288  18.812  0.00  0.00    +0.000 N 
ATOM      4  H   UNL     1       4.266   6.367  18.769  0.00  0.00    +0.000 HD
ENDROOT
BRANCH   1   5
ATOM      5  C   UNL     1       3.796   3.969  18.187  0.00  0.00    +0.000 C 
ATOM      6  C   UNL     1       5.172   4.574  18.477  0.00  0.00    +0.000 C 
ATOM      7  C   UNL     1       5.858   4.374  17.161  0.00  0.00    +0.000 C 
ATOM      8  N   UNL     1       5.166   3.733  16.266  0.00  0.00    +0.000 NA
ATOM      9  N   UNL     1       3.939   3.497  16.792  0.00  0.00    +0.000 N 
ATOM     10  H   UNL     1       3.667   2.517  16.667  0.00  0.00    +0.000 HD
BRANCH   7  11
ATOM     11  C   UNL     1       7.265   4.874  16.968  0.00  0.00    +0.000 C 
ATOM     12  F   UNL     1       8.144   4.269  17.817  0.00  0.00    +0.000 F 
ATOM     13  F   UNL     1       7.734   4.647  15.713  0.00  0.00    +0.000 F 
ATOM     14  F   UNL     1       7.379   6.210  17.196  0.00  0.00    +0.000 F 
ENDBRANCH   7  11
BRANCH   5  16
ATOM     15  C   UNL     1       3.502   1.435  18.573  0.00  0.00    +0.000 C 
ATOM     16  C   UNL     1       3.439   2.839  19.173  0.00  0.00    +0.000 C 
ENDBRANCH   5  16
ENDBRANCH   1   5
BRANCH   3  17
ATOM     17  C   UNL     1       2.481   7.454  18.926  0.00  0.00    +0.000 A 
ATOM     18  C   UNL     1       2.337   8.272  17.812  0.00  0.00    +0.000 A 
ATOM     19  C   UNL     1       1.535   9.412  17.888  0.00  0.00    +0.000 A 
ATOM     20  C   UNL     1       0.928   9.788  19.100  0.00  0.00    +0.000 A 
ATOM     21  C   UNL     1       1.110   8.997  20.245  0.00  0.00    +0.000 A 
ATOM     22  C   UNL     1       1.871   7.812  20.132  0.00  0.00    +0.000 A 
BRANCH  21  23
ATOM     23  C   UNL     1       0.555   9.340  21.607  0.00  0.00    +0.000 C 
ATOM     24  F   UNL     1       1.189   8.752  22.653  0.00  0.00    +0.000 F 
ATOM     25  F   UNL     1       0.589  10.677  21.856  0.00  0.00    +0.000 F 
ATOM     26  F   UNL     1      -0.753   8.974  21.724  0.00  0.00    +0.000 F 
ENDBRANCH  21  23
BRANCH  20  27
ATOM     27  C   UNL     1       0.141  10.991  19.100  0.00  0.00    +0.000 C 
ATOM     28  N   UNL     1      -0.526  11.936  19.098  0.00  0.00    +0.000 NA
ENDBRANCH  20  27
ENDBRANCH   3  17
TORSDOF 6
ENDMDL
MODEL 7
REMARK VINA RESULT:      -7.9      1.057      1.516
REMARK  Name = 
REMARK  7 active torsions:
REMARK  status: ('A' for Active; 'I' for Inactive)
REMARK    1  A    between atoms: C_1  and  C_2
REMARK    2  A    between atoms: C_2  and  C_3
REMARK    3  A    between atoms: C_3  and  C_4
REMARK    4  A    between atoms: N_6  and  C_7
REMARK    5  A    between atoms: C_10  and  C_11
REMARK    6  A    between atoms: C_13  and  C_14
REMARK    7  A    between atoms: C_20  and  C_21
REMARK                            x       y       z     vdW  Elec       q    Type
REMARK                         _______ _______ _______ _____ _____    ______ ____
ROOT
ATOM      1  C   UNL     1       2.827   5.849  18.369  0.00  0.00    +0.000 C 
ATOM      2  O   UNL     1       1.916   5.329  19.014  0.00  0.00    +0.000 OA
ATOM      3  N   UNL     1       2.979   7.214  18.190  0.00  0.00    +0.000 N 
ATOM      4  H   UNL     1       3.580   7.459  17.404  0.00  0.00    +0.000 HD
ENDROOT
BRANCH   1   5
ATOM      5  C   UNL     1       3.944   4.995  17.727  0.00  0.00    +0.000 C 
ATOM      6  C   UNL     1       5.056   4.835  18.767  0.00  0.00    +0.000 C 
ATOM      7  C   UNL     1       6.178   5.573  18.106  0.00  0.00    +0.000 C 
ATOM      8  N   UNL     1       5.919   6.026  16.914  0.00  0.00    +0.000 NA
ATOM      9  N   UNL     1       4.618   5.750  16.647  0.00  0.00    +0.000 N 
ATOM     10  H   UNL     1       4.516   5.315  15.726  0.00  0.00    +0.000 HD
BRANCH   7  11
ATOM     11  C   UNL     1       7.500   5.714  18.813  0.00  0.00    +0.000 C 
ATOM     12  F   UNL     1       8.382   4.742  18.446  0.00  0.00    +0.000 F 
ATOM     13  F   UNL     1       8.112   6.899  18.548  0.00  0.00    +0.000 F 
ATOM     14  F   UNL     1       7.380   5.625  20.164  0.00  0.00    +0.000 F 
ENDBRANCH   7  11
BRANCH   5  16
ATOM     15  C   UNL     1       3.789   2.453  18.137  0.00  0.00    +0.000 C 
ATOM     16  C   UNL     1       3.389   3.636  17.257  0.00  0.00    +0.000 C 
ENDBRANCH   5  16
ENDBRANCH   1   5
BRANCH   3  17
ATOM     17  C   UNL     1       2.046   8.151  18.654  0.00  0.00    +0.000 A 
ATOM     18  C   UNL     1       1.474   9.032  17.743  0.00  0.00    +0.000 A 
ATOM     19  C   UNL     1       0.506   9.941  18.174  0.00  0.00    +0.000 A 
ATOM     20  C   UNL     1       0.153  10.031  19.533  0.00  0.00    +0.000 A 
ATOM     21  C   UNL     1       0.764   9.182  20.468  0.00  0.00    +0.000 A 
ATOM     22  C   UNL     1       1.693   8.224  20.004  0.00  0.00    +0.000 A 
BRANCH  21  23
ATOM     23  C   UNL     1       0.504   9.237  21.955  0.00  0.00    +0.000 C 
ATOM     24  F   UNL     1       0.354  10.484  22.469  0.00  0.00    +0.000 F 
ATOM     25  F   UNL     1      -0.616   8.551  22.309  0.00  0.00    +0.000 F 
ATOM     26  F   UNL     1       1.524   8.674  22.665  0.00  0.00    +0.000 F 
ENDBRANCH  21  23
BRANCH  20  27
ATOM     27  C   UNL     1      -0.831  11.013  19.896  0.00  0.00    +0.000 C 
ATOM     28  N   UNL     1      -1.617  11.823  20.152  0.00  0.00    +0.000 NA
ENDBRANCH  20  27
ENDBRANCH   3  17
TORSDOF 6
ENDMDL
MODEL 8
REMARK VINA RESULT:      -7.5      1.627      2.200
REMARK  Name = 
REMARK  7 active torsions:
REMARK  status: ('A' for Active; 'I' for Inactive)
REMARK    1  A    between atoms: C_1  and  C_2
REMARK    2  A    between atoms: C_2  and  C_3
REMARK    3  A    between atoms: C_3  and  C_4
REMARK    4  A    between atoms: N_6  and  C_7
REMARK    5  A    between atoms: C_10  and  C_11
REMARK    6  A    between atoms: C_13  and  C_14
REMARK    7  A    between atoms: C_20  and  C_21
REMARK                            x       y       z     vdW  Elec       q    Type
REMARK                         _______ _______ _______ _____ _____    ______ ____
ROOT
ATOM      1  C   UNL     1       2.745   5.032  18.676  0.00  0.00    +0.000 C 
ATOM      2  O   UNL     1       1.675   4.992  18.068  0.00  0.00    +0.000 OA
ATOM      3  N   UNL     1       3.070   5.987  19.626  0.00  0.00    +0.000 N 
ATOM      4  H   UNL     1       4.071   6.064  19.803  0.00  0.00    +0.000 HD
ENDROOT
BRANCH   1   5
ATOM      5  C   UNL     1       3.832   3.954  18.461  0.00  0.00    +0.000 C 
ATOM      6  C   UNL     1       5.166   4.549  18.917  0.00  0.00    +0.000 C 
ATOM      7  C   UNL     1       5.919   4.594  17.624  0.00  0.00    +0.000 C 
ATOM      8  N   UNL     1       5.296   4.087  16.601  0.00  0.00    +0.000 NA
ATOM      9  N   UNL     1       4.057   3.725  17.017  0.00  0.00    +0.000 N 
ATOM     10  H   UNL     1       3.833   2.770  16.720  0.00  0.00    +0.000 HD
BRANCH   7  11
ATOM     11  C   UNL     1       7.311   5.167  17.588  0.00  0.00    +0.000 C 
ATOM     12  F   UNL     1       7.558   5.837  16.427  0.00  0.00    +0.000 F 
ATOM     13  F   UNL     1       7.537   6.056  18.592  0.00  0.00    +0.000 F 
ATOM     14  F   UNL     1       8.272   4.210  17.685  0.00  0.00    +0.000 F 
ENDBRANCH   7  11
BRANCH   5  16
ATOM     15  C   UNL     1       3.550   1.390  18.389  0.00  0.00    +0.000 C 
ATOM     16  C   UNL     1       3.479   2.665  19.229  0.00  0.00    +0.000 C 
ENDBRANCH   5  16
ENDBRANCH   1   5
BRANCH   3  17
ATOM     17  C   UNL     1       2.238   7.074  19.928  0.00  0.00    +0.000 A 
ATOM     18  C   UNL     1       1.496   7.041  21.104  0.00  0.00    +0.000 A 
ATOM     19  C   UNL     1       0.699   8.133  21.450  0.00  0.00    +0.000 A 
ATOM     20  C   UNL     1       0.578   9.240  20.590  0.00  0.00    +0.000 A 
ATOM     21  C   UNL     1       1.282   9.259  19.376  0.00  0.00    +0.000 A 
ATOM     22  C   UNL     1       2.134   8.174  19.073  0.00  0.00    +0.000 A 
BRANCH  21  23
ATOM     23  C   UNL     1       1.175  10.367  18.355  0.00  0.00    +0.000 C 
ATOM     24  F   UNL     1      -0.062  10.546  17.825  0.00  0.00    +0.000 F 
ATOM     25  F   UNL     1       1.540  11.575  18.863  0.00  0.00    +0.000 F 
ATOM     26  F   UNL     1       1.997  10.149  17.289  0.00  0.00    +0.000 F 
ENDBRANCH  21  23
BRANCH  20  27
ATOM     27  C   UNL     1      -0.285  10.311  21.010  0.00  0.00    +0.000 C 
ATOM     28  N   UNL     1      -1.002  11.167  21.313  0.00  0.00    +0.000 NA
ENDBRANCH  20  27
ENDBRANCH   3  17
TORSDOF 6
ENDMDL
MODEL 9
REMARK VINA RESULT:      -7.5      2.336      3.079
REMARK  Name = 
REMARK  7 active torsions:
REMARK  status: ('A' for Active; 'I' for Inactive)
REMARK    1  A    between atoms: C_1  and  C_2
REMARK    2  A    between atoms: C_2  and  C_3
REMARK    3  A    between atoms: C_3  and  C_4
REMARK    4  A    between atoms: N_6  and  C_7
REMARK    5  A    between atoms: C_10  and  C_11
REMARK    6  A    between atoms: C_13  and  C_14
REMARK    7  A    between atoms: C_20  and  C_21
REMARK                            x       y       z     vdW  Elec       q    Type
REMARK                         _______ _______ _______ _____ _____    ______ ____
ROOT
ATOM      1  C   UNL     1       4.315   6.523  17.646  0.00  0.00    +0.000 C 
ATOM      2  O   UNL     1       4.845   7.567  17.268  0.00  0.00    +0.000 OA
ATOM      3  N   UNL     1       3.075   6.453  18.260  0.00  0.00    +0.000 N 
ATOM      4  H   UNL     1       2.921   5.586  18.774  0.00  0.00    +0.000 HD
ENDROOT
BRANCH   1   5
ATOM      5  C   UNL     1       4.988   5.151  17.414  0.00  0.00    +0.000 C 
ATOM      6  C   UNL     1       3.965   4.071  17.774  0.00  0.00    +0.000 C 
ATOM      7  C   UNL     1       4.625   3.430  18.956  0.00  0.00    +0.000 C 
ATOM      8  N   UNL     1       5.804   3.894  19.251  0.00  0.00    +0.000 NA
ATOM      9  N   UNL     1       6.060   4.924  18.408  0.00  0.00    +0.000 N 
ATOM     10  H   UNL     1       6.989   4.832  17.985  0.00  0.00    +0.000 HD
BRANCH   7  11
ATOM     11  C   UNL     1       3.932   2.310  19.684  0.00  0.00    +0.000 C 
ATOM     12  F   UNL     1       2.648   2.630  20.010  0.00  0.00    +0.000 F 
ATOM     13  F   UNL     1       3.861   1.170  18.946  0.00  0.00    +0.000 F 
ATOM     14  F   UNL     1       4.550   1.986  20.851  0.00  0.00    +0.000 F 
ENDBRANCH   7  11
BRANCH   5  16
ATOM     15  C   UNL     1       6.973   4.744  15.817  0.00  0.00    +0.000 C 
ATOM     16  C   UNL     1       5.477   5.024  15.958  0.00  0.00    +0.000 C 
ENDBRANCH   5  16
ENDBRANCH   1   5
BRANCH   3  17
ATOM     17  C   UNL     1       2.328   7.589  18.601  0.00  0.00    +0.000 A 
ATOM     18  C   UNL     1       2.058   8.531  17.615  0.00  0.00    +0.000 A 
ATOM     19  C   UNL     1       1.274   9.646  17.920  0.00  0.00    +0.000 A 
ATOM     20  C   UNL     1       0.814   9.869  19.231  0.00  0.00    +0.000 A 
ATOM     21  C   UNL     1       1.127   8.950  20.244  0.00  0.00    +0.000 A 
ATOM     22  C   UNL     1       1.865   7.795  19.903  0.00  0.00    +0.000 A 
BRANCH  21  23
ATOM     23  C   UNL     1       0.736   9.124  21.693  0.00  0.00    +0.000 C 
ATOM     24  F   UNL     1       0.644  10.411  22.114  0.00  0.00    +0.000 F 
ATOM     25  F   UNL     1      -0.466   8.553  21.976  0.00  0.00    +0.000 F 
ATOM     26  F   UNL     1       1.635   8.532  22.530  0.00  0.00    +0.000 F 
ENDBRANCH  21  23
BRANCH  20  27
ATOM     27  C   UNL     1       0.036  11.055  19.464  0.00  0.00    +0.000 C 
ATOM     28  N   UNL     1      -0.577  12.024  19.616  0.00  0.00    +0.000 NA
ENDBRANCH  20  27
ENDBRANCH   3  17
TORSDOF 6
ENDMDL
