MODEL 1
REMARK VINA RESULT:      -7.1      0.000      0.000
REMARK  Name = 
REMARK  5 active torsions:
REMARK  status: ('A' for Active; 'I' for Inactive)
REMARK    1  A    between atoms: C_2  and  O_3
REMARK    2  A    between atoms: C_2  and  C_4
REMARK    3  A    between atoms: C_4  and  O_5
REMARK    4  A    between atoms: O_5  and  C_6
REMARK    5  A    between atoms: C_10  and  C_11
REMARK                            x       y       z     vdW  Elec       q    Type
REMARK                         _______ _______ _______ _____ _____    ______ ____
ROOT
ATOM      1  C   UNL     1       2.248   6.457  19.643  0.00  0.00    +0.000 A 
ATOM      2  C   UNL     1       3.000   7.230  18.751  0.00  0.00    +0.000 A 
ATOM      3  C   UNL     1       3.867   6.635  17.826  0.00  0.00    +0.000 A 
ATOM      4  C   UNL     1       3.957   5.235  17.783  0.00  0.00    +0.000 A 
ATOM      5  C   UNL     1       4.670   4.255  17.051  0.00  0.00    +0.000 A 
ATOM      6  N   UNL     1       4.313   3.013  17.396  0.00  0.00    +0.000 NA
ATOM      7  O   UNL     1       3.376   3.165  18.409  0.00  0.00    +0.000 OA
ATOM      8  C   UNL     1       3.161   4.490  18.641  0.00  0.00    +0.000 A 
ATOM      9  C   UNL     1       2.292   5.051  19.578  0.00  0.00    +0.000 A 
ATOM     10 CL   UNL     1       1.352   4.057  20.621  0.00  0.00    +0.000 Cl
ENDROOT
BRANCH   5  11
ATOM     11  C   UNL     1       5.668   4.543  16.026  0.00  0.00    +0.000 A 
ATOM     12  C   UNL     1       5.545   4.230  14.649  0.00  0.00    +0.000 A 
ATOM     13  C   UNL     1       6.693   4.697  14.050  0.00  0.00    +0.000 A 
ATOM     14  O   UNL     1       7.516   5.262  14.971  0.00  0.00    +0.000 OA
ATOM     15  C   UNL     1       6.892   5.155  16.172  0.00  0.00    +0.000 A 
ENDBRANCH   5  11
BRANCH   1  16
ATOM     16  O   UNL     1       1.427   7.014  20.596  0.00  0.00    +0.000 OA
BRANCH  16  17
ATOM     17  C   UNL     1       1.392   8.446  20.607  0.00  0.00    +0.000 C 
BRANCH  17  19
ATOM     18  O   UNL     1      -0.479   8.804  22.095  0.00  0.00    +0.000 OA
ATOM     19  C   UNL     1       0.718   8.930  21.876  0.00  0.00    +0.000 C 
BRANCH  19  20
ATOM     20  O   UNL     1       1.564   9.527  22.749  0.00  0.00    +0.000 OA
ATOM     21  H   UNL     1       1.082   9.796  23.562  0.00  0.00    +0.000 HD
ENDBRANCH  19  20
ENDBRANCH  17  19
ENDBRANCH  16  17
ENDBRANCH   1  16
TORSDOF 5
ENDMDL
MODEL 2
REMARK VINA RESULT:      -7.1      2.824      4.391
REMARK  Name = 
REMARK  5 active torsions:
REMARK  status: ('A' for Active; 'I' for Inactive)
REMARK    1  A    between atoms: C_2  and  O_3
REMARK    2  A    between atoms: C_2  and  C_4
REMARK    3  A    between atoms: C_4  and  O_5
REMARK    4  A    between atoms: O_5  and  C_6
REMARK    5  A    between atoms: C_10  and  C_11
REMARK                            x       y       z     vdW  Elec       q    Type
REMARK                         _______ _______ _______ _____ _____    ______ ____
ROOT
ATOM      1  C   UNL     1       5.287   5.133  17.963  0.00  0.00    +0.000 A 
ATOM      2  C   UNL     1       4.507   4.192  17.280  0.00  0.00    +0.000 A 
ATOM      3  C   UNL     1       4.782   3.848  15.950  0.00  0.00    +0.000 A 
ATOM      4  C   UNL     1       5.876   4.446  15.307  0.00  0.00    +0.000 A 
ATOM      5  C   UNL     1       6.490   4.404  14.031  0.00  0.00    +0.000 A 
ATOM      6  N   UNL     1       7.588   5.167  13.978  0.00  0.00    +0.000 NA
ATOM      7  O   UNL     1       7.684   5.765  15.227  0.00  0.00    +0.000 OA
ATOM      8  C   UNL     1       6.665   5.336  16.022  0.00  0.00    +0.000 A 
ATOM      9  C   UNL     1       6.416   5.703  17.345  0.00  0.00    +0.000 A 
ATOM     10 CL   UNL     1       7.431   6.830  18.157  0.00  0.00    +0.000 Cl
ENDROOT
BRANCH   5  11
ATOM     11  C   UNL     1       6.010   3.616  12.901  0.00  0.00    +0.000 A 
ATOM     12  C   UNL     1       4.704   3.673  12.355  0.00  0.00    +0.000 A 
ATOM     13  C   UNL     1       4.695   2.792  11.299  0.00  0.00    +0.000 A 
ATOM     14  O   UNL     1       5.905   2.188  11.170  0.00  0.00    +0.000 OA
ATOM     15  C   UNL     1       6.697   2.685  12.155  0.00  0.00    +0.000 A 
ENDBRANCH   5  11
BRANCH   1  16
ATOM     16  O   UNL     1       5.012   5.527  19.252  0.00  0.00    +0.000 OA
BRANCH  16  17
ATOM     17  C   UNL     1       3.678   5.256  19.699  0.00  0.00    +0.000 C 
BRANCH  17  19
ATOM     18  O   UNL     1       2.646   7.048  18.447  0.00  0.00    +0.000 OA
ATOM     19  C   UNL     1       2.820   6.493  19.524  0.00  0.00    +0.000 C 
BRANCH  19  20
ATOM     20  O   UNL     1       2.266   6.941  20.676  0.00  0.00    +0.000 OA
ATOM     21  H   UNL     1       1.340   7.229  20.521  0.00  0.00    +0.000 HD
ENDBRANCH  19  20
ENDBRANCH  17  19
ENDBRANCH  16  17
ENDBRANCH   1  16
TORSDOF 5
ENDMDL
MODEL 3
REMARK VINA RESULT:      -6.9      2.997      4.657
REMARK  Name = 
REMARK  5 active torsions:
REMARK  status: ('A' for Active; 'I' for Inactive)
REMARK    1  A    between atoms: C_2  and  O_3
REMARK    2  A    between atoms: C_2  and  C_4
REMARK    3  A    between atoms: C_4  and  O_5
REMARK    4  A    between atoms: O_5  and  C_6
REMARK    5  A    between atoms: C_10  and  C_11
REMARK                            x       y       z     vdW  Elec       q    Type
REMARK                         _______ _______ _______ _____ _____    ______ ____
ROOT
ATOM      1  C   UNL     1       5.374   4.935  17.924  0.00  0.00    +0.000 A 
ATOM      2  C   UNL     1       4.630   3.961  17.247  0.00  0.00    +0.000 A 
ATOM      3  C   UNL     1       4.885   3.654  15.905  0.00  0.00    +0.000 A 
ATOM      4  C   UNL     1       5.925   4.325  15.242  0.00  0.00    +0.000 A 
ATOM      5  C   UNL     1       6.504   4.338  13.949  0.00  0.00    +0.000 A 
ATOM      6  N   UNL     1       7.554   5.163  13.878  0.00  0.00    +0.000 NA
ATOM      7  O   UNL     1       7.652   5.746  15.134  0.00  0.00    +0.000 OA
ATOM      8  C   UNL     1       6.682   5.247  15.950  0.00  0.00    +0.000 A 
ATOM      9  C   UNL     1       6.451   5.579  17.285  0.00  0.00    +0.000 A 
ATOM     10 CL   UNL     1       7.424   6.749  18.088  0.00  0.00    +0.000 Cl
ENDROOT
BRANCH   5  11
ATOM     11  C   UNL     1       6.037   3.541  12.819  0.00  0.00    +0.000 A 
ATOM     12  C   UNL     1       6.836   2.659  12.050  0.00  0.00    +0.000 A 
ATOM     13  C   UNL     1       5.994   2.104  11.113  0.00  0.00    +0.000 A 
ATOM     14  O   UNL     1       4.736   2.599  11.249  0.00  0.00    +0.000 OA
ATOM     15  C   UNL     1       4.771   3.481  12.281  0.00  0.00    +0.000 A 
ENDBRANCH   5  11
BRANCH   1  16
ATOM     16  O   UNL     1       5.114   5.293  19.226  0.00  0.00    +0.000 OA
BRANCH  16  17
ATOM     17  C   UNL     1       3.798   5.804  19.466  0.00  0.00    +0.000 C 
BRANCH  17  19
ATOM     18  O   UNL     1       3.127   3.627  20.275  0.00  0.00    +0.000 OA
ATOM     19  C   UNL     1       3.032   4.844  20.355  0.00  0.00    +0.000 C 
BRANCH  19  20
ATOM     20  O   UNL     1       2.218   5.458  21.247  0.00  0.00    +0.000 OA
ATOM     21  H   UNL     1       2.153   6.417  21.047  0.00  0.00    +0.000 HD
ENDBRANCH  19  20
ENDBRANCH  17  19
ENDBRANCH  16  17
ENDBRANCH   1  16
TORSDOF 5
ENDMDL
MODEL 4
REMARK VINA RESULT:      -6.9      2.901      3.781
REMARK  Name = 
REMARK  5 active torsions:
REMARK  status: ('A' for Active; 'I' for Inactive)
REMARK    1  A    between atoms: C_2  and  O_3
REMARK    2  A    between atoms: C_2  and  C_4
REMARK    3  A    between atoms: C_4  and  O_5
REMARK    4  A    between atoms: O_5  and  C_6
REMARK    5  A    between atoms: C_10  and  C_11
REMARK                            x       y       z     vdW  Elec       q    Type
REMARK                         _______ _______ _______ _____ _____    ______ ____
ROOT
ATOM      1  C   UNL     1       2.537   4.411  18.804  0.00  0.00    +0.000 A 
ATOM      2  C   UNL     1       2.970   3.365  17.981  0.00  0.00    +0.000 A 
ATOM      3  C   UNL     1       3.864   3.592  16.926  0.00  0.00    +0.000 A 
ATOM      4  C   UNL     1       4.346   4.893  16.714  0.00  0.00    +0.000 A 
ATOM      5  C   UNL     1       5.215   5.551  15.809  0.00  0.00    +0.000 A 
ATOM      6  N   UNL     1       5.369   6.845  16.115  0.00  0.00    +0.000 NA
ATOM      7  O   UNL     1       4.553   7.065  17.216  0.00  0.00    +0.000 OA
ATOM      8  C   UNL     1       3.943   5.902  17.576  0.00  0.00    +0.000 A 
ATOM      9  C   UNL     1       3.051   5.710  18.632  0.00  0.00    +0.000 A 
ATOM     10 CL   UNL     1       2.585   7.020  19.646  0.00  0.00    +0.000 Cl
ENDROOT
BRANCH   5  11
ATOM     11  C   UNL     1       5.886   4.911  14.683  0.00  0.00    +0.000 A 
ATOM     12  C   UNL     1       5.301   3.962  13.810  0.00  0.00    +0.000 A 
ATOM     13  C   UNL     1       6.273   3.645  12.888  0.00  0.00    +0.000 A 
ATOM     14  O   UNL     1       7.419   4.326  13.148  0.00  0.00    +0.000 OA
ATOM     15  C   UNL     1       7.181   5.087  14.248  0.00  0.00    +0.000 A 
ENDBRANCH   5  11
BRANCH   1  16
ATOM     16  O   UNL     1       1.623   4.228  19.815  0.00  0.00    +0.000 OA
BRANCH  16  17
ATOM     17  C   UNL     1       1.357   2.862  20.154  0.00  0.00    +0.000 C 
BRANCH  17  19
ATOM     18  O   UNL     1       3.030   2.451  21.851  0.00  0.00    +0.000 OA
ATOM     19  C   UNL     1       1.849   2.581  21.561  0.00  0.00    +0.000 C 
BRANCH  19  20
ATOM     20  O   UNL     1       0.854   2.474  22.475  0.00  0.00    +0.000 OA
ATOM     21  H   UNL     1       1.115   2.909  23.316  0.00  0.00    +0.000 HD
ENDBRANCH  19  20
ENDBRANCH  17  19
ENDBRANCH  16  17
ENDBRANCH   1  16
TORSDOF 5
ENDMDL
MODEL 5
REMARK VINA RESULT:      -6.8      3.412      4.301
REMARK  Name = 
REMARK  5 active torsions:
REMARK  status: ('A' for Active; 'I' for Inactive)
REMARK    1  A    between atoms: C_2  and  O_3
REMARK    2  A    between atoms: C_2  and  C_4
REMARK    3  A    between atoms: C_4  and  O_5
REMARK    4  A    between atoms: O_5  and  C_6
REMARK    5  A    between atoms: C_10  and  C_11
REMARK                            x       y       z     vdW  Elec       q    Type
REMARK                         _______ _______ _______ _____ _____    ______ ____
ROOT
ATOM      1  C   UNL     1       4.623   4.122  18.729  0.00  0.00    +0.000 A 
ATOM      2  C   UNL     1       3.930   3.483  17.694  0.00  0.00    +0.000 A 
ATOM      3  C   UNL     1       4.428   3.473  16.385  0.00  0.00    +0.000 A 
ATOM      4  C   UNL     1       5.657   4.097  16.121  0.00  0.00    +0.000 A 
ATOM      5  C   UNL     1       6.495   4.326  15.002  0.00  0.00    +0.000 A 
ATOM      6  N   UNL     1       7.626   4.952  15.344  0.00  0.00    +0.000 NA
ATOM      7  O   UNL     1       7.523   5.187  16.708  0.00  0.00    +0.000 OA
ATOM      8  C   UNL     1       6.350   4.677  17.174  0.00  0.00    +0.000 A 
ATOM      9  C   UNL     1       5.880   4.709  18.488  0.00  0.00    +0.000 A 
ATOM     10 CL   UNL     1       6.791   5.465  19.736  0.00  0.00    +0.000 Cl
ENDROOT
BRANCH   5  11
ATOM     11  C   UNL     1       6.188   3.920  13.635  0.00  0.00    +0.000 A 
ATOM     12  C   UNL     1       4.908   3.546  13.156  0.00  0.00    +0.000 A 
ATOM     13  C   UNL     1       5.071   3.266  11.818  0.00  0.00    +0.000 A 
ATOM     14  O   UNL     1       6.368   3.429  11.450  0.00  0.00    +0.000 OA
ATOM     15  C   UNL     1       7.045   3.816  12.562  0.00  0.00    +0.000 A 
ENDBRANCH   5  11
BRANCH   1  16
ATOM     16  O   UNL     1       4.136   4.191  20.014  0.00  0.00    +0.000 OA
BRANCH  16  17
ATOM     17  C   UNL     1       2.716   4.342  20.118  0.00  0.00    +0.000 C 
BRANCH  17  19
ATOM     18  O   UNL     1       2.851   2.699  21.887  0.00  0.00    +0.000 OA
ATOM     19  C   UNL     1       2.162   3.308  21.080  0.00  0.00    +0.000 C 
BRANCH  19  20
ATOM     20  O   UNL     1       0.828   3.110  20.959  0.00  0.00    +0.000 OA
ATOM     21  H   UNL     1       0.529   3.341  20.053  0.00  0.00    +0.000 HD
ENDBRANCH  19  20
ENDBRANCH  17  19
ENDBRANCH  16  17
ENDBRANCH   1  16
TORSDOF 5
ENDMDL
MODEL 6
REMARK VINA RESULT:      -6.7      1.981      6.944
REMARK  Name = 
REMARK  5 active torsions:
REMARK  status: ('A' for Active; 'I' for Inactive)
REMARK    1  A    between atoms: C_2  and  O_3
REMARK    2  A    between atoms: C_2  and  C_4
REMARK    3  A    between atoms: C_4  and  O_5
REMARK    4  A    between atoms: O_5  and  C_6
REMARK    5  A    between atoms: C_10  and  C_11
REMARK                            x       y       z     vdW  Elec       q    Type
REMARK                         _______ _______ _______ _____ _____    ______ ____
ROOT
ATOM      1  C   UNL     1       4.429   5.114  17.111  0.00  0.00    +0.000 A 
ATOM      2  C   UNL     1       4.316   6.507  17.020  0.00  0.00    +0.000 A 
ATOM      3  C   UNL     1       3.531   7.232  17.925  0.00  0.00    +0.000 A 
ATOM      4  C   UNL     1       2.867   6.543  18.952  0.00  0.00    +0.000 A 
ATOM      5  C   UNL     1       2.005   6.854  20.032  0.00  0.00    +0.000 A 
ATOM      6  N   UNL     1       1.706   5.773  20.760  0.00  0.00    +0.000 NA
ATOM      7  O   UNL     1       2.343   4.713  20.130  0.00  0.00    +0.000 OA
ATOM      8  C   UNL     1       3.038   5.170  19.052  0.00  0.00    +0.000 A 
ATOM      9  C   UNL     1       3.808   4.418  18.165  0.00  0.00    +0.000 A 
ATOM     10 CL   UNL     1       3.955   2.713  18.345  0.00  0.00    +0.000 Cl
ENDROOT
BRANCH   5  11
ATOM     11  C   UNL     1       1.504   8.189  20.341  0.00  0.00    +0.000 A 
ATOM     12  C   UNL     1       1.273   8.698  21.643  0.00  0.00    +0.000 A 
ATOM     13  C   UNL     1       0.832   9.990  21.472  0.00  0.00    +0.000 A 
ATOM     14  O   UNL     1       0.763  10.301  20.152  0.00  0.00    +0.000 OA
ATOM     15  C   UNL     1       1.163   9.197  19.468  0.00  0.00    +0.000 A 
ENDBRANCH   5  11
BRANCH   1  16
ATOM     16  O   UNL     1       5.152   4.370  16.208  0.00  0.00    +0.000 OA
BRANCH  16  17
ATOM     17  C   UNL     1       5.643   5.096  15.075  0.00  0.00    +0.000 C 
BRANCH  17  19
ATOM     18  O   UNL     1       7.828   5.414  14.091  0.00  0.00    +0.000 OA
ATOM     19  C   UNL     1       7.156   5.012  15.031  0.00  0.00    +0.000 C 
BRANCH  19  20
ATOM     20  O   UNL     1       7.702   4.438  16.130  0.00  0.00    +0.000 OA
ATOM     21  H   UNL     1       7.428   4.921  16.940  0.00  0.00    +0.000 HD
ENDBRANCH  19  20
ENDBRANCH  17  19
ENDBRANCH  16  17
ENDBRANCH   1  16
TORSDOF 5
ENDMDL
MODEL 7
REMARK VINA RESULT:      -6.7      1.928      6.945
REMARK  Name = 
REMARK  5 active torsions:
REMARK  status: ('A' for Active; 'I' for Inactive)
REMARK    1  A    between atoms: C_2  and  O_3
REMARK    2  A    between atoms: C_2  and  C_4
REMARK    3  A    between atoms: C_4  and  O_5
REMARK    4  A    between atoms: O_5  and  C_6
REMARK    5  A    between atoms: C_10  and  C_11
REMARK                            x       y       z     vdW  Elec       q    Type
REMARK                         _______ _______ _______ _____ _____    ______ ____
ROOT
ATOM      1  C   UNL     1       4.527   4.789  17.261  0.00  0.00    +0.000 A 
ATOM      2  C   UNL     1       4.462   6.178  17.098  0.00  0.00    +0.000 A 
ATOM      3  C   UNL     1       3.665   6.970  17.934  0.00  0.00    +0.000 A 
ATOM      4  C   UNL     1       2.941   6.353  18.966  0.00  0.00    +0.000 A 
ATOM      5  C   UNL     1       2.048   6.742  19.994  0.00  0.00    +0.000 A 
ATOM      6  N   UNL     1       1.687   5.708  20.762  0.00  0.00    +0.000 NA
ATOM      7  O   UNL     1       2.315   4.600  20.210  0.00  0.00    +0.000 OA
ATOM      8  C   UNL     1       3.065   4.982  19.140  0.00  0.00    +0.000 A 
ATOM      9  C   UNL     1       3.845   4.164  18.322  0.00  0.00    +0.000 A 
ATOM     10 CL   UNL     1       3.931   2.467  18.592  0.00  0.00    +0.000 Cl
ENDROOT
BRANCH   5  11
ATOM     11  C   UNL     1       1.577   8.105  20.217  0.00  0.00    +0.000 A 
ATOM     12  C   UNL     1       1.353   9.073  19.207  0.00  0.00    +0.000 A 
ATOM     13  C   UNL     1       0.895  10.198  19.855  0.00  0.00    +0.000 A 
ATOM     14  O   UNL     1       0.838   9.988  21.196  0.00  0.00    +0.000 OA
ATOM     15  C   UNL     1       1.265   8.717  21.411  0.00  0.00    +0.000 A 
ENDBRANCH   5  11
BRANCH   1  16
ATOM     16  O   UNL     1       5.262   3.979  16.425  0.00  0.00    +0.000 OA
BRANCH  16  17
ATOM     17  C   UNL     1       6.633   4.357  16.263  0.00  0.00    +0.000 C 
BRANCH  17  19
ATOM     18  O   UNL     1       7.647   5.423  14.345  0.00  0.00    +0.000 OA
ATOM     19  C   UNL     1       6.945   4.525  14.789  0.00  0.00    +0.000 C 
BRANCH  19  20
ATOM     20  O   UNL     1       6.365   3.590  13.999  0.00  0.00    +0.000 OA
ATOM     21  H   UNL     1       5.621   3.983  13.494  0.00  0.00    +0.000 HD
ENDBRANCH  19  20
ENDBRANCH  17  19
ENDBRANCH  16  17
ENDBRANCH   1  16
TORSDOF 5
ENDMDL
MODEL 8
REMARK VINA RESULT:      -6.7      3.162      6.999
REMARK  Name = 
REMARK  5 active torsions:
REMARK  status: ('A' for Active; 'I' for Inactive)
REMARK    1  A    between atoms: C_2  and  O_3
REMARK    2  A    between atoms: C_2  and  C_4
REMARK    3  A    between atoms: C_4  and  O_5
REMARK    4  A    between atoms: O_5  and  C_6
REMARK    5  A    between atoms: C_10  and  C_11
REMARK                            x       y       z     vdW  Elec       q    Type
REMARK                         _______ _______ _______ _____ _____    ______ ____
ROOT
ATOM      1  C   UNL     1       3.705   5.096  18.891  0.00  0.00    +0.000 A 
ATOM      2  C   UNL     1       2.866   5.348  19.983  0.00  0.00    +0.000 A 
ATOM      3  C   UNL     1       2.149   6.547  20.087  0.00  0.00    +0.000 A 
ATOM      4  C   UNL     1       2.262   7.496  19.059  0.00  0.00    +0.000 A 
ATOM      5  C   UNL     1       1.751   8.784  18.764  0.00  0.00    +0.000 A 
ATOM      6  N   UNL     1       2.160   9.223  17.569  0.00  0.00    +0.000 NA
ATOM      7  O   UNL     1       2.997   8.232  17.076  0.00  0.00    +0.000 OA
ATOM      8  C   UNL     1       3.059   7.200  17.963  0.00  0.00    +0.000 A 
ATOM      9  C   UNL     1       3.789   6.018  17.831  0.00  0.00    +0.000 A 
ATOM     10 CL   UNL     1       4.770   5.733  16.447  0.00  0.00    +0.000 Cl
ENDROOT
BRANCH   5  11
ATOM     11  C   UNL     1       0.867   9.549  19.637  0.00  0.00    +0.000 A 
ATOM     12  C   UNL     1      -0.217  10.354  19.206  0.00  0.00    +0.000 A 
ATOM     13  C   UNL     1      -0.786  10.867  20.350  0.00  0.00    +0.000 A 
ATOM     14  O   UNL     1      -0.113  10.441  21.451  0.00  0.00    +0.000 OA
ATOM     15  C   UNL     1       0.898   9.649  21.010  0.00  0.00    +0.000 A 
ENDBRANCH   5  11
BRANCH   1  16
ATOM     16  O   UNL     1       4.459   3.950  18.786  0.00  0.00    +0.000 OA
BRANCH  16  17
ATOM     17  C   UNL     1       3.897   2.792  19.414  0.00  0.00    +0.000 C 
BRANCH  17  19
ATOM     18  O   UNL     1       2.493   2.075  17.581  0.00  0.00    +0.000 OA
ATOM     19  C   UNL     1       3.407   1.825  18.354  0.00  0.00    +0.000 C 
BRANCH  19  20
ATOM     20  O   UNL     1       4.070   0.644  18.345  0.00  0.00    +0.000 OA
ATOM     21  H   UNL     1       3.891   0.157  17.511  0.00  0.00    +0.000 HD
ENDBRANCH  19  20
ENDBRANCH  17  19
ENDBRANCH  16  17
ENDBRANCH   1  16
TORSDOF 5
ENDMDL
MODEL 9
REMARK VINA RESULT:      -6.6      1.785      1.905
REMARK  Name = 
REMARK  5 active torsions:
REMARK  status: ('A' for Active; 'I' for Inactive)
REMARK    1  A    between atoms: C_2  and  O_3
REMARK    2  A    between atoms: C_2  and  C_4
REMARK    3  A    between atoms: C_4  and  O_5
REMARK    4  A    between atoms: O_5  and  C_6
REMARK    5  A    between atoms: C_10  and  C_11
REMARK                            x       y       z     vdW  Elec       q    Type
REMARK                         _______ _______ _______ _____ _____    ______ ____
ROOT
ATOM      1  C   UNL     1       2.299   7.782  18.983  0.00  0.00    +0.000 A 
ATOM      2  C   UNL     1       2.976   8.222  17.840  0.00  0.00    +0.000 A 
ATOM      3  C   UNL     1       3.856   7.381  17.147  0.00  0.00    +0.000 A 
ATOM      4  C   UNL     1       4.037   6.066  17.602  0.00  0.00    +0.000 A 
ATOM      5  C   UNL     1       4.795   4.927  17.234  0.00  0.00    +0.000 A 
ATOM      6  N   UNL     1       4.529   3.875  18.016  0.00  0.00    +0.000 NA
ATOM      7  O   UNL     1       3.611   4.331  18.952  0.00  0.00    +0.000 OA
ATOM      8  C   UNL     1       3.314   5.637  18.706  0.00  0.00    +0.000 A 
ATOM      9  C   UNL     1       2.435   6.451  19.421  0.00  0.00    +0.000 A 
ATOM     10 CL   UNL     1       1.589   5.849  20.794  0.00  0.00    +0.000 Cl
ENDROOT
BRANCH   5  11
ATOM     11  C   UNL     1       5.744   4.880  16.128  0.00  0.00    +0.000 A 
ATOM     12  C   UNL     1       5.510   4.272  14.870  0.00  0.00    +0.000 A 
ATOM     13  C   UNL     1       6.651   4.482  14.128  0.00  0.00    +0.000 A 
ATOM     14  O   UNL     1       7.573   5.166  14.854  0.00  0.00    +0.000 OA
ATOM     15  C   UNL     1       7.020   5.396  16.073  0.00  0.00    +0.000 A 
ENDBRANCH   5  11
BRANCH   1  16
ATOM     16  O   UNL     1       1.467   8.599  19.713  0.00  0.00    +0.000 OA
BRANCH  16  17
ATOM     17  C   UNL     1       0.676   9.508  18.939  0.00  0.00    +0.000 C 
BRANCH  17  19
ATOM     18  O   UNL     1       0.957  11.481  20.308  0.00  0.00    +0.000 OA
ATOM     19  C   UNL     1       1.109  10.933  19.225  0.00  0.00    +0.000 C 
BRANCH  19  20
ATOM     20  O   UNL     1       1.676  11.555  18.163  0.00  0.00    +0.000 OA
ATOM     21  H   UNL     1       2.589  11.223  18.020  0.00  0.00    +0.000 HD
ENDBRANCH  19  20
ENDBRANCH  17  19
ENDBRANCH  16  17
ENDBRANCH   1  16
TORSDOF 5
ENDMDL
