MODEL 1
REMARK VINA RESULT:      -9.0      0.000      0.000
REMARK  Name = 
REMARK  8 active torsions:
REMARK  status: ('A' for Active; 'I' for Inactive)
REMARK    1  A    between atoms: C_1  and  N_2
REMARK    2  A    between atoms: C_4  and  C_5
REMARK    3  A    between atoms: C_5  and  N_6
REMARK    4  A    between atoms: N_6  and  C_7
REMARK    5  A    between atoms: C_7  and  C_8
REMARK    6  A    between atoms: C_8  and  C_9
REMARK    7  A    between atoms: N_11  and  C_12
REMARK    8  A    between atoms: C_16  and  C_17
REMARK                            x       y       z     vdW  Elec       q    Type
REMARK                         _______ _______ _______ _____ _____    ______ ____
ROOT
ATOM      1  C   UNL     1       4.286   5.541  17.512  0.00  0.00    +0.000 A 
ATOM      2  S   UNL     1       4.645   3.940  17.051  0.00  0.00    +0.000 S 
ATOM      3  C   UNL     1       3.314   3.336  17.913  0.00  0.00    +0.000 A 
ATOM      4  C   UNL     1       2.589   4.334  18.543  0.00  0.00    +0.000 A 
ATOM      5  C   UNL     1       3.156   5.637  18.308  0.00  0.00    +0.000 A 
ATOM      6  C   UNL     1       1.348   3.977  19.314  0.00  0.00    +0.000 C 
ATOM      7  C   UNL     1       1.282   2.458  19.592  0.00  0.00    +0.000 C 
ATOM      8  N   UNL     1       1.610   1.638  18.409  0.00  0.00    +0.000 NA
ATOM      9  C   UNL     1       3.006   1.870  17.986  0.00  0.00    +0.000 C 
ATOM     10  H   UNL     1       1.005   1.927  17.641  0.00  0.00    +0.000 HD
ENDROOT
BRANCH   5  11
ATOM     11  C   UNL     1       2.557   6.941  18.796  0.00  0.00    +0.000 A 
ATOM     12  N   UNL     1       2.228   7.119  20.058  0.00  0.00    +0.000 NA
ATOM     13  C   UNL     1       1.620   8.351  20.233  0.00  0.00    +0.000 A 
ATOM     14  C   UNL     1       1.116   8.864  21.444  0.00  0.00    +0.000 A 
ATOM     15  C   UNL     1       0.503  10.123  21.463  0.00  0.00    +0.000 A 
ATOM     16  C   UNL     1       0.388  10.872  20.295  0.00  0.00    +0.000 A 
ATOM     17  C   UNL     1       0.887  10.388  19.084  0.00  0.00    +0.000 A 
ATOM     18  C   UNL     1       1.501   9.126  19.080  0.00  0.00    +0.000 A 
ATOM     19  S   UNL     1       2.202   8.278  17.770  0.00  0.00    +0.000 S 
ENDBRANCH   5  11
BRANCH   1  22
ATOM     20  C   UNL     1       6.443   6.585  17.775  0.00  0.00    +0.000 C 
ATOM     21  O   UNL     1       6.850   5.846  18.666  0.00  0.00    +0.000 OA
ATOM     22  N   UNL     1       5.203   6.517  17.155  0.00  0.00    +0.000 N 
ATOM     23  H   UNL     1       5.211   6.774  16.174  0.00  0.00    +0.000 HD
BRANCH  20  24
ATOM     24  C   UNL     1       7.326   7.673  17.197  0.00  0.00    +0.000 C 
BRANCH  24  25
ATOM     25  C   UNL     1       8.222   8.245  18.290  0.00  0.00    +0.000 C 
BRANCH  25  26
ATOM     26  N   UNL     1       8.499   9.667  18.067  0.00  0.00    +0.000 NA
ATOM     27  H   UNL     1       9.057   9.781  17.216  0.00  0.00    +0.000 HD
BRANCH  26  28
ATOM     28  C   UNL     1       9.261  10.204  19.194  0.00  0.00    +0.000 C 
BRANCH  28  32
ATOM     29  C   UNL     1      10.282  15.084  18.602  0.00  0.00    +0.000 C 
ATOM     30  N   UNL     1      10.298  13.643  18.529  0.00  0.00    +0.000 N 
ATOM     31  C   UNL     1       9.523  12.774  19.240  0.00  0.00    +0.000 A 
ATOM     32  C   UNL     1       9.852  11.509  18.797  0.00  0.00    +0.000 A 
ATOM     33  C   UNL     1      10.856  11.738  17.830  0.00  0.00    +0.000 A 
ATOM     34  N   UNL     1      11.124  13.036  17.661  0.00  0.00    +0.000 NA
ENDBRANCH  28  32
ENDBRANCH  26  28
ENDBRANCH  25  26
ENDBRANCH  24  25
ENDBRANCH  20  24
ENDBRANCH   1  22
TORSDOF 7
ENDMDL
MODEL 2
REMARK VINA RESULT:      -8.9      1.049      1.457
REMARK  Name = 
REMARK  8 active torsions:
REMARK  status: ('A' for Active; 'I' for Inactive)
REMARK    1  A    between atoms: C_1  and  N_2
REMARK    2  A    between atoms: C_4  and  C_5
REMARK    3  A    between atoms: C_5  and  N_6
REMARK    4  A    between atoms: N_6  and  C_7
REMARK    5  A    between atoms: C_7  and  C_8
REMARK    6  A    between atoms: C_8  and  C_9
REMARK    7  A    between atoms: N_11  and  C_12
REMARK    8  A    between atoms: C_16  and  C_17
REMARK                            x       y       z     vdW  Elec       q    Type
REMARK                         _______ _______ _______ _____ _____    ______ ____
ROOT
ATOM      1  C   UNL     1       4.333   5.483  17.636  0.00  0.00    +0.000 A 
ATOM      2  S   UNL     1       4.802   3.898  17.218  0.00  0.00    +0.000 S 
ATOM      3  C   UNL     1       3.497   3.228  18.071  0.00  0.00    +0.000 A 
ATOM      4  C   UNL     1       2.698   4.191  18.666  0.00  0.00    +0.000 A 
ATOM      5  C   UNL     1       3.185   5.522  18.410  0.00  0.00    +0.000 A 
ATOM      6  C   UNL     1       1.468   3.770  19.423  0.00  0.00    +0.000 C 
ATOM      7  C   UNL     1       1.496   2.256  19.734  0.00  0.00    +0.000 C 
ATOM      8  N   UNL     1       1.898   1.434  18.576  0.00  0.00    +0.000 NA
ATOM      9  C   UNL     1       3.283   1.747  18.171  0.00  0.00    +0.000 C 
ATOM     10  H   UNL     1       1.289   1.667  17.791  0.00  0.00    +0.000 HD
ENDROOT
BRANCH   5  11
ATOM     11  C   UNL     1       2.493   6.795  18.859  0.00  0.00    +0.000 A 
ATOM     12  N   UNL     1       2.383   7.837  18.062  0.00  0.00    +0.000 NA
ATOM     13  C   UNL     1       1.797   8.900  18.730  0.00  0.00    +0.000 A 
ATOM     14  C   UNL     1       1.547  10.179  18.197  0.00  0.00    +0.000 A 
ATOM     15  C   UNL     1       0.967  11.166  19.003  0.00  0.00    +0.000 A 
ATOM     16  C   UNL     1       0.635  10.893  20.327  0.00  0.00    +0.000 A 
ATOM     17  C   UNL     1       0.865   9.629  20.876  0.00  0.00    +0.000 A 
ATOM     18  C   UNL     1       1.445   8.649  20.055  0.00  0.00    +0.000 A 
ATOM     19  S   UNL     1       1.841   7.028  20.436  0.00  0.00    +0.000 S 
ENDBRANCH   5  11
BRANCH   1  22
ATOM     20  C   UNL     1       6.443   6.627  17.862  0.00  0.00    +0.000 C 
ATOM     21  O   UNL     1       6.908   5.894  18.729  0.00  0.00    +0.000 OA
ATOM     22  N   UNL     1       5.191   6.508  17.273  0.00  0.00    +0.000 N 
ATOM     23  H   UNL     1       5.160   6.781  16.297  0.00  0.00    +0.000 HD
BRANCH  20  24
ATOM     24  C   UNL     1       7.256   7.766  17.280  0.00  0.00    +0.000 C 
BRANCH  24  25
ATOM     25  C   UNL     1       8.313   8.211  18.286  0.00  0.00    +0.000 C 
BRANCH  25  26
ATOM     26  N   UNL     1       8.581   9.648  18.182  0.00  0.00    +0.000 NA
ATOM     27  H   UNL     1       9.146   9.834  17.348  0.00  0.00    +0.000 HD
BRANCH  26  28
ATOM     28  C   UNL     1       9.327  10.098  19.356  0.00  0.00    +0.000 C 
BRANCH  28  32
ATOM     29  C   UNL     1      12.096  13.382  16.760  0.00  0.00    +0.000 C 
ATOM     30  N   UNL     1      11.529  12.564  17.803  0.00  0.00    +0.000 N 
ATOM     31  C   UNL     1      10.440  11.746  17.708  0.00  0.00    +0.000 A 
ATOM     32  C   UNL     1      10.309  11.130  18.937  0.00  0.00    +0.000 A 
ATOM     33  C   UNL     1      11.365  11.672  19.703  0.00  0.00    +0.000 A 
ATOM     34  N   UNL     1      12.112  12.539  19.013  0.00  0.00    +0.000 NA
ENDBRANCH  28  32
ENDBRANCH  26  28
ENDBRANCH  25  26
ENDBRANCH  24  25
ENDBRANCH  20  24
ENDBRANCH   1  22
TORSDOF 7
ENDMDL
MODEL 3
REMARK VINA RESULT:      -8.7      1.056      1.204
REMARK  Name = 
REMARK  8 active torsions:
REMARK  status: ('A' for Active; 'I' for Inactive)
REMARK    1  A    between atoms: C_1  and  N_2
REMARK    2  A    between atoms: C_4  and  C_5
REMARK    3  A    between atoms: C_5  and  N_6
REMARK    4  A    between atoms: N_6  and  C_7
REMARK    5  A    between atoms: C_7  and  C_8
REMARK    6  A    between atoms: C_8  and  C_9
REMARK    7  A    between atoms: N_11  and  C_12
REMARK    8  A    between atoms: C_16  and  C_17
REMARK                            x       y       z     vdW  Elec       q    Type
REMARK                         _______ _______ _______ _____ _____    ______ ____
ROOT
ATOM      1  C   UNL     1       4.540   5.431  18.221  0.00  0.00    +0.000 A 
ATOM      2  S   UNL     1       4.937   3.833  17.780  0.00  0.00    +0.000 S 
ATOM      3  C   UNL     1       3.380   3.282  18.168  0.00  0.00    +0.000 A 
ATOM      4  C   UNL     1       2.553   4.295  18.622  0.00  0.00    +0.000 A 
ATOM      5  C   UNL     1       3.231   5.566  18.653  0.00  0.00    +0.000 A 
ATOM      6  C   UNL     1       1.121   3.988  18.966  0.00  0.00    +0.000 C 
ATOM      7  C   UNL     1       0.897   2.465  19.110  0.00  0.00    +0.000 C 
ATOM      8  N   UNL     1       1.521   1.683  18.024  0.00  0.00    +0.000 NA
ATOM      9  C   UNL     1       2.989   1.839  18.048  0.00  0.00    +0.000 C 
ATOM     10  H   UNL     1       1.188   2.051  17.132  0.00  0.00    +0.000 HD
ENDROOT
BRANCH   5  11
ATOM     11  C   UNL     1       2.581   6.883  19.029  0.00  0.00    +0.000 A 
ATOM     12  N   UNL     1       2.097   7.093  20.235  0.00  0.00    +0.000 NA
ATOM     13  C   UNL     1       1.478   8.330  20.301  0.00  0.00    +0.000 A 
ATOM     14  C   UNL     1       0.829   8.875  21.426  0.00  0.00    +0.000 A 
ATOM     15  C   UNL     1       0.224  10.135  21.337  0.00  0.00    +0.000 A 
ATOM     16  C   UNL     1       0.260  10.854  20.145  0.00  0.00    +0.000 A 
ATOM     17  C   UNL     1       0.904  10.339  19.019  0.00  0.00    +0.000 A 
ATOM     18  C   UNL     1       1.508   9.075  19.123  0.00  0.00    +0.000 A 
ATOM     19  S   UNL     1       2.364   8.194  17.933  0.00  0.00    +0.000 S 
ENDBRANCH   5  11
BRANCH   1  22
ATOM     20  C   UNL     1       6.016   6.918  17.029  0.00  0.00    +0.000 C 
ATOM     21  O   UNL     1       5.588   6.671  15.906  0.00  0.00    +0.000 OA
ATOM     22  N   UNL     1       5.571   6.357  18.218  0.00  0.00    +0.000 N 
ATOM     23  H   UNL     1       5.599   6.985  19.014  0.00  0.00    +0.000 HD
BRANCH  20  24
ATOM     24  C   UNL     1       7.098   7.958  17.243  0.00  0.00    +0.000 C 
BRANCH  24  25
ATOM     25  C   UNL     1       8.112   7.445  18.259  0.00  0.00    +0.000 C 
BRANCH  25  26
ATOM     26  N   UNL     1       8.707   8.543  19.025  0.00  0.00    +0.000 NA
ATOM     27  H   UNL     1       8.145   8.725  19.862  0.00  0.00    +0.000 HD
BRANCH  26  28
ATOM     28  C   UNL     1       8.732   9.757  18.212  0.00  0.00    +0.000 C 
BRANCH  28  32
ATOM     29  C   UNL     1      10.419  14.194  19.847  0.00  0.00    +0.000 C 
ATOM     30  N   UNL     1      10.016  12.812  19.748  0.00  0.00    +0.000 N 
ATOM     31  C   UNL     1       9.414  12.204  18.685  0.00  0.00    +0.000 A 
ATOM     32  C   UNL     1       9.270  10.875  19.030  0.00  0.00    +0.000 A 
ATOM     33  C   UNL     1       9.802  10.803  20.337  0.00  0.00    +0.000 A 
ATOM     34  N   UNL     1      10.262  11.979  20.772  0.00  0.00    +0.000 NA
ENDBRANCH  28  32
ENDBRANCH  26  28
ENDBRANCH  25  26
ENDBRANCH  24  25
ENDBRANCH  20  24
ENDBRANCH   1  22
TORSDOF 7
ENDMDL
MODEL 4
REMARK VINA RESULT:      -8.6      1.235      1.608
REMARK  Name = 
REMARK  8 active torsions:
REMARK  status: ('A' for Active; 'I' for Inactive)
REMARK    1  A    between atoms: C_1  and  N_2
REMARK    2  A    between atoms: C_4  and  C_5
REMARK    3  A    between atoms: C_5  and  N_6
REMARK    4  A    between atoms: N_6  and  C_7
REMARK    5  A    between atoms: C_7  and  C_8
REMARK    6  A    between atoms: C_8  and  C_9
REMARK    7  A    between atoms: N_11  and  C_12
REMARK    8  A    between atoms: C_16  and  C_17
REMARK                            x       y       z     vdW  Elec       q    Type
REMARK                         _______ _______ _______ _____ _____    ______ ____
ROOT
ATOM      1  C   UNL     1       4.712   5.478  18.190  0.00  0.00    +0.000 A 
ATOM      2  S   UNL     1       5.171   3.883  17.801  0.00  0.00    +0.000 S 
ATOM      3  C   UNL     1       3.608   3.300  18.110  0.00  0.00    +0.000 A 
ATOM      4  C   UNL     1       2.732   4.300  18.498  0.00  0.00    +0.000 A 
ATOM      5  C   UNL     1       3.377   5.587  18.544  0.00  0.00    +0.000 A 
ATOM      6  C   UNL     1       1.291   3.962  18.766  0.00  0.00    +0.000 C 
ATOM      7  C   UNL     1       1.096   2.437  18.924  0.00  0.00    +0.000 C 
ATOM      8  N   UNL     1       1.799   1.653  17.889  0.00  0.00    +0.000 NA
ATOM      9  C   UNL     1       3.260   1.846  17.994  0.00  0.00    +0.000 C 
ATOM     10  H   UNL     1       1.509   1.998  16.974  0.00  0.00    +0.000 HD
ENDROOT
BRANCH   5  11
ATOM     11  C   UNL     1       2.676   6.893  18.860  0.00  0.00    +0.000 A 
ATOM     12  N   UNL     1       2.697   7.907  18.020  0.00  0.00    +0.000 NA
ATOM     13  C   UNL     1       2.066   9.010  18.574  0.00  0.00    +0.000 A 
ATOM     14  C   UNL     1       1.923  10.274  17.971  0.00  0.00    +0.000 A 
ATOM     15  C   UNL     1       1.279  11.306  18.664  0.00  0.00    +0.000 A 
ATOM     16  C   UNL     1       0.778  11.091  19.946  0.00  0.00    +0.000 A 
ATOM     17  C   UNL     1       0.900   9.844  20.561  0.00  0.00    +0.000 A 
ATOM     18  C   UNL     1       1.546   8.818  19.853  0.00  0.00    +0.000 A 
ATOM     19  S   UNL     1       1.842   7.204  20.335  0.00  0.00    +0.000 S 
ENDBRANCH   5  11
BRANCH   1  22
ATOM     20  C   UNL     1       6.307   6.887  17.057  0.00  0.00    +0.000 C 
ATOM     21  O   UNL     1       6.034   6.520  15.918  0.00  0.00    +0.000 OA
ATOM     22  N   UNL     1       5.719   6.429  18.228  0.00  0.00    +0.000 N 
ATOM     23  H   UNL     1       5.631   7.131  18.956  0.00  0.00    +0.000 HD
BRANCH  20  24
ATOM     24  C   UNL     1       7.334   7.974  17.305  0.00  0.00    +0.000 C 
BRANCH  24  25
ATOM     25  C   UNL     1       8.225   7.582  18.478  0.00  0.00    +0.000 C 
BRANCH  25  26
ATOM     26  N   UNL     1       8.896   8.749  19.056  0.00  0.00    +0.000 NA
ATOM     27  H   UNL     1       8.521   8.936  19.991  0.00  0.00    +0.000 HD
BRANCH  26  28
ATOM     28  C   UNL     1       8.654   9.924  18.219  0.00  0.00    +0.000 C 
BRANCH  28  32
ATOM     29  C   UNL     1      11.496  14.044  18.603  0.00  0.00    +0.000 C 
ATOM     30  N   UNL     1      10.744  12.845  18.882  0.00  0.00    +0.000 N 
ATOM     31  C   UNL     1       9.966  12.139  18.010  0.00  0.00    +0.000 A 
ATOM     32  C   UNL     1       9.494  11.047  18.710  0.00  0.00    +0.000 A 
ATOM     33  C   UNL     1      10.037  11.210  20.003  0.00  0.00    +0.000 A 
ATOM     34  N   UNL     1      10.803  12.300  20.108  0.00  0.00    +0.000 NA
ENDBRANCH  28  32
ENDBRANCH  26  28
ENDBRANCH  25  26
ENDBRANCH  24  25
ENDBRANCH  20  24
ENDBRANCH   1  22
TORSDOF 7
ENDMDL
MODEL 5
REMARK VINA RESULT:      -8.2      1.146      1.595
REMARK  Name = 
REMARK  8 active torsions:
REMARK  status: ('A' for Active; 'I' for Inactive)
REMARK    1  A    between atoms: C_1  and  N_2
REMARK    2  A    between atoms: C_4  and  C_5
REMARK    3  A    between atoms: C_5  and  N_6
REMARK    4  A    between atoms: N_6  and  C_7
REMARK    5  A    between atoms: C_7  and  C_8
REMARK    6  A    between atoms: C_8  and  C_9
REMARK    7  A    between atoms: N_11  and  C_12
REMARK    8  A    between atoms: C_16  and  C_17
REMARK                            x       y       z     vdW  Elec       q    Type
REMARK                         _______ _______ _______ _____ _____    ______ ____
ROOT
ATOM      1  C   UNL     1       4.595   5.168  18.199  0.00  0.00    +0.000 A 
ATOM      2  S   UNL     1       4.956   3.521  17.943  0.00  0.00    +0.000 S 
ATOM      3  C   UNL     1       3.412   3.046  18.461  0.00  0.00    +0.000 A 
ATOM      4  C   UNL     1       2.616   4.121  18.821  0.00  0.00    +0.000 A 
ATOM      5  C   UNL     1       3.307   5.374  18.665  0.00  0.00    +0.000 A 
ATOM      6  C   UNL     1       1.198   3.879  19.260  0.00  0.00    +0.000 C 
ATOM      7  C   UNL     1       0.965   2.390  19.601  0.00  0.00    +0.000 C 
ATOM      8  N   UNL     1       1.533   1.470  18.595  0.00  0.00    +0.000 NA
ATOM      9  C   UNL     1       3.003   1.605  18.538  0.00  0.00    +0.000 C 
ATOM     10  H   UNL     1       1.165   1.730  17.679  0.00  0.00    +0.000 HD
ENDROOT
BRANCH   5  11
ATOM     11  C   UNL     1       2.688   6.737  18.902  0.00  0.00    +0.000 A 
ATOM     12  N   UNL     1       2.751   7.691  17.996  0.00  0.00    +0.000 NA
ATOM     13  C   UNL     1       2.195   8.862  18.483  0.00  0.00    +0.000 A 
ATOM     14  C   UNL     1       2.114  10.090  17.799  0.00  0.00    +0.000 A 
ATOM     15  C   UNL     1       1.543  11.201  18.431  0.00  0.00    +0.000 A 
ATOM     16  C   UNL     1       1.054  11.102  19.731  0.00  0.00    +0.000 A 
ATOM     17  C   UNL     1       1.115   9.893  20.427  0.00  0.00    +0.000 A 
ATOM     18  C   UNL     1       1.689   8.787  19.780  0.00  0.00    +0.000 A 
ATOM     19  S   UNL     1       1.900   7.193  20.364  0.00  0.00    +0.000 S 
ENDBRANCH   5  11
BRANCH   1  22
ATOM     20  C   UNL     1       6.768   5.997  18.834  0.00  0.00    +0.000 C 
ATOM     21  O   UNL     1       6.972   5.184  19.731  0.00  0.00    +0.000 OA
ATOM     22  N   UNL     1       5.634   6.070  18.037  0.00  0.00    +0.000 N 
ATOM     23  H   UNL     1       5.811   6.369  17.084  0.00  0.00    +0.000 HD
BRANCH  20  24
ATOM     24  C   UNL     1       7.816   7.024  18.455  0.00  0.00    +0.000 C 
BRANCH  24  25
ATOM     25  C   UNL     1       7.227   8.017  17.459  0.00  0.00    +0.000 C 
BRANCH  25  26
ATOM     26  N   UNL     1       7.793   9.357  17.639  0.00  0.00    +0.000 NA
ATOM     27  H   UNL     1       8.285   9.642  16.788  0.00  0.00    +0.000 HD
BRANCH  26  28
ATOM     28  C   UNL     1       8.749   9.346  18.745  0.00  0.00    +0.000 C 
BRANCH  28  32
ATOM     29  C   UNL     1      10.378  14.046  18.070  0.00  0.00    +0.000 C 
ATOM     30  N   UNL     1      10.009  12.773  18.639  0.00  0.00    +0.000 N 
ATOM     31  C   UNL     1       9.383  11.738  18.005  0.00  0.00    +0.000 A 
ATOM     32  C   UNL     1       9.288  10.718  18.930  0.00  0.00    +0.000 A 
ATOM     33  C   UNL     1       9.872  11.261  20.097  0.00  0.00    +0.000 A 
ATOM     34  N   UNL     1      10.316  12.508  19.919  0.00  0.00    +0.000 NA
ENDBRANCH  28  32
ENDBRANCH  26  28
ENDBRANCH  25  26
ENDBRANCH  24  25
ENDBRANCH  20  24
ENDBRANCH   1  22
TORSDOF 7
ENDMDL
MODEL 6
REMARK VINA RESULT:      -8.1      1.371      1.891
REMARK  Name = 
REMARK  8 active torsions:
REMARK  status: ('A' for Active; 'I' for Inactive)
REMARK    1  A    between atoms: C_1  and  N_2
REMARK    2  A    between atoms: C_4  and  C_5
REMARK    3  A    between atoms: C_5  and  N_6
REMARK    4  A    between atoms: N_6  and  C_7
REMARK    5  A    between atoms: C_7  and  C_8
REMARK    6  A    between atoms: C_8  and  C_9
REMARK    7  A    between atoms: N_11  and  C_12
REMARK    8  A    between atoms: C_16  and  C_17
REMARK                            x       y       z     vdW  Elec       q    Type
REMARK                         _______ _______ _______ _____ _____    ______ ____
ROOT
ATOM      1  C   UNL     1       4.543   5.603  17.484  0.00  0.00    +0.000 A 
ATOM      2  S   UNL     1       5.041   4.026  17.070  0.00  0.00    +0.000 S 
ATOM      3  C   UNL     1       3.717   3.337  17.877  0.00  0.00    +0.000 A 
ATOM      4  C   UNL     1       2.890   4.287  18.453  0.00  0.00    +0.000 A 
ATOM      5  C   UNL     1       3.371   5.625  18.222  0.00  0.00    +0.000 A 
ATOM      6  C   UNL     1       1.642   3.849  19.169  0.00  0.00    +0.000 C 
ATOM      7  C   UNL     1       1.675   2.334  19.470  0.00  0.00    +0.000 C 
ATOM      8  N   UNL     1       2.120   1.524  18.319  0.00  0.00    +0.000 NA
ATOM      9  C   UNL     1       3.515   1.854  17.960  0.00  0.00    +0.000 C 
ATOM     10  H   UNL     1       1.534   1.756  17.518  0.00  0.00    +0.000 HD
ENDROOT
BRANCH   5  11
ATOM     11  C   UNL     1       2.654   6.888  18.658  0.00  0.00    +0.000 A 
ATOM     12  N   UNL     1       2.546   7.930  17.860  0.00  0.00    +0.000 NA
ATOM     13  C   UNL     1       1.933   8.984  18.517  0.00  0.00    +0.000 A 
ATOM     14  C   UNL     1       1.676  10.260  17.981  0.00  0.00    +0.000 A 
ATOM     15  C   UNL     1       1.066  11.238  18.775  0.00  0.00    +0.000 A 
ATOM     16  C   UNL     1       0.711  10.958  20.092  0.00  0.00    +0.000 A 
ATOM     17  C   UNL     1       0.947   9.698  20.644  0.00  0.00    +0.000 A 
ATOM     18  C   UNL     1       1.557   8.726  19.834  0.00  0.00    +0.000 A 
ATOM     19  S   UNL     1       1.967   7.111  20.221  0.00  0.00    +0.000 S 
ENDBRANCH   5  11
BRANCH   1  22
ATOM     20  C   UNL     1       6.655   6.736  17.747  0.00  0.00    +0.000 C 
ATOM     21  O   UNL     1       7.120   5.974  18.588  0.00  0.00    +0.000 OA
ATOM     22  N   UNL     1       5.403   6.639  17.155  0.00  0.00    +0.000 N 
ATOM     23  H   UNL     1       5.371   6.945  16.188  0.00  0.00    +0.000 HD
BRANCH  20  24
ATOM     24  C   UNL     1       7.469   7.894  17.203  0.00  0.00    +0.000 C 
BRANCH  24  25
ATOM     25  C   UNL     1       8.165   8.617  18.350  0.00  0.00    +0.000 C 
BRANCH  25  26
ATOM     26  N   UNL     1       8.394  10.030  18.033  0.00  0.00    +0.000 NA
ATOM     27  H   UNL     1       8.417  10.157  17.017  0.00  0.00    +0.000 HD
BRANCH  26  28
ATOM     28  C   UNL     1       9.680  10.458  18.582  0.00  0.00    +0.000 C 
BRANCH  28  32
ATOM     29  C   UNL     1       8.754  12.788  22.931  0.00  0.00    +0.000 C 
ATOM     30  N   UNL     1       9.025  12.490  21.546  0.00  0.00    +0.000 N 
ATOM     31  C   UNL     1       9.304  11.267  21.006  0.00  0.00    +0.000 A 
ATOM     32  C   UNL     1       9.438  11.466  19.647  0.00  0.00    +0.000 A 
ATOM     33  C   UNL     1       9.242  12.855  19.484  0.00  0.00    +0.000 A 
ATOM     34  N   UNL     1       8.984  13.478  20.638  0.00  0.00    +0.000 NA
ENDBRANCH  28  32
ENDBRANCH  26  28
ENDBRANCH  25  26
ENDBRANCH  24  25
ENDBRANCH  20  24
ENDBRANCH   1  22
TORSDOF 7
ENDMDL
MODEL 7
REMARK VINA RESULT:      -8.0      1.120      1.514
REMARK  Name = 
REMARK  8 active torsions:
REMARK  status: ('A' for Active; 'I' for Inactive)
REMARK    1  A    between atoms: C_1  and  N_2
REMARK    2  A    between atoms: C_4  and  C_5
REMARK    3  A    between atoms: C_5  and  N_6
REMARK    4  A    between atoms: N_6  and  C_7
REMARK    5  A    between atoms: C_7  and  C_8
REMARK    6  A    between atoms: C_8  and  C_9
REMARK    7  A    between atoms: N_11  and  C_12
REMARK    8  A    between atoms: C_16  and  C_17
REMARK                            x       y       z     vdW  Elec       q    Type
REMARK                         _______ _______ _______ _____ _____    ______ ____
ROOT
ATOM      1  C   UNL     1       4.583   5.710  17.426  0.00  0.00    +0.000 A 
ATOM      2  S   UNL     1       5.096   4.150  16.967  0.00  0.00    +0.000 S 
ATOM      3  C   UNL     1       3.755   3.429  17.715  0.00  0.00    +0.000 A 
ATOM      4  C   UNL     1       2.912   4.356  18.306  0.00  0.00    +0.000 A 
ATOM      5  C   UNL     1       3.394   5.702  18.136  0.00  0.00    +0.000 A 
ATOM      6  C   UNL     1       1.648   3.889  18.975  0.00  0.00    +0.000 C 
ATOM      7  C   UNL     1       1.678   2.364  19.221  0.00  0.00    +0.000 C 
ATOM      8  N   UNL     1       2.154   1.597  18.052  0.00  0.00    +0.000 NA
ATOM      9  C   UNL     1       3.556   1.943  17.739  0.00  0.00    +0.000 C 
ATOM     10  H   UNL     1       1.587   1.858  17.246  0.00  0.00    +0.000 HD
ENDROOT
BRANCH   5  11
ATOM     11  C   UNL     1       2.663   6.946  18.600  0.00  0.00    +0.000 A 
ATOM     12  N   UNL     1       2.536   8.002  17.824  0.00  0.00    +0.000 NA
ATOM     13  C   UNL     1       1.913   9.035  18.505  0.00  0.00    +0.000 A 
ATOM     14  C   UNL     1       1.636  10.318  17.996  0.00  0.00    +0.000 A 
ATOM     15  C   UNL     1       1.018  11.272  18.813  0.00  0.00    +0.000 A 
ATOM     16  C   UNL     1       0.673  10.962  20.126  0.00  0.00    +0.000 A 
ATOM     17  C   UNL     1       0.929   9.693  20.651  0.00  0.00    +0.000 A 
ATOM     18  C   UNL     1       1.548   8.746  19.819  0.00  0.00    +0.000 A 
ATOM     19  S   UNL     1       1.981   7.129  20.172  0.00  0.00    +0.000 S 
ENDBRANCH   5  11
BRANCH   1  22
ATOM     20  C   UNL     1       6.670   6.856  17.806  0.00  0.00    +0.000 C 
ATOM     21  O   UNL     1       7.104   6.081  18.653  0.00  0.00    +0.000 OA
ATOM     22  N   UNL     1       5.447   6.759  17.157  0.00  0.00    +0.000 N 
ATOM     23  H   UNL     1       5.456   7.084  16.195  0.00  0.00    +0.000 HD
BRANCH  20  24
ATOM     24  C   UNL     1       7.497   8.030  17.322  0.00  0.00    +0.000 C 
BRANCH  24  25
ATOM     25  C   UNL     1       8.292   8.615  18.484  0.00  0.00    +0.000 C 
BRANCH  25  26
ATOM     26  N   UNL     1       8.654  10.013  18.237  0.00  0.00    +0.000 NA
ATOM     27  H   UNL     1       8.803  10.160  17.234  0.00  0.00    +0.000 HD
BRANCH  26  28
ATOM     28  C   UNL     1       9.896  10.334  18.940  0.00  0.00    +0.000 C 
BRANCH  28  32
ATOM     29  C   UNL     1       8.882  15.205  19.612  0.00  0.00    +0.000 C 
ATOM     30  N   UNL     1       9.375  13.857  19.755  0.00  0.00    +0.000 N 
ATOM     31  C   UNL     1       9.059  12.777  18.981  0.00  0.00    +0.000 A 
ATOM     32  C   UNL     1       9.809  11.723  19.460  0.00  0.00    +0.000 A 
ATOM     33  C   UNL     1      10.527  12.280  20.542  0.00  0.00    +0.000 A 
ATOM     34  N   UNL     1      10.269  13.579  20.718  0.00  0.00    +0.000 NA
ENDBRANCH  28  32
ENDBRANCH  26  28
ENDBRANCH  25  26
ENDBRANCH  24  25
ENDBRANCH  20  24
ENDBRANCH   1  22
TORSDOF 7
ENDMDL
MODEL 8
REMARK VINA RESULT:      -7.9      3.473      5.366
REMARK  Name = 
REMARK  8 active torsions:
REMARK  status: ('A' for Active; 'I' for Inactive)
REMARK    1  A    between atoms: C_1  and  N_2
REMARK    2  A    between atoms: C_4  and  C_5
REMARK    3  A    between atoms: C_5  and  N_6
REMARK    4  A    between atoms: N_6  and  C_7
REMARK    5  A    between atoms: C_7  and  C_8
REMARK    6  A    between atoms: C_8  and  C_9
REMARK    7  A    between atoms: N_11  and  C_12
REMARK    8  A    between atoms: C_16  and  C_17
REMARK                            x       y       z     vdW  Elec       q    Type
REMARK                         _______ _______ _______ _____ _____    ______ ____
ROOT
ATOM      1  C   UNL     1       4.347   5.251  18.635  0.00  0.00    +0.000 A 
ATOM      2  S   UNL     1       4.634   3.570  18.610  0.00  0.00    +0.000 S 
ATOM      3  C   UNL     1       3.126   3.248  19.318  0.00  0.00    +0.000 A 
ATOM      4  C   UNL     1       2.397   4.399  19.569  0.00  0.00    +0.000 A 
ATOM      5  C   UNL     1       3.111   5.582  19.165  0.00  0.00    +0.000 A 
ATOM      6  C   UNL     1       1.015   4.290  20.152  0.00  0.00    +0.000 C 
ATOM      7  C   UNL     1       0.766   2.882  20.738  0.00  0.00    +0.000 C 
ATOM      8  N   UNL     1       1.217   1.795  19.846  0.00  0.00    +0.000 NA
ATOM      9  C   UNL     1       2.680   1.855  19.650  0.00  0.00    +0.000 C 
ATOM     10  H   UNL     1       0.780   1.928  18.933  0.00  0.00    +0.000 HD
ENDROOT
BRANCH   5  11
ATOM     11  C   UNL     1       2.557   6.992  19.235  0.00  0.00    +0.000 A 
ATOM     12  N   UNL     1       2.020   7.467  20.339  0.00  0.00    +0.000 NA
ATOM     13  C   UNL     1       1.508   8.736  20.124  0.00  0.00    +0.000 A 
ATOM     14  C   UNL     1       0.841   9.535  21.073  0.00  0.00    +0.000 A 
ATOM     15  C   UNL     1       0.355  10.794  20.702  0.00  0.00    +0.000 A 
ATOM     16  C   UNL     1       0.527  11.264  19.403  0.00  0.00    +0.000 A 
ATOM     17  C   UNL     1       1.192  10.495  18.447  0.00  0.00    +0.000 A 
ATOM     18  C   UNL     1       1.676   9.234  18.833  0.00  0.00    +0.000 A 
ATOM     19  S   UNL     1       2.524   8.078  17.899  0.00  0.00    +0.000 S 
ENDBRANCH   5  11
BRANCH   1  22
ATOM     20  C   UNL     1       6.639   5.963  18.859  0.00  0.00    +0.000 C 
ATOM     21  O   UNL     1       6.940   5.186  19.760  0.00  0.00    +0.000 OA
ATOM     22  N   UNL     1       5.396   6.071  18.252  0.00  0.00    +0.000 N 
ATOM     23  H   UNL     1       5.430   6.308  17.266  0.00  0.00    +0.000 HD
BRANCH  20  24
ATOM     24  C   UNL     1       7.669   6.896  18.253  0.00  0.00    +0.000 C 
BRANCH  24  25
ATOM     25  C   UNL     1       7.347   7.132  16.781  0.00  0.00    +0.000 C 
BRANCH  25  26
ATOM     26  N   UNL     1       7.475   5.899  15.999  0.00  0.00    +0.000 NA
ATOM     27  H   UNL     1       8.103   6.057  15.206  0.00  0.00    +0.000 HD
BRANCH  26  28
ATOM     28  C   UNL     1       6.166   5.503  15.481  0.00  0.00    +0.000 C 
BRANCH  28  32
ATOM     29  C   UNL     1       5.822   2.359  11.583  0.00  0.00    +0.000 C 
ATOM     30  N   UNL     1       6.212   3.415  12.484  0.00  0.00    +0.000 N 
ATOM     31  C   UNL     1       5.596   3.774  13.649  0.00  0.00    +0.000 A 
ATOM     32  C   UNL     1       6.354   4.793  14.189  0.00  0.00    +0.000 A 
ATOM     33  C   UNL     1       7.393   4.981  13.251  0.00  0.00    +0.000 A 
ATOM     34  N   UNL     1       7.312   4.139  12.216  0.00  0.00    +0.000 NA
ENDBRANCH  28  32
ENDBRANCH  26  28
ENDBRANCH  25  26
ENDBRANCH  24  25
ENDBRANCH  20  24
ENDBRANCH   1  22
TORSDOF 7
ENDMDL
MODEL 9
REMARK VINA RESULT:      -7.7      1.144      1.219
REMARK  Name = 
REMARK  8 active torsions:
REMARK  status: ('A' for Active; 'I' for Inactive)
REMARK    1  A    between atoms: C_1  and  N_2
REMARK    2  A    between atoms: C_4  and  C_5
REMARK    3  A    between atoms: C_5  and  N_6
REMARK    4  A    between atoms: N_6  and  C_7
REMARK    5  A    between atoms: C_7  and  C_8
REMARK    6  A    between atoms: C_8  and  C_9
REMARK    7  A    between atoms: N_11  and  C_12
REMARK    8  A    between atoms: C_16  and  C_17
REMARK                            x       y       z     vdW  Elec       q    Type
REMARK                         _______ _______ _______ _____ _____    ______ ____
ROOT
ATOM      1  C   UNL     1       4.875   4.986  18.786  0.00  0.00    +0.000 A 
ATOM      2  S   UNL     1       5.171   3.315  18.623  0.00  0.00    +0.000 S 
ATOM      3  C   UNL     1       3.511   2.968  18.591  0.00  0.00    +0.000 A 
ATOM      4  C   UNL     1       2.726   4.105  18.695  0.00  0.00    +0.000 A 
ATOM      5  C   UNL     1       3.526   5.298  18.807  0.00  0.00    +0.000 A 
ATOM      6  C   UNL     1       1.228   3.981  18.636  0.00  0.00    +0.000 C 
ATOM      7  C   UNL     1       0.782   2.516  18.844  0.00  0.00    +0.000 C 
ATOM      8  N   UNL     1       1.577   1.551  18.058  0.00  0.00    +0.000 NA
ATOM      9  C   UNL     1       2.989   1.566  18.492  0.00  0.00    +0.000 C 
ATOM     10  H   UNL     1       1.554   1.838  17.080  0.00  0.00    +0.000 HD
ENDROOT
BRANCH   5  11
ATOM     11  C   UNL     1       2.970   6.707  18.860  0.00  0.00    +0.000 A 
ATOM     12  N   UNL     1       2.252   7.127  19.880  0.00  0.00    +0.000 NA
ATOM     13  C   UNL     1       1.787   8.412  19.652  0.00  0.00    +0.000 A 
ATOM     14  C   UNL     1       0.968   9.165  20.515  0.00  0.00    +0.000 A 
ATOM     15  C   UNL     1       0.556  10.449  20.138  0.00  0.00    +0.000 A 
ATOM     16  C   UNL     1       0.950  10.987  18.916  0.00  0.00    +0.000 A 
ATOM     17  C   UNL     1       1.768  10.264  18.046  0.00  0.00    +0.000 A 
ATOM     18  C   UNL     1       2.176   8.979  18.439  0.00  0.00    +0.000 A 
ATOM     19  S   UNL     1       3.169   7.866  17.601  0.00  0.00    +0.000 S 
ENDBRANCH   5  11
BRANCH   1  22
ATOM     20  C   UNL     1       6.754   6.233  17.933  0.00  0.00    +0.000 C 
ATOM     21  O   UNL     1       6.581   5.955  16.750  0.00  0.00    +0.000 OA
ATOM     22  N   UNL     1       5.976   5.801  18.998  0.00  0.00    +0.000 N 
ATOM     23  H   UNL     1       5.884   6.475  19.751  0.00  0.00    +0.000 HD
BRANCH  20  24
ATOM     24  C   UNL     1       7.864   7.170  18.364  0.00  0.00    +0.000 C 
BRANCH  24  25
ATOM     25  C   UNL     1       7.728   8.501  17.634  0.00  0.00    +0.000 C 
BRANCH  25  26
ATOM     26  N   UNL     1       8.824   9.413  17.972  0.00  0.00    +0.000 NA
ATOM     27  H   UNL     1       9.364   9.030  18.753  0.00  0.00    +0.000 HD
BRANCH  26  28
ATOM     28  C   UNL     1       8.281  10.710  18.377  0.00  0.00    +0.000 C 
BRANCH  28  32
ATOM     29  C   UNL     1      12.333  13.484  19.419  0.00  0.00    +0.000 C 
ATOM     30  N   UNL     1      11.143  12.938  18.815  0.00  0.00    +0.000 N 
ATOM     31  C   UNL     1      10.475  11.806  19.187  0.00  0.00    +0.000 A 
ATOM     32  C   UNL     1       9.374  11.716  18.359  0.00  0.00    +0.000 A 
ATOM     33  C   UNL     1       9.493  12.840  17.511  0.00  0.00    +0.000 A 
ATOM     34  N   UNL     1      10.564  13.587  17.792  0.00  0.00    +0.000 NA
ENDBRANCH  28  32
ENDBRANCH  26  28
ENDBRANCH  25  26
ENDBRANCH  24  25
ENDBRANCH  20  24
ENDBRANCH   1  22
TORSDOF 7
ENDMDL
