MODEL 1
REMARK VINA RESULT:      -8.0      0.000      0.000
REMARK  Name = 
REMARK  7 active torsions:
REMARK  status: ('A' for Active; 'I' for Inactive)
REMARK    1  A    between atoms: C_1  and  O_2
REMARK    2  A    between atoms: O_2  and  C_3
REMARK    3  A    between atoms: C_6  and  N_7
REMARK    4  A    between atoms: C_8  and  C_10
REMARK    5  A    between atoms: C_10  and  O_11
REMARK    6  A    between atoms: O_11  and  C_12
REMARK    7  A    between atoms: C_15  and  C_16
REMARK                            x       y       z     vdW  Elec       q    Type
REMARK                         _______ _______ _______ _____ _____    ______ ____
ROOT
ATOM      1  C   UNL     1       8.213   7.602  18.304  0.00  0.00    +0.000 C 
ENDROOT
BRANCH   1   3
ATOM      2  N   UNL     1       9.282   9.485  19.438  0.00  0.00    +0.000 N 
ATOM      3  C   UNL     1       8.436   9.110  18.404  0.00  0.00    +0.000 C 
ATOM      4  O   UNL     1       7.875   9.858  17.602  0.00  0.00    +0.000 OA
ATOM      5  H   UNL     1       9.657   8.714  19.986  0.00  0.00    +0.000 HD
BRANCH   2   9
ATOM      6  C   UNL     1      10.485  13.404  20.467  0.00  0.00    +0.000 A 
ATOM      7  C   UNL     1       9.671  12.676  21.328  0.00  0.00    +0.000 A 
ATOM      8  C   UNL     1       9.272  11.379  21.005  0.00  0.00    +0.000 A 
ATOM      9  C   UNL     1       9.665  10.791  19.805  0.00  0.00    +0.000 A 
ATOM     10  C   UNL     1      10.472  11.529  18.928  0.00  0.00    +0.000 A 
ATOM     11  C   UNL     1      10.881  12.835  19.257  0.00  0.00    +0.000 A 
BRANCH   6  13
ATOM     12  C   UNL     1      11.202  15.581  19.899  0.00  0.00    +0.000 C 
ATOM     13  O   UNL     1      10.789  14.663  20.901  0.00  0.00    +0.000 OA
ENDBRANCH   6  13
ENDBRANCH   2   9
ENDBRANCH   1   3
BRANCH   1  14
ATOM     14  O   UNL     1       7.358   7.341  17.202  0.00  0.00    +0.000 OA
BRANCH  14  15
ATOM     15  C   UNL     1       6.199   6.681  17.463  0.00  0.00    +0.000 A 
ATOM     16  C   UNL     1       6.305   5.758  18.496  0.00  0.00    +0.000 A 
ATOM     17  C   UNL     1       5.190   5.046  18.920  0.00  0.00    +0.000 A 
ATOM     18  C   UNL     1       3.925   5.251  18.351  0.00  0.00    +0.000 A 
ATOM     19  C   UNL     1       3.837   6.192  17.304  0.00  0.00    +0.000 A 
ATOM     20  C   UNL     1       4.966   6.896  16.854  0.00  0.00    +0.000 A 
BRANCH  18  21
ATOM     21  C   UNL     1       2.755   4.483  18.836  0.00  0.00    +0.000 A 
ATOM     22  C   UNL     1       2.227   4.706  20.125  0.00  0.00    +0.000 A 
ATOM     23  C   UNL     1       1.197   3.919  20.643  0.00  0.00    +0.000 A 
ATOM     24  C   UNL     1       0.645   2.904  19.871  0.00  0.00    +0.000 A 
ATOM     25  C   UNL     1       1.115   2.690  18.577  0.00  0.00    +0.000 A 
ATOM     26  C   UNL     1       2.159   3.469  18.068  0.00  0.00    +0.000 A 
ENDBRANCH  18  21
ENDBRANCH  14  15
ENDBRANCH   1  14
TORSDOF 6
ENDMDL
MODEL 2
REMARK VINA RESULT:      -7.8      5.718      7.980
REMARK  Name = 
REMARK  7 active torsions:
REMARK  status: ('A' for Active; 'I' for Inactive)
REMARK    1  A    between atoms: C_1  and  O_2
REMARK    2  A    between atoms: O_2  and  C_3
REMARK    3  A    between atoms: C_6  and  N_7
REMARK    4  A    between atoms: C_8  and  C_10
REMARK    5  A    between atoms: C_10  and  O_11
REMARK    6  A    between atoms: O_11  and  C_12
REMARK    7  A    between atoms: C_15  and  C_16
REMARK                            x       y       z     vdW  Elec       q    Type
REMARK                         _______ _______ _______ _____ _____    ______ ____
ROOT
ATOM      1  C   UNL     1       3.283   4.800  19.950  0.00  0.00    +0.000 C 
ENDROOT
BRANCH   1   3
ATOM      2  N   UNL     1       2.381   7.057  20.200  0.00  0.00    +0.000 N 
ATOM      3  C   UNL     1       2.099   5.702  20.295  0.00  0.00    +0.000 C 
ATOM      4  O   UNL     1       1.027   5.193  20.626  0.00  0.00    +0.000 OA
ATOM      5  H   UNL     1       3.327   7.279  19.898  0.00  0.00    +0.000 HD
BRANCH   2   9
ATOM      6  C   UNL     1      -0.189  10.330  20.942  0.00  0.00    +0.000 A 
ATOM      7  C   UNL     1       0.018   9.369  21.926  0.00  0.00    +0.000 A 
ATOM      8  C   UNL     1       0.869   8.288  21.697  0.00  0.00    +0.000 A 
ATOM      9  C   UNL     1       1.516   8.137  20.473  0.00  0.00    +0.000 A 
ATOM     10  C   UNL     1       1.296   9.096  19.474  0.00  0.00    +0.000 A 
ATOM     11  C   UNL     1       0.444  10.191  19.707  0.00  0.00    +0.000 A 
BRANCH   6  13
ATOM     12  C   UNL     1      -0.808  11.948  22.547  0.00  0.00    +0.000 C 
ATOM     13  O   UNL     1      -1.055  11.327  21.294  0.00  0.00    +0.000 OA
ENDBRANCH   6  13
ENDBRANCH   2   9
ENDBRANCH   1   3
BRANCH   1  14
ATOM     14  O   UNL     1       4.385   5.616  19.585  0.00  0.00    +0.000 OA
BRANCH  14  15
ATOM     15  C   UNL     1       4.845   5.500  18.312  0.00  0.00    +0.000 A 
ATOM     16  C   UNL     1       4.995   4.184  17.893  0.00  0.00    +0.000 A 
ATOM     17  C   UNL     1       5.401   3.902  16.595  0.00  0.00    +0.000 A 
ATOM     18  C   UNL     1       5.641   4.919  15.660  0.00  0.00    +0.000 A 
ATOM     19  C   UNL     1       5.483   6.249  16.104  0.00  0.00    +0.000 A 
ATOM     20  C   UNL     1       5.097   6.541  17.422  0.00  0.00    +0.000 A 
BRANCH  18  21
ATOM     21  C   UNL     1       6.060   4.582  14.280  0.00  0.00    +0.000 A 
ATOM     22  C   UNL     1       5.335   3.648  13.511  0.00  0.00    +0.000 A 
ATOM     23  C   UNL     1       5.774   3.233  12.253  0.00  0.00    +0.000 A 
ATOM     24  C   UNL     1       6.939   3.768  11.715  0.00  0.00    +0.000 A 
ATOM     25  C   UNL     1       7.651   4.727  12.431  0.00  0.00    +0.000 A 
ATOM     26  C   UNL     1       7.218   5.126  13.699  0.00  0.00    +0.000 A 
ENDBRANCH  18  21
ENDBRANCH  14  15
ENDBRANCH   1  14
TORSDOF 6
ENDMDL
MODEL 3
REMARK VINA RESULT:      -7.7      0.929      1.052
REMARK  Name = 
REMARK  7 active torsions:
REMARK  status: ('A' for Active; 'I' for Inactive)
REMARK    1  A    between atoms: C_1  and  O_2
REMARK    2  A    between atoms: O_2  and  C_3
REMARK    3  A    between atoms: C_6  and  N_7
REMARK    4  A    between atoms: C_8  and  C_10
REMARK    5  A    between atoms: C_10  and  O_11
REMARK    6  A    between atoms: O_11  and  C_12
REMARK    7  A    between atoms: C_15  and  C_16
REMARK                            x       y       z     vdW  Elec       q    Type
REMARK                         _______ _______ _______ _____ _____    ______ ____
ROOT
ATOM      1  C   UNL     1       8.358   8.014  18.497  0.00  0.00    +0.000 C 
ENDROOT
BRANCH   1   3
ATOM      2  N   UNL     1       9.496   9.903  19.551  0.00  0.00    +0.000 N 
ATOM      3  C   UNL     1       8.632   9.517  18.536  0.00  0.00    +0.000 C 
ATOM      4  O   UNL     1       8.090  10.251  17.709  0.00  0.00    +0.000 OA
ATOM      5  H   UNL     1       9.848   9.142  20.127  0.00  0.00    +0.000 HD
BRANCH   2   9
ATOM      6  C   UNL     1      10.847  13.810  20.431  0.00  0.00    +0.000 A 
ATOM      7  C   UNL     1       9.826  13.239  21.184  0.00  0.00    +0.000 A 
ATOM      8  C   UNL     1       9.376  11.949  20.909  0.00  0.00    +0.000 A 
ATOM      9  C   UNL     1       9.925  11.210  19.864  0.00  0.00    +0.000 A 
ATOM     10  C   UNL     1      10.943  11.789  19.093  0.00  0.00    +0.000 A 
ATOM     11  C   UNL     1      11.403  13.088  19.375  0.00  0.00    +0.000 A 
BRANCH   6  13
ATOM     12  C   UNL     1      11.160  16.053  19.763  0.00  0.00    +0.000 C 
ATOM     13  O   UNL     1      11.182  15.083  20.799  0.00  0.00    +0.000 OA
ENDBRANCH   6  13
ENDBRANCH   2   9
ENDBRANCH   1   3
BRANCH   1  14
ATOM     14  O   UNL     1       7.732   7.698  17.263  0.00  0.00    +0.000 OA
BRANCH  14  15
ATOM     15  C   UNL     1       6.685   6.833  17.306  0.00  0.00    +0.000 A 
ATOM     16  C   UNL     1       6.771   5.908  18.338  0.00  0.00    +0.000 A 
ATOM     17  C   UNL     1       5.747   4.992  18.549  0.00  0.00    +0.000 A 
ATOM     18  C   UNL     1       4.588   4.989  17.759  0.00  0.00    +0.000 A 
ATOM     19  C   UNL     1       4.519   5.936  16.716  0.00  0.00    +0.000 A 
ATOM     20  C   UNL     1       5.563   6.847  16.483  0.00  0.00    +0.000 A 
BRANCH  18  21
ATOM     21  C   UNL     1       3.510   4.008  18.020  0.00  0.00    +0.000 A 
ATOM     22  C   UNL     1       2.156   4.401  18.009  0.00  0.00    +0.000 A 
ATOM     23  C   UNL     1       1.131   3.520  18.361  0.00  0.00    +0.000 A 
ATOM     24  C   UNL     1       1.434   2.208  18.704  0.00  0.00    +0.000 A 
ATOM     25  C   UNL     1       2.759   1.778  18.679  0.00  0.00    +0.000 A 
ATOM     26  C   UNL     1       3.783   2.668  18.344  0.00  0.00    +0.000 A 
ENDBRANCH  18  21
ENDBRANCH  14  15
ENDBRANCH   1  14
TORSDOF 6
ENDMDL
MODEL 4
REMARK VINA RESULT:      -7.7      0.630      1.068
REMARK  Name = 
REMARK  7 active torsions:
REMARK  status: ('A' for Active; 'I' for Inactive)
REMARK    1  A    between atoms: C_1  and  O_2
REMARK    2  A    between atoms: O_2  and  C_3
REMARK    3  A    between atoms: C_6  and  N_7
REMARK    4  A    between atoms: C_8  and  C_10
REMARK    5  A    between atoms: C_10  and  O_11
REMARK    6  A    between atoms: O_11  and  C_12
REMARK    7  A    between atoms: C_15  and  C_16
REMARK                            x       y       z     vdW  Elec       q    Type
REMARK                         _______ _______ _______ _____ _____    ______ ____
ROOT
ATOM      1  C   UNL     1       8.235   7.495  18.579  0.00  0.00    +0.000 C 
ENDROOT
BRANCH   1   3
ATOM      2  N   UNL     1       9.341   9.571  19.241  0.00  0.00    +0.000 N 
ATOM      3  C   UNL     1       8.416   8.998  18.379  0.00  0.00    +0.000 C 
ATOM      4  O   UNL     1       7.759   9.577  17.513  0.00  0.00    +0.000 OA
ATOM      5  H   UNL     1       9.790   8.920  19.881  0.00  0.00    +0.000 HD
BRANCH   2   9
ATOM      6  C   UNL     1      10.459  13.633  19.580  0.00  0.00    +0.000 A 
ATOM      7  C   UNL     1      10.104  13.108  18.342  0.00  0.00    +0.000 A 
ATOM      8  C   UNL     1       9.726  11.772  18.216  0.00  0.00    +0.000 A 
ATOM      9  C   UNL     1       9.713  10.928  19.324  0.00  0.00    +0.000 A 
ATOM     10  C   UNL     1      10.086  11.451  20.571  0.00  0.00    +0.000 A 
ATOM     11  C   UNL     1      10.460  12.801  20.699  0.00  0.00    +0.000 A 
BRANCH   6  13
ATOM     12  C   UNL     1      10.504  15.699  20.722  0.00  0.00    +0.000 C 
ATOM     13  O   UNL     1      10.819  14.951  19.557  0.00  0.00    +0.000 OA
ENDBRANCH   6  13
ENDBRANCH   2   9
ENDBRANCH   1   3
BRANCH   1  14
ATOM     14  O   UNL     1       7.563   6.964  17.447  0.00  0.00    +0.000 OA
BRANCH  14  15
ATOM     15  C   UNL     1       6.378   6.336  17.671  0.00  0.00    +0.000 A 
ATOM     16  C   UNL     1       6.376   5.547  18.814  0.00  0.00    +0.000 A 
ATOM     17  C   UNL     1       5.219   4.886  19.209  0.00  0.00    +0.000 A 
ATOM     18  C   UNL     1       4.017   5.015  18.498  0.00  0.00    +0.000 A 
ATOM     19  C   UNL     1       4.040   5.822  17.340  0.00  0.00    +0.000 A 
ATOM     20  C   UNL     1       5.213   6.471  16.922  0.00  0.00    +0.000 A 
BRANCH  18  21
ATOM     21  C   UNL     1       2.799   4.308  18.955  0.00  0.00    +0.000 A 
ATOM     22  C   UNL     1       2.381   4.380  20.300  0.00  0.00    +0.000 A 
ATOM     23  C   UNL     1       1.302   3.634  20.776  0.00  0.00    +0.000 A 
ATOM     24  C   UNL     1       0.590   2.815  19.908  0.00  0.00    +0.000 A 
ATOM     25  C   UNL     1       0.950   2.758  18.564  0.00  0.00    +0.000 A 
ATOM     26  C   UNL     1       2.043   3.494  18.095  0.00  0.00    +0.000 A 
ENDBRANCH  18  21
ENDBRANCH  14  15
ENDBRANCH   1  14
TORSDOF 6
ENDMDL
MODEL 5
REMARK VINA RESULT:      -7.6      0.466      1.413
REMARK  Name = 
REMARK  7 active torsions:
REMARK  status: ('A' for Active; 'I' for Inactive)
REMARK    1  A    between atoms: C_1  and  O_2
REMARK    2  A    between atoms: O_2  and  C_3
REMARK    3  A    between atoms: C_6  and  N_7
REMARK    4  A    between atoms: C_8  and  C_10
REMARK    5  A    between atoms: C_10  and  O_11
REMARK    6  A    between atoms: O_11  and  C_12
REMARK    7  A    between atoms: C_15  and  C_16
REMARK                            x       y       z     vdW  Elec       q    Type
REMARK                         _______ _______ _______ _____ _____    ______ ____
ROOT
ATOM      1  C   UNL     1       8.210   7.708  18.020  0.00  0.00    +0.000 C 
ENDROOT
BRANCH   1   3
ATOM      2  N   UNL     1       9.298   9.525  19.240  0.00  0.00    +0.000 N 
ATOM      3  C   UNL     1       8.372   9.208  18.257  0.00  0.00    +0.000 C 
ATOM      4  O   UNL     1       7.698  10.000  17.596  0.00  0.00    +0.000 OA
ATOM      5  H   UNL     1       9.762   8.725  19.665  0.00  0.00    +0.000 HD
BRANCH   2   9
ATOM      6  C   UNL     1      10.315  13.357  20.704  0.00  0.00    +0.000 A 
ATOM      7  C   UNL     1      10.748  12.954  19.445  0.00  0.00    +0.000 A 
ATOM      8  C   UNL     1      10.413  11.696  18.946  0.00  0.00    +0.000 A 
ATOM      9  C   UNL     1       9.655  10.807  19.705  0.00  0.00    +0.000 A 
ATOM     10  C   UNL     1       9.231  11.205  20.981  0.00  0.00    +0.000 A 
ATOM     11  C   UNL     1       9.561  12.478  21.481  0.00  0.00    +0.000 A 
BRANCH   6  13
ATOM     12  C   UNL     1       9.840  15.670  20.746  0.00  0.00    +0.000 C 
ATOM     13  O   UNL     1      10.724  14.608  21.073  0.00  0.00    +0.000 OA
ENDBRANCH   6  13
ENDBRANCH   2   9
ENDBRANCH   1   3
BRANCH   1  14
ATOM     14  O   UNL     1       7.076   7.497  17.193  0.00  0.00    +0.000 OA
BRANCH  14  15
ATOM     15  C   UNL     1       6.114   6.661  17.665  0.00  0.00    +0.000 A 
ATOM     16  C   UNL     1       4.823   7.080  17.374  0.00  0.00    +0.000 A 
ATOM     17  C   UNL     1       3.732   6.301  17.740  0.00  0.00    +0.000 A 
ATOM     18  C   UNL     1       3.892   5.063  18.379  0.00  0.00    +0.000 A 
ATOM     19  C   UNL     1       5.212   4.655  18.667  0.00  0.00    +0.000 A 
ATOM     20  C   UNL     1       6.316   5.450  18.322  0.00  0.00    +0.000 A 
BRANCH  18  21
ATOM     21  C   UNL     1       2.708   4.251  18.743  0.00  0.00    +0.000 A 
ATOM     22  C   UNL     1       1.878   4.624  19.822  0.00  0.00    +0.000 A 
ATOM     23  C   UNL     1       0.824   3.816  20.251  0.00  0.00    +0.000 A 
ATOM     24  C   UNL     1       0.552   2.624  19.591  0.00  0.00    +0.000 A 
ATOM     25  C   UNL     1       1.325   2.252  18.494  0.00  0.00    +0.000 A 
ATOM     26  C   UNL     1       2.391   3.055  18.078  0.00  0.00    +0.000 A 
ENDBRANCH  18  21
ENDBRANCH  14  15
ENDBRANCH   1  14
TORSDOF 6
ENDMDL
MODEL 6
REMARK VINA RESULT:      -7.6      5.844      7.761
REMARK  Name = 
REMARK  7 active torsions:
REMARK  status: ('A' for Active; 'I' for Inactive)
REMARK    1  A    between atoms: C_1  and  O_2
REMARK    2  A    between atoms: O_2  and  C_3
REMARK    3  A    between atoms: C_6  and  N_7
REMARK    4  A    between atoms: C_8  and  C_10
REMARK    5  A    between atoms: C_10  and  O_11
REMARK    6  A    between atoms: O_11  and  C_12
REMARK    7  A    between atoms: C_15  and  C_16
REMARK                            x       y       z     vdW  Elec       q    Type
REMARK                         _______ _______ _______ _____ _____    ______ ____
ROOT
ATOM      1  C   UNL     1       3.170   3.939  19.719  0.00  0.00    +0.000 C 
ENDROOT
BRANCH   1   3
ATOM      2  N   UNL     1       2.658   6.310  19.426  0.00  0.00    +0.000 N 
ATOM      3  C   UNL     1       2.264   5.127  20.035  0.00  0.00    +0.000 C 
ATOM      4  O   UNL     1       1.293   4.967  20.777  0.00  0.00    +0.000 OA
ATOM      5  H   UNL     1       3.484   6.235  18.838  0.00  0.00    +0.000 HD
BRANCH   2   9
ATOM      6  C   UNL     1       0.864  10.129  19.673  0.00  0.00    +0.000 A 
ATOM      7  C   UNL     1       0.897   9.300  20.790  0.00  0.00    +0.000 A 
ATOM      8  C   UNL     1       1.491   8.041  20.725  0.00  0.00    +0.000 A 
ATOM      9  C   UNL     1       2.050   7.577  19.536  0.00  0.00    +0.000 A 
ATOM     10  C   UNL     1       2.004   8.404  18.405  0.00  0.00    +0.000 A 
ATOM     11  C   UNL     1       1.411   9.679  18.472  0.00  0.00    +0.000 A 
BRANCH   6  13
ATOM     12  C   UNL     1       0.987  12.303  20.588  0.00  0.00    +0.000 C 
ATOM     13  O   UNL     1       0.241  11.329  19.873  0.00  0.00    +0.000 OA
ENDBRANCH   6  13
ENDBRANCH   2   9
ENDBRANCH   1   3
BRANCH   1  14
ATOM     14  O   UNL     1       4.514   4.393  19.668  0.00  0.00    +0.000 OA
BRANCH  14  15
ATOM     15  C   UNL     1       5.112   4.418  18.448  0.00  0.00    +0.000 A 
ATOM     16  C   UNL     1       4.316   3.910  17.429  0.00  0.00    +0.000 A 
ATOM     17  C   UNL     1       4.765   3.921  16.115  0.00  0.00    +0.000 A 
ATOM     18  C   UNL     1       6.008   4.467  15.765  0.00  0.00    +0.000 A 
ATOM     19  C   UNL     1       6.802   4.979  16.814  0.00  0.00    +0.000 A 
ATOM     20  C   UNL     1       6.364   4.947  18.147  0.00  0.00    +0.000 A 
BRANCH  18  21
ATOM     21  C   UNL     1       6.450   4.475  14.351  0.00  0.00    +0.000 A 
ATOM     22  C   UNL     1       5.858   3.616  13.403  0.00  0.00    +0.000 A 
ATOM     23  C   UNL     1       6.333   3.527  12.093  0.00  0.00    +0.000 A 
ATOM     24  C   UNL     1       7.398   4.322  11.689  0.00  0.00    +0.000 A 
ATOM     25  C   UNL     1       7.974   5.214  12.590  0.00  0.00    +0.000 A 
ATOM     26  C   UNL     1       7.506   5.287  13.906  0.00  0.00    +0.000 A 
ENDBRANCH  18  21
ENDBRANCH  14  15
ENDBRANCH   1  14
TORSDOF 6
ENDMDL
MODEL 7
REMARK VINA RESULT:      -7.6      0.689      1.156
REMARK  Name = 
REMARK  7 active torsions:
REMARK  status: ('A' for Active; 'I' for Inactive)
REMARK    1  A    between atoms: C_1  and  O_2
REMARK    2  A    between atoms: O_2  and  C_3
REMARK    3  A    between atoms: C_6  and  N_7
REMARK    4  A    between atoms: C_8  and  C_10
REMARK    5  A    between atoms: C_10  and  O_11
REMARK    6  A    between atoms: O_11  and  C_12
REMARK    7  A    between atoms: C_15  and  C_16
REMARK                            x       y       z     vdW  Elec       q    Type
REMARK                         _______ _______ _______ _____ _____    ______ ____
ROOT
ATOM      1  C   UNL     1       8.228   8.014  18.377  0.00  0.00    +0.000 C 
ENDROOT
BRANCH   1   3
ATOM      2  N   UNL     1       9.556   9.859  19.274  0.00  0.00    +0.000 N 
ATOM      3  C   UNL     1       8.537   9.510  18.400  0.00  0.00    +0.000 C 
ATOM      4  O   UNL     1       7.889  10.271  17.680  0.00  0.00    +0.000 OA
ATOM      5  H   UNL     1       9.978   9.080  19.774  0.00  0.00    +0.000 HD
BRANCH   2   9
ATOM      6  C   UNL     1      11.105  13.724  19.997  0.00  0.00    +0.000 A 
ATOM      7  C   UNL     1      10.292  13.111  20.944  0.00  0.00    +0.000 A 
ATOM      8  C   UNL     1       9.780  11.833  20.722  0.00  0.00    +0.000 A 
ATOM      9  C   UNL     1      10.056  11.150  19.540  0.00  0.00    +0.000 A 
ATOM     10  C   UNL     1      10.863  11.773  18.576  0.00  0.00    +0.000 A 
ATOM     11  C   UNL     1      11.387  13.060  18.804  0.00  0.00    +0.000 A 
BRANCH   6  13
ATOM     12  C   UNL     1      10.720  15.670  21.279  0.00  0.00    +0.000 C 
ATOM     13  O   UNL     1      11.527  14.979  20.337  0.00  0.00    +0.000 OA
ENDBRANCH   6  13
ENDBRANCH   2   9
ENDBRANCH   1   3
BRANCH   1  14
ATOM     14  O   UNL     1       7.451   7.727  17.224  0.00  0.00    +0.000 OA
BRANCH  14  15
ATOM     15  C   UNL     1       6.368   6.923  17.394  0.00  0.00    +0.000 A 
ATOM     16  C   UNL     1       6.551   5.942  18.360  0.00  0.00    +0.000 A 
ATOM     17  C   UNL     1       5.513   5.079  18.689  0.00  0.00    +0.000 A 
ATOM     18  C   UNL     1       4.250   5.184  18.092  0.00  0.00    +0.000 A 
ATOM     19  C   UNL     1       4.084   6.187  17.113  0.00  0.00    +0.000 A 
ATOM     20  C   UNL     1       5.136   7.046  16.758  0.00  0.00    +0.000 A 
BRANCH  18  21
ATOM     21  C   UNL     1       3.162   4.255  18.476  0.00  0.00    +0.000 A 
ATOM     22  C   UNL     1       3.043   2.988  17.870  0.00  0.00    +0.000 A 
ATOM     23  C   UNL     1       1.964   2.143  18.135  0.00  0.00    +0.000 A 
ATOM     24  C   UNL     1       0.987   2.534  19.042  0.00  0.00    +0.000 A 
ATOM     25  C   UNL     1       1.100   3.761  19.692  0.00  0.00    +0.000 A 
ATOM     26  C   UNL     1       2.173   4.611  19.410  0.00  0.00    +0.000 A 
ENDBRANCH  18  21
ENDBRANCH  14  15
ENDBRANCH   1  14
TORSDOF 6
ENDMDL
MODEL 8
REMARK VINA RESULT:      -7.6      5.859      7.823
REMARK  Name = 
REMARK  7 active torsions:
REMARK  status: ('A' for Active; 'I' for Inactive)
REMARK    1  A    between atoms: C_1  and  O_2
REMARK    2  A    between atoms: O_2  and  C_3
REMARK    3  A    between atoms: C_6  and  N_7
REMARK    4  A    between atoms: C_8  and  C_10
REMARK    5  A    between atoms: C_10  and  O_11
REMARK    6  A    between atoms: O_11  and  C_12
REMARK    7  A    between atoms: C_15  and  C_16
REMARK                            x       y       z     vdW  Elec       q    Type
REMARK                         _______ _______ _______ _____ _____    ______ ____
ROOT
ATOM      1  C   UNL     1       3.316   4.277  20.314  0.00  0.00    +0.000 C 
ENDROOT
BRANCH   1   3
ATOM      2  N   UNL     1       2.619   6.614  20.165  0.00  0.00    +0.000 N 
ATOM      3  C   UNL     1       2.184   5.301  20.273  0.00  0.00    +0.000 C 
ATOM      4  O   UNL     1       1.016   4.914  20.342  0.00  0.00    +0.000 OA
ATOM      5  H   UNL     1       3.629   6.728  20.110  0.00  0.00    +0.000 HD
BRANCH   2   9
ATOM      6  C   UNL     1       0.284  10.132  19.972  0.00  0.00    +0.000 A 
ATOM      7  C   UNL     1       0.343   9.398  21.152  0.00  0.00    +0.000 A 
ATOM      8  C   UNL     1       1.116   8.241  21.233  0.00  0.00    +0.000 A 
ATOM      9  C   UNL     1       1.829   7.782  20.128  0.00  0.00    +0.000 A 
ATOM     10  C   UNL     1       1.757   8.510  18.932  0.00  0.00    +0.000 A 
ATOM     11  C   UNL     1       0.985   9.683  18.853  0.00  0.00    +0.000 A 
BRANCH   6  13
ATOM     12  C   UNL     1       0.143  12.488  19.931  0.00  0.00    +0.000 C 
ATOM     13  O   UNL     1      -0.519  11.236  20.028  0.00  0.00    +0.000 OA
ENDBRANCH   6  13
ENDBRANCH   2   9
ENDBRANCH   1   3
BRANCH   1  14
ATOM     14  O   UNL     1       4.504   4.894  19.843  0.00  0.00    +0.000 OA
BRANCH  14  15
ATOM     15  C   UNL     1       4.811   4.721  18.530  0.00  0.00    +0.000 A 
ATOM     16  C   UNL     1       5.879   5.499  18.102  0.00  0.00    +0.000 A 
ATOM     17  C   UNL     1       6.349   5.391  16.799  0.00  0.00    +0.000 A 
ATOM     18  C   UNL     1       5.793   4.482  15.888  0.00  0.00    +0.000 A 
ATOM     19  C   UNL     1       4.709   3.701  16.341  0.00  0.00    +0.000 A 
ATOM     20  C   UNL     1       4.213   3.824  17.649  0.00  0.00    +0.000 A 
BRANCH  18  21
ATOM     21  C   UNL     1       6.328   4.384  14.510  0.00  0.00    +0.000 A 
ATOM     22  C   UNL     1       7.383   5.215  14.082  0.00  0.00    +0.000 A 
ATOM     23  C   UNL     1       7.828   5.217  12.758  0.00  0.00    +0.000 A 
ATOM     24  C   UNL     1       7.245   4.361  11.832  0.00  0.00    +0.000 A 
ATOM     25  C   UNL     1       6.232   3.495  12.236  0.00  0.00    +0.000 A 
ATOM     26  C   UNL     1       5.778   3.509  13.558  0.00  0.00    +0.000 A 
ENDBRANCH  18  21
ENDBRANCH  14  15
ENDBRANCH   1  14
TORSDOF 6
ENDMDL
MODEL 9
REMARK VINA RESULT:      -7.5      5.787      8.019
REMARK  Name = 
REMARK  7 active torsions:
REMARK  status: ('A' for Active; 'I' for Inactive)
REMARK    1  A    between atoms: C_1  and  O_2
REMARK    2  A    between atoms: O_2  and  C_3
REMARK    3  A    between atoms: C_6  and  N_7
REMARK    4  A    between atoms: C_8  and  C_10
REMARK    5  A    between atoms: C_10  and  O_11
REMARK    6  A    between atoms: O_11  and  C_12
REMARK    7  A    between atoms: C_15  and  C_16
REMARK                            x       y       z     vdW  Elec       q    Type
REMARK                         _______ _______ _______ _____ _____    ______ ____
ROOT
ATOM      1  C   UNL     1       3.436   4.520  20.273  0.00  0.00    +0.000 C 
ENDROOT
BRANCH   1   3
ATOM      2  N   UNL     1       2.647   6.825  20.083  0.00  0.00    +0.000 N 
ATOM      3  C   UNL     1       2.353   5.496  19.817  0.00  0.00    +0.000 C 
ATOM      4  O   UNL     1       1.336   5.060  19.274  0.00  0.00    +0.000 OA
ATOM      5  H   UNL     1       3.547   6.984  20.530  0.00  0.00    +0.000 HD
BRANCH   2   9
ATOM      6  C   UNL     1       0.216  10.203  19.345  0.00  0.00    +0.000 A 
ATOM      7  C   UNL     1       1.003   9.675  18.327  0.00  0.00    +0.000 A 
ATOM      8  C   UNL     1       1.804   8.557  18.554  0.00  0.00    +0.000 A 
ATOM      9  C   UNL     1       1.848   7.955  19.810  0.00  0.00    +0.000 A 
ATOM     10  C   UNL     1       1.068   8.495  20.842  0.00  0.00    +0.000 A 
ATOM     11  C   UNL     1       0.253   9.619  20.611  0.00  0.00    +0.000 A 
BRANCH   6  13
ATOM     12  C   UNL     1      -1.535  11.089  18.031  0.00  0.00    +0.000 C 
ATOM     13  O   UNL     1      -0.510  11.305  18.989  0.00  0.00    +0.000 OA
ENDBRANCH   6  13
ENDBRANCH   2   9
ENDBRANCH   1   3
BRANCH   1  14
ATOM     14  O   UNL     1       4.691   4.977  19.792  0.00  0.00    +0.000 OA
BRANCH  14  15
ATOM     15  C   UNL     1       4.952   4.789  18.471  0.00  0.00    +0.000 A 
ATOM     16  C   UNL     1       5.816   5.734  17.935  0.00  0.00    +0.000 A 
ATOM     17  C   UNL     1       6.224   5.642  16.610  0.00  0.00    +0.000 A 
ATOM     18  C   UNL     1       5.812   4.587  15.784  0.00  0.00    +0.000 A 
ATOM     19  C   UNL     1       4.934   3.636  16.347  0.00  0.00    +0.000 A 
ATOM     20  C   UNL     1       4.498   3.739  17.677  0.00  0.00    +0.000 A 
BRANCH  18  21
ATOM     21  C   UNL     1       6.278   4.512  14.380  0.00  0.00    +0.000 A 
ATOM     22  C   UNL     1       5.673   3.627  13.463  0.00  0.00    +0.000 A 
ATOM     23  C   UNL     1       6.167   3.460  12.168  0.00  0.00    +0.000 A 
ATOM     24  C   UNL     1       7.265   4.199  11.745  0.00  0.00    +0.000 A 
ATOM     25  C   UNL     1       7.855   5.115  12.613  0.00  0.00    +0.000 A 
ATOM     26  C   UNL     1       7.368   5.267  13.915  0.00  0.00    +0.000 A 
ENDBRANCH  18  21
ENDBRANCH  14  15
ENDBRANCH   1  14
TORSDOF 6
ENDMDL
