MODEL 1
REMARK VINA RESULT:      -7.0      0.000      0.000
REMARK  Name = 
REMARK  9 active torsions:
REMARK  status: ('A' for Active; 'I' for Inactive)
REMARK    1  A    between atoms: C_1  and  C_2
REMARK    2  A    between atoms: C_2  and  C_3
REMARK    3  A    between atoms: C_2  and  C_4
REMARK    4  A    between atoms: C_2  and  O_5
REMARK    5  A    between atoms: O_5  and  C_6
REMARK    6  A    between atoms: C_6  and  C_8
REMARK    7  A    between atoms: C_11  and  N_12
REMARK    8  A    between atoms: N_12  and  C_13
REMARK    9  A    between atoms: C_13  and  C_14
REMARK                            x       y       z     vdW  Elec       q    Type
REMARK                         _______ _______ _______ _____ _____    ______ ____
ROOT
ATOM      1  C   UNL     1       2.283   7.539  19.069  0.00  0.00    +0.000 A 
ATOM      2  C   UNL     1       1.797   7.733  20.365  0.00  0.00    +0.000 A 
ATOM      3  C   UNL     1       1.027   8.851  20.679  0.00  0.00    +0.000 A 
ATOM      4  C   UNL     1       0.755   9.827  19.718  0.00  0.00    +0.000 A 
ATOM      5  C   UNL     1       1.199   9.597  18.403  0.00  0.00    +0.000 A 
ATOM      6  C   UNL     1       1.973   8.472  18.079  0.00  0.00    +0.000 A 
ENDROOT
BRANCH   1   7
ATOM      7  C   UNL     1       3.081   6.311  18.847  0.00  0.00    +0.000 C 
ATOM      8  O   UNL     1       3.933   6.274  17.974  0.00  0.00    +0.000 OA
BRANCH   7   9
ATOM      9  O   UNL     1       2.767   5.303  19.702  0.00  0.00    +0.000 OA
BRANCH   9  11
ATOM     10  C   UNL     1       3.238   2.978  19.048  0.00  0.00    +0.000 C 
ATOM     11  C   UNL     1       2.189   4.096  19.128  0.00  0.00    +0.000 C 
ATOM     12  C   UNL     1       1.541   4.388  17.765  0.00  0.00    +0.000 C 
ATOM     13  C   UNL     1       1.086   3.629  20.094  0.00  0.00    +0.000 C 
ENDBRANCH   9  11
ENDBRANCH   7   9
ENDBRANCH   1   7
BRANCH   4  14
ATOM     14  N   UNL     1      -0.046  10.954  19.998  0.00  0.00    +0.000 N 
ATOM     15  H   UNL     1      -0.805  10.685  20.622  0.00  0.00    +0.000 HD
BRANCH  14  16
ATOM     16  C   UNL     1      -0.550  11.670  18.820  0.00  0.00    +0.000 C 
BRANCH  16  17
ATOM     17  C   UNL     1      -2.040  11.826  18.927  0.00  0.00    +0.000 C 
ATOM     18  C   UNL     1      -2.947  11.272  18.100  0.00  0.00    +0.000 C 
ATOM     19 BR   UNL     1      -2.490  10.277  16.572  0.00  0.00    +0.000 Br
ATOM     20  C   UNL     1      -4.412  11.425  18.356  0.00  0.00    +0.000 C 
ATOM     21  O   UNL     1      -5.275  10.816  17.735  0.00  0.00    +0.000 OA
ATOM     22  C   UNL     1      -4.823  12.353  19.423  0.00  0.00    +0.000 C 
ATOM     23  C   UNL     1      -3.925  12.902  20.239  0.00  0.00    +0.000 C 
ATOM     24  C   UNL     1      -2.490  12.609  20.106  0.00  0.00    +0.000 C 
ATOM     25  O   UNL     1      -1.709  13.036  20.948  0.00  0.00    +0.000 OA
ENDBRANCH  16  17
ENDBRANCH  14  16
ENDBRANCH   4  14
TORSDOF 6
ENDMDL
MODEL 2
REMARK VINA RESULT:      -7.0      0.418      1.001
REMARK  Name = 
REMARK  9 active torsions:
REMARK  status: ('A' for Active; 'I' for Inactive)
REMARK    1  A    between atoms: C_1  and  C_2
REMARK    2  A    between atoms: C_2  and  C_3
REMARK    3  A    between atoms: C_2  and  C_4
REMARK    4  A    between atoms: C_2  and  O_5
REMARK    5  A    between atoms: O_5  and  C_6
REMARK    6  A    between atoms: C_6  and  C_8
REMARK    7  A    between atoms: C_11  and  N_12
REMARK    8  A    between atoms: N_12  and  C_13
REMARK    9  A    between atoms: C_13  and  C_14
REMARK                            x       y       z     vdW  Elec       q    Type
REMARK                         _______ _______ _______ _____ _____    ______ ____
ROOT
ATOM      1  C   UNL     1       2.510   7.229  18.768  0.00  0.00    +0.000 A 
ATOM      2  C   UNL     1       2.045   7.358  20.080  0.00  0.00    +0.000 A 
ATOM      3  C   UNL     1       1.276   8.457  20.460  0.00  0.00    +0.000 A 
ATOM      4  C   UNL     1       0.985   9.477  19.551  0.00  0.00    +0.000 A 
ATOM      5  C   UNL     1       1.409   9.311  18.219  0.00  0.00    +0.000 A 
ATOM      6  C   UNL     1       2.181   8.206  17.829  0.00  0.00    +0.000 A 
ENDROOT
BRANCH   1   7
ATOM      7  C   UNL     1       3.309   6.015  18.475  0.00  0.00    +0.000 C 
ATOM      8  O   UNL     1       4.079   5.993  17.529  0.00  0.00    +0.000 OA
BRANCH   7   9
ATOM      9  O   UNL     1       3.092   5.003  19.355  0.00  0.00    +0.000 OA
BRANCH   9  11
ATOM     10  C   UNL     1       1.475   4.299  17.637  0.00  0.00    +0.000 C 
ATOM     11  C   UNL     1       2.223   3.917  18.922  0.00  0.00    +0.000 C 
ATOM     12  C   UNL     1       1.268   3.492  20.049  0.00  0.00    +0.000 C 
ATOM     13  C   UNL     1       3.136   2.723  18.591  0.00  0.00    +0.000 C 
ENDBRANCH   9  11
ENDBRANCH   7   9
ENDBRANCH   1   7
BRANCH   4  14
ATOM     14  N   UNL     1       0.185  10.586  19.898  0.00  0.00    +0.000 N 
ATOM     15  H   UNL     1      -0.592  10.275  20.479  0.00  0.00    +0.000 HD
BRANCH  14  16
ATOM     16  C   UNL     1      -0.282  11.396  18.767  0.00  0.00    +0.000 C 
BRANCH  16  17
ATOM     17  C   UNL     1      -1.747  11.687  18.929  0.00  0.00    +0.000 C 
ATOM     18  C   UNL     1      -2.736  11.177  18.170  0.00  0.00    +0.000 C 
ATOM     19 BR   UNL     1      -2.438  10.076  16.675  0.00  0.00    +0.000 Br
ATOM     20  C   UNL     1      -4.169  11.470  18.480  0.00  0.00    +0.000 C 
ATOM     21  O   UNL     1      -5.109  10.911  17.928  0.00  0.00    +0.000 OA
ATOM     22  C   UNL     1      -4.448  12.479  19.516  0.00  0.00    +0.000 C 
ATOM     23  C   UNL     1      -3.469  12.984  20.265  0.00  0.00    +0.000 C 
ATOM     24  C   UNL     1      -2.073  12.560  20.086  0.00  0.00    +0.000 C 
ATOM     25  O   UNL     1      -1.218  12.955  20.871  0.00  0.00    +0.000 OA
ENDBRANCH  16  17
ENDBRANCH  14  16
ENDBRANCH   4  14
TORSDOF 6
ENDMDL
MODEL 3
REMARK VINA RESULT:      -7.0      2.681      3.818
REMARK  Name = 
REMARK  9 active torsions:
REMARK  status: ('A' for Active; 'I' for Inactive)
REMARK    1  A    between atoms: C_1  and  C_2
REMARK    2  A    between atoms: C_2  and  C_3
REMARK    3  A    between atoms: C_2  and  C_4
REMARK    4  A    between atoms: C_2  and  O_5
REMARK    5  A    between atoms: O_5  and  C_6
REMARK    6  A    between atoms: C_6  and  C_8
REMARK    7  A    between atoms: C_11  and  N_12
REMARK    8  A    between atoms: N_12  and  C_13
REMARK    9  A    between atoms: C_13  and  C_14
REMARK                            x       y       z     vdW  Elec       q    Type
REMARK                         _______ _______ _______ _____ _____    ______ ____
ROOT
ATOM      1  C   UNL     1       3.080   5.670  18.392  0.00  0.00    +0.000 A 
ATOM      2  C   UNL     1       2.538   5.077  19.536  0.00  0.00    +0.000 A 
ATOM      3  C   UNL     1       1.836   5.836  20.470  0.00  0.00    +0.000 A 
ATOM      4  C   UNL     1       1.691   7.216  20.308  0.00  0.00    +0.000 A 
ATOM      5  C   UNL     1       2.189   7.795  19.126  0.00  0.00    +0.000 A 
ATOM      6  C   UNL     1       2.895   7.036  18.181  0.00  0.00    +0.000 A 
ENDROOT
BRANCH   1   7
ATOM      7  C   UNL     1       3.796   4.764  17.463  0.00  0.00    +0.000 C 
ATOM      8  O   UNL     1       3.562   3.566  17.461  0.00  0.00    +0.000 OA
BRANCH   7   9
ATOM      9  O   UNL     1       4.680   5.409  16.658  0.00  0.00    +0.000 OA
BRANCH   9  11
ATOM     10  C   UNL     1       6.934   4.703  15.964  0.00  0.00    +0.000 C 
ATOM     11  C   UNL     1       6.083   5.381  17.047  0.00  0.00    +0.000 C 
ATOM     12  C   UNL     1       6.260   4.722  18.425  0.00  0.00    +0.000 C 
ATOM     13  C   UNL     1       6.545   6.845  17.152  0.00  0.00    +0.000 C 
ENDBRANCH   9  11
ENDBRANCH   7   9
ENDBRANCH   1   7
BRANCH   4  14
ATOM     14  N   UNL     1       0.960   8.006  21.221  0.00  0.00    +0.000 N 
ATOM     15  H   UNL     1      -0.031   7.958  20.993  0.00  0.00    +0.000 HD
BRANCH  14  16
ATOM     16  C   UNL     1       1.415   9.396  21.346  0.00  0.00    +0.000 C 
BRANCH  16  17
ATOM     17  C   UNL     1       0.226  10.301  21.494  0.00  0.00    +0.000 C 
ATOM     18  C   UNL     1      -0.386  10.961  20.492  0.00  0.00    +0.000 C 
ATOM     19 BR   UNL     1       0.222  10.946  18.713  0.00  0.00    +0.000 Br
ATOM     20  C   UNL     1      -1.619  11.767  20.747  0.00  0.00    +0.000 C 
ATOM     21  O   UNL     1      -2.305  12.255  19.856  0.00  0.00    +0.000 OA
ATOM     22  C   UNL     1      -2.022  11.970  22.149  0.00  0.00    +0.000 C 
ATOM     23  C   UNL     1      -1.415  11.319  23.139  0.00  0.00    +0.000 C 
ATOM     24  C   UNL     1      -0.316  10.378  22.875  0.00  0.00    +0.000 C 
ATOM     25  O   UNL     1       0.138   9.709  23.796  0.00  0.00    +0.000 OA
ENDBRANCH  16  17
ENDBRANCH  14  16
ENDBRANCH   4  14
TORSDOF 6
ENDMDL
MODEL 4
REMARK VINA RESULT:      -6.9      2.843      8.302
REMARK  Name = 
REMARK  9 active torsions:
REMARK  status: ('A' for Active; 'I' for Inactive)
REMARK    1  A    between atoms: C_1  and  C_2
REMARK    2  A    between atoms: C_2  and  C_3
REMARK    3  A    between atoms: C_2  and  C_4
REMARK    4  A    between atoms: C_2  and  O_5
REMARK    5  A    between atoms: O_5  and  C_6
REMARK    6  A    between atoms: C_6  and  C_8
REMARK    7  A    between atoms: C_11  and  N_12
REMARK    8  A    between atoms: N_12  and  C_13
REMARK    9  A    between atoms: C_13  and  C_14
REMARK                            x       y       z     vdW  Elec       q    Type
REMARK                         _______ _______ _______ _____ _____    ______ ____
ROOT
ATOM      1  C   UNL     1      -0.446  10.354  19.110  0.00  0.00    +0.000 A 
ATOM      2  C   UNL     1       0.341   9.875  18.059  0.00  0.00    +0.000 A 
ATOM      3  C   UNL     1       1.321   8.910  18.282  0.00  0.00    +0.000 A 
ATOM      4  C   UNL     1       1.570   8.425  19.568  0.00  0.00    +0.000 A 
ATOM      5  C   UNL     1       0.735   8.869  20.610  0.00  0.00    +0.000 A 
ATOM      6  C   UNL     1      -0.255   9.839  20.392  0.00  0.00    +0.000 A 
ENDROOT
BRANCH   1   7
ATOM      7  C   UNL     1      -1.463  11.370  18.754  0.00  0.00    +0.000 C 
ATOM      8  O   UNL     1      -1.948  12.090  19.613  0.00  0.00    +0.000 OA
BRANCH   7   9
ATOM      9  O   UNL     1      -1.752  11.401  17.427  0.00  0.00    +0.000 OA
BRANCH   9  11
ATOM     10  C   UNL     1      -4.175  11.758  17.175  0.00  0.00    +0.000 C 
ATOM     11  C   UNL     1      -3.001  10.784  17.001  0.00  0.00    +0.000 C 
ATOM     12  C   UNL     1      -3.235   9.452  17.730  0.00  0.00    +0.000 C 
ATOM     13  C   UNL     1      -2.861  10.490  15.497  0.00  0.00    +0.000 C 
ENDBRANCH   9  11
ENDBRANCH   7   9
ENDBRANCH   1   7
BRANCH   4  14
ATOM     14  N   UNL     1       2.534   7.427  19.821  0.00  0.00    +0.000 N 
ATOM     15  H   UNL     1       3.442   7.863  19.971  0.00  0.00    +0.000 HD
BRANCH  14  16
ATOM     16  C   UNL     1       2.611   6.364  18.812  0.00  0.00    +0.000 C 
BRANCH  16  17
ATOM     17  C   UNL     1       2.802   5.039  19.493  0.00  0.00    +0.000 C 
ATOM     18  C   UNL     1       3.876   4.237  19.361  0.00  0.00    +0.000 C 
ATOM     19 BR   UNL     1       5.303   4.595  18.190  0.00  0.00    +0.000 Br
ATOM     20  C   UNL     1       3.996   2.978  20.158  0.00  0.00    +0.000 C 
ATOM     21  O   UNL     1       5.013   2.296  20.198  0.00  0.00    +0.000 OA
ATOM     22  C   UNL     1       2.822   2.554  20.941  0.00  0.00    +0.000 C 
ATOM     23  C   UNL     1       1.760   3.347  21.069  0.00  0.00    +0.000 C 
ATOM     24  C   UNL     1       1.713   4.672  20.434  0.00  0.00    +0.000 C 
ATOM     25  O   UNL     1       0.772   5.420  20.672  0.00  0.00    +0.000 OA
ENDBRANCH  16  17
ENDBRANCH  14  16
ENDBRANCH   4  14
TORSDOF 6
ENDMDL
MODEL 5
REMARK VINA RESULT:      -6.9      3.847      9.100
REMARK  Name = 
REMARK  9 active torsions:
REMARK  status: ('A' for Active; 'I' for Inactive)
REMARK    1  A    between atoms: C_1  and  C_2
REMARK    2  A    between atoms: C_2  and  C_3
REMARK    3  A    between atoms: C_2  and  C_4
REMARK    4  A    between atoms: C_2  and  O_5
REMARK    5  A    between atoms: O_5  and  C_6
REMARK    6  A    between atoms: C_6  and  C_8
REMARK    7  A    between atoms: C_11  and  N_12
REMARK    8  A    between atoms: N_12  and  C_13
REMARK    9  A    between atoms: C_13  and  C_14
REMARK                            x       y       z     vdW  Elec       q    Type
REMARK                         _______ _______ _______ _____ _____    ______ ____
ROOT
ATOM      1  C   UNL     1       1.385   9.102  19.192  0.00  0.00    +0.000 A 
ATOM      2  C   UNL     1       2.082   8.690  18.052  0.00  0.00    +0.000 A 
ATOM      3  C   UNL     1       2.784   7.487  18.040  0.00  0.00    +0.000 A 
ATOM      4  C   UNL     1       2.845   6.680  19.179  0.00  0.00    +0.000 A 
ATOM      5  C   UNL     1       2.094   7.073  20.303  0.00  0.00    +0.000 A 
ATOM      6  C   UNL     1       1.383   8.282  20.321  0.00  0.00    +0.000 A 
ENDROOT
BRANCH   1   7
ATOM      7  C   UNL     1       0.666  10.392  19.087  0.00  0.00    +0.000 C 
ATOM      8  O   UNL     1      -0.284  10.513  18.330  0.00  0.00    +0.000 OA
BRANCH   7   9
ATOM      9  O   UNL     1       1.164  11.355  19.906  0.00  0.00    +0.000 OA
BRANCH   9  11
ATOM     10  C   UNL     1       0.344  13.436  18.880  0.00  0.00    +0.000 C 
ATOM     11  C   UNL     1       1.571  12.610  19.291  0.00  0.00    +0.000 C 
ATOM     12  C   UNL     1       2.530  12.364  18.115  0.00  0.00    +0.000 C 
ATOM     13  C   UNL     1       2.328  13.408  20.368  0.00  0.00    +0.000 C 
ENDBRANCH   9  11
ENDBRANCH   7   9
ENDBRANCH   1   7
BRANCH   4  14
ATOM     14  N   UNL     1       3.523   5.443  19.189  0.00  0.00    +0.000 N 
ATOM     15  H   UNL     1       3.226   4.900  19.998  0.00  0.00    +0.000 HD
BRANCH  14  16
ATOM     16  C   UNL     1       4.986   5.532  19.109  0.00  0.00    +0.000 C 
BRANCH  16  17
ATOM     17  C   UNL     1       5.439   5.124  17.737  0.00  0.00    +0.000 C 
ATOM     18  C   UNL     1       6.372   5.758  16.999  0.00  0.00    +0.000 C 
ATOM     19 BR   UNL     1       7.204   7.358  17.527  0.00  0.00    +0.000 Br
ATOM     20  C   UNL     1       6.806   5.209  15.678  0.00  0.00    +0.000 C 
ATOM     21  O   UNL     1       7.756   5.650  15.042  0.00  0.00    +0.000 OA
ATOM     22  C   UNL     1       6.049   4.070  15.132  0.00  0.00    +0.000 C 
ATOM     23  C   UNL     1       5.126   3.446  15.861  0.00  0.00    +0.000 C 
ATOM     24  C   UNL     1       4.822   3.870  17.236  0.00  0.00    +0.000 C 
ATOM     25  O   UNL     1       4.055   3.199  17.917  0.00  0.00    +0.000 OA
ENDBRANCH  16  17
ENDBRANCH  14  16
ENDBRANCH   4  14
TORSDOF 6
ENDMDL
MODEL 6
REMARK VINA RESULT:      -6.8      1.590      2.043
REMARK  Name = 
REMARK  9 active torsions:
REMARK  status: ('A' for Active; 'I' for Inactive)
REMARK    1  A    between atoms: C_1  and  C_2
REMARK    2  A    between atoms: C_2  and  C_3
REMARK    3  A    between atoms: C_2  and  C_4
REMARK    4  A    between atoms: C_2  and  O_5
REMARK    5  A    between atoms: O_5  and  C_6
REMARK    6  A    between atoms: C_6  and  C_8
REMARK    7  A    between atoms: C_11  and  N_12
REMARK    8  A    between atoms: N_12  and  C_13
REMARK    9  A    between atoms: C_13  and  C_14
REMARK                            x       y       z     vdW  Elec       q    Type
REMARK                         _______ _______ _______ _____ _____    ______ ____
ROOT
ATOM      1  C   UNL     1       2.665   7.267  18.715  0.00  0.00    +0.000 A 
ATOM      2  C   UNL     1       2.132   7.333  20.006  0.00  0.00    +0.000 A 
ATOM      3  C   UNL     1       1.307   8.390  20.385  0.00  0.00    +0.000 A 
ATOM      4  C   UNL     1       1.024   9.432  19.499  0.00  0.00    +0.000 A 
ATOM      5  C   UNL     1       1.517   9.329  18.185  0.00  0.00    +0.000 A 
ATOM      6  C   UNL     1       2.346   8.267  17.796  0.00  0.00    +0.000 A 
ENDROOT
BRANCH   1   7
ATOM      7  C   UNL     1       3.519   6.093  18.420  0.00  0.00    +0.000 C 
ATOM      8  O   UNL     1       4.325   6.128  17.504  0.00  0.00    +0.000 OA
BRANCH   7   9
ATOM      9  O   UNL     1       3.307   5.048  19.262  0.00  0.00    +0.000 OA
BRANCH   9  11
ATOM     10  C   UNL     1       3.596   2.865  18.162  0.00  0.00    +0.000 C 
ATOM     11  C   UNL     1       2.603   3.892  18.726  0.00  0.00    +0.000 C 
ATOM     12  C   UNL     1       1.550   4.317  17.690  0.00  0.00    +0.000 C 
ATOM     13  C   UNL     1       1.873   3.229  19.908  0.00  0.00    +0.000 C 
ENDBRANCH   9  11
ENDBRANCH   7   9
ENDBRANCH   1   7
BRANCH   4  14
ATOM     14  N   UNL     1       0.169  10.500  19.844  0.00  0.00    +0.000 N 
ATOM     15  H   UNL     1      -0.620  10.143  20.381  0.00  0.00    +0.000 HD
BRANCH  14  16
ATOM     16  C   UNL     1      -0.279  11.329  18.719  0.00  0.00    +0.000 C 
BRANCH  16  17
ATOM     17  C   UNL     1      -1.779  11.299  18.640  0.00  0.00    +0.000 C 
ATOM     18  C   UNL     1      -2.617  12.095  19.331  0.00  0.00    +0.000 C 
ATOM     19 BR   UNL     1      -2.044  13.335  20.623  0.00  0.00    +0.000 Br
ATOM     20  C   UNL     1      -4.093  12.034  19.105  0.00  0.00    +0.000 C 
ATOM     21  O   UNL     1      -4.885  12.837  19.583  0.00  0.00    +0.000 OA
ATOM     22  C   UNL     1      -4.607  10.950  18.251  0.00  0.00    +0.000 C 
ATOM     23  C   UNL     1      -3.777  10.161  17.570  0.00  0.00    +0.000 C 
ATOM     24  C   UNL     1      -2.319  10.337  17.646  0.00  0.00    +0.000 C 
ATOM     25  O   UNL     1      -1.594   9.672  16.914  0.00  0.00    +0.000 OA
ENDBRANCH  16  17
ENDBRANCH  14  16
ENDBRANCH   4  14
TORSDOF 6
ENDMDL
MODEL 7
REMARK VINA RESULT:      -6.8      2.430      3.209
REMARK  Name = 
REMARK  9 active torsions:
REMARK  status: ('A' for Active; 'I' for Inactive)
REMARK    1  A    between atoms: C_1  and  C_2
REMARK    2  A    between atoms: C_2  and  C_3
REMARK    3  A    between atoms: C_2  and  C_4
REMARK    4  A    between atoms: C_2  and  O_5
REMARK    5  A    between atoms: O_5  and  C_6
REMARK    6  A    between atoms: C_6  and  C_8
REMARK    7  A    between atoms: C_11  and  N_12
REMARK    8  A    between atoms: N_12  and  C_13
REMARK    9  A    between atoms: C_13  and  C_14
REMARK                            x       y       z     vdW  Elec       q    Type
REMARK                         _______ _______ _______ _____ _____    ______ ____
ROOT
ATOM      1  C   UNL     1       2.547   7.076  19.283  0.00  0.00    +0.000 A 
ATOM      2  C   UNL     1       2.621   7.696  18.032  0.00  0.00    +0.000 A 
ATOM      3  C   UNL     1       1.959   8.898  17.791  0.00  0.00    +0.000 A 
ATOM      4  C   UNL     1       1.171   9.494  18.778  0.00  0.00    +0.000 A 
ATOM      5  C   UNL     1       1.148   8.893  20.051  0.00  0.00    +0.000 A 
ATOM      6  C   UNL     1       1.814   7.684  20.302  0.00  0.00    +0.000 A 
ENDROOT
BRANCH   1   7
ATOM      7  C   UNL     1       3.299   5.807  19.429  0.00  0.00    +0.000 C 
ATOM      8  O   UNL     1       4.414   5.689  18.947  0.00  0.00    +0.000 OA
BRANCH   7   9
ATOM      9  O   UNL     1       2.629   4.863  20.138  0.00  0.00    +0.000 OA
BRANCH   9  11
ATOM     10  C   UNL     1       3.235   2.619  19.327  0.00  0.00    +0.000 C 
ATOM     11  C   UNL     1       2.146   3.698  19.410  0.00  0.00    +0.000 C 
ATOM     12  C   UNL     1       1.612   4.095  18.025  0.00  0.00    +0.000 C 
ATOM     13  C   UNL     1       0.978   3.116  20.226  0.00  0.00    +0.000 C 
ENDBRANCH   9  11
ENDBRANCH   7   9
ENDBRANCH   1   7
BRANCH   4  14
ATOM     14  N   UNL     1       0.514  10.725  18.573  0.00  0.00    +0.000 N 
ATOM     15  H   UNL     1       1.160  11.490  18.761  0.00  0.00    +0.000 HD
BRANCH  14  16
ATOM     16  C   UNL     1      -0.743  10.891  19.312  0.00  0.00    +0.000 C 
BRANCH  16  17
ATOM     17  C   UNL     1      -0.688  12.159  20.116  0.00  0.00    +0.000 C 
ATOM     18  C   UNL     1      -0.645  12.232  21.461  0.00  0.00    +0.000 C 
ATOM     19 BR   UNL     1      -0.757  10.733  22.589  0.00  0.00    +0.000 Br
ATOM     20  C   UNL     1      -0.503  13.551  22.151  0.00  0.00    +0.000 C 
ATOM     21  O   UNL     1      -0.299  13.667  23.354  0.00  0.00    +0.000 OA
ATOM     22  C   UNL     1      -0.607  14.766  21.326  0.00  0.00    +0.000 C 
ATOM     23  C   UNL     1      -0.653  14.692  19.997  0.00  0.00    +0.000 C 
ATOM     24  C   UNL     1      -0.606  13.397  19.301  0.00  0.00    +0.000 C 
ATOM     25  O   UNL     1      -0.529  13.374  18.078  0.00  0.00    +0.000 OA
ENDBRANCH  16  17
ENDBRANCH  14  16
ENDBRANCH   4  14
TORSDOF 6
ENDMDL
MODEL 8
REMARK VINA RESULT:      -6.8      2.840      8.305
REMARK  Name = 
REMARK  9 active torsions:
REMARK  status: ('A' for Active; 'I' for Inactive)
REMARK    1  A    between atoms: C_1  and  C_2
REMARK    2  A    between atoms: C_2  and  C_3
REMARK    3  A    between atoms: C_2  and  C_4
REMARK    4  A    between atoms: C_2  and  O_5
REMARK    5  A    between atoms: O_5  and  C_6
REMARK    6  A    between atoms: C_6  and  C_8
REMARK    7  A    between atoms: C_11  and  N_12
REMARK    8  A    between atoms: N_12  and  C_13
REMARK    9  A    between atoms: C_13  and  C_14
REMARK                            x       y       z     vdW  Elec       q    Type
REMARK                         _______ _______ _______ _____ _____    ______ ____
ROOT
ATOM      1  C   UNL     1      -0.067  10.411  19.123  0.00  0.00    +0.000 A 
ATOM      2  C   UNL     1       0.800   9.942  18.132  0.00  0.00    +0.000 A 
ATOM      3  C   UNL     1       1.668   8.882  18.385  0.00  0.00    +0.000 A 
ATOM      4  C   UNL     1       1.724   8.288  19.648  0.00  0.00    +0.000 A 
ATOM      5  C   UNL     1       0.809   8.728  20.622  0.00  0.00    +0.000 A 
ATOM      6  C   UNL     1      -0.070   9.793  20.373  0.00  0.00    +0.000 A 
ENDROOT
BRANCH   1   7
ATOM      7  C   UNL     1      -0.953  11.535  18.738  0.00  0.00    +0.000 C 
ATOM      8  O   UNL     1      -0.485  12.562  18.274  0.00  0.00    +0.000 OA
BRANCH   7   9
ATOM      9  O   UNL     1      -2.270  11.277  18.945  0.00  0.00    +0.000 OA
BRANCH   9  11
ATOM     10  C   UNL     1      -2.330  11.309  16.485  0.00  0.00    +0.000 C 
ATOM     11  C   UNL     1      -3.080  10.959  17.778  0.00  0.00    +0.000 C 
ATOM     12  C   UNL     1      -4.455  11.641  17.857  0.00  0.00    +0.000 C 
ATOM     13  C   UNL     1      -3.298   9.436  17.790  0.00  0.00    +0.000 C 
ENDBRANCH   9  11
ENDBRANCH   7   9
ENDBRANCH   1   7
BRANCH   4  14
ATOM     14  N   UNL     1       2.571   7.194  19.926  0.00  0.00    +0.000 N 
ATOM     15  H   UNL     1       3.513   7.534  20.114  0.00  0.00    +0.000 HD
BRANCH  14  16
ATOM     16  C   UNL     1       2.576   6.134  18.911  0.00  0.00    +0.000 C 
BRANCH  16  17
ATOM     17  C   UNL     1       2.736   4.799  19.580  0.00  0.00    +0.000 C 
ATOM     18  C   UNL     1       3.825   4.011  19.505  0.00  0.00    +0.000 C 
ATOM     19 BR   UNL     1       5.322   4.404  18.438  0.00  0.00    +0.000 Br
ATOM     20  C   UNL     1       3.905   2.738  20.286  0.00  0.00    +0.000 C 
ATOM     21  O   UNL     1       4.925   2.066  20.382  0.00  0.00    +0.000 OA
ATOM     22  C   UNL     1       2.687   2.289  20.981  0.00  0.00    +0.000 C 
ATOM     23  C   UNL     1       1.610   3.068  21.053  0.00  0.00    +0.000 C 
ATOM     24  C   UNL     1       1.590   4.405  20.439  0.00  0.00    +0.000 C 
ATOM     25  O   UNL     1       0.628   5.139  20.628  0.00  0.00    +0.000 OA
ENDBRANCH  16  17
ENDBRANCH  14  16
ENDBRANCH   4  14
TORSDOF 6
ENDMDL
MODEL 9
REMARK VINA RESULT:      -6.8      2.407      2.693
REMARK  Name = 
REMARK  9 active torsions:
REMARK  status: ('A' for Active; 'I' for Inactive)
REMARK    1  A    between atoms: C_1  and  C_2
REMARK    2  A    between atoms: C_2  and  C_3
REMARK    3  A    between atoms: C_2  and  C_4
REMARK    4  A    between atoms: C_2  and  O_5
REMARK    5  A    between atoms: O_5  and  C_6
REMARK    6  A    between atoms: C_6  and  C_8
REMARK    7  A    between atoms: C_11  and  N_12
REMARK    8  A    between atoms: N_12  and  C_13
REMARK    9  A    between atoms: C_13  and  C_14
REMARK                            x       y       z     vdW  Elec       q    Type
REMARK                         _______ _______ _______ _____ _____    ______ ____
ROOT
ATOM      1  C   UNL     1       2.823   6.804  18.944  0.00  0.00    +0.000 A 
ATOM      2  C   UNL     1       2.143   7.140  20.119  0.00  0.00    +0.000 A 
ATOM      3  C   UNL     1       1.413   8.323  20.209  0.00  0.00    +0.000 A 
ATOM      4  C   UNL     1       1.376   9.225  19.143  0.00  0.00    +0.000 A 
ATOM      5  C   UNL     1       2.015   8.854  17.945  0.00  0.00    +0.000 A 
ATOM      6  C   UNL     1       2.750   7.662  17.847  0.00  0.00    +0.000 A 
ENDROOT
BRANCH   1   7
ATOM      7  C   UNL     1       3.557   5.517  18.959  0.00  0.00    +0.000 C 
ATOM      8  O   UNL     1       4.297   5.215  18.037  0.00  0.00    +0.000 OA
BRANCH   7   9
ATOM      9  O   UNL     1       3.320   4.775  20.072  0.00  0.00    +0.000 OA
BRANCH   9  11
ATOM     10  C   UNL     1       3.612   2.390  19.538  0.00  0.00    +0.000 C 
ATOM     11  C   UNL     1       2.623   3.509  19.895  0.00  0.00    +0.000 C 
ATOM     12  C   UNL     1       1.493   3.640  18.861  0.00  0.00    +0.000 C 
ATOM     13  C   UNL     1       1.993   3.154  21.253  0.00  0.00    +0.000 C 
ENDBRANCH   9  11
ENDBRANCH   7   9
ENDBRANCH   1   7
BRANCH   4  14
ATOM     14  N   UNL     1       0.622  10.416  19.193  0.00  0.00    +0.000 N 
ATOM     15  H   UNL     1       0.750  10.936  18.326  0.00  0.00    +0.000 HD
BRANCH  14  16
ATOM     16  C   UNL     1       0.871  11.263  20.366  0.00  0.00    +0.000 C 
BRANCH  16  17
ATOM     17  C   UNL     1      -0.434  11.799  20.883  0.00  0.00    +0.000 C 
ATOM     18  C   UNL     1      -1.059  11.390  22.004  0.00  0.00    +0.000 C 
ATOM     19 BR   UNL     1      -0.448   9.974  23.079  0.00  0.00    +0.000 Br
ATOM     20  C   UNL     1      -2.313  12.059  22.468  0.00  0.00    +0.000 C 
ATOM     21  O   UNL     1      -2.835  11.839  23.555  0.00  0.00    +0.000 OA
ATOM     22  C   UNL     1      -2.937  13.038  21.563  0.00  0.00    +0.000 C 
ATOM     23  C   UNL     1      -2.320  13.440  20.454  0.00  0.00    +0.000 C 
ATOM     24  C   UNL     1      -0.995  12.919  20.085  0.00  0.00    +0.000 C 
ATOM     25  O   UNL     1      -0.406  13.399  19.124  0.00  0.00    +0.000 OA
ENDBRANCH  16  17
ENDBRANCH  14  16
ENDBRANCH   4  14
TORSDOF 6
ENDMDL
