MODEL 1
REMARK VINA RESULT:      -7.5      0.000      0.000
REMARK  Name = 
REMARK  2 active torsions:
REMARK  status: ('A' for Active; 'I' for Inactive)
REMARK    1  A    between atoms: C_2  and  O_3
REMARK    2  A    between atoms: C_2  and  C_4
REMARK                            x       y       z     vdW  Elec       q    Type
REMARK                         _______ _______ _______ _____ _____    ______ ____
ROOT
ATOM      1  C   UNL     1       6.063   5.103  15.113  0.00  0.00    +0.000 A 
ATOM      2  C   UNL     1       5.564   6.406  15.206  0.00  0.00    +0.000 A 
ATOM      3  C   UNL     1       4.659   6.747  16.224  0.00  0.00    +0.000 A 
ATOM      4  C   UNL     1       4.246   5.793  17.169  0.00  0.00    +0.000 A 
ATOM      5  C   UNL     1       4.777   4.514  17.071  0.00  0.00    +0.000 A 
ATOM      6  C   UNL     1       5.685   4.156  16.063  0.00  0.00    +0.000 A 
ATOM      7  S   UNL     1       4.332   3.274  18.213  0.00  0.00    +0.000 S 
ATOM      8  O   UNL     1       5.520   2.990  18.990  0.00  0.00    +0.000 OA
ATOM      9  O   UNL     1       3.663   2.248  17.436  0.00  0.00    +0.000 OA
ATOM     10  C   UNL     1       3.149   3.916  19.316  0.00  0.00    +0.000 A 
ATOM     11  C   UNL     1       2.628   3.043  20.281  0.00  0.00    +0.000 A 
ATOM     12  C   UNL     1       1.694   3.518  21.192  0.00  0.00    +0.000 A 
ATOM     13 CL   UNL     1       1.052   2.460  22.383  0.00  0.00    +0.000 Cl
ATOM     14  C   UNL     1       1.283   4.847  21.141  0.00  0.00    +0.000 A 
ATOM     15  C   UNL     1       1.809   5.707  20.168  0.00  0.00    +0.000 A 
ATOM     16  C   UNL     1       2.754   5.244  19.236  0.00  0.00    +0.000 A 
ATOM     17  C   UNL     1       3.276   6.196  18.218  0.00  0.00    +0.000 C 
ATOM     18  O   UNL     1       2.878   7.357  18.241  0.00  0.00    +0.000 OA
ENDROOT
BRANCH   1  20
ATOM     19  O   UNL     1       7.972   5.492  13.760  0.00  0.00    +0.000 OA
ATOM     20  C   UNL     1       7.027   4.775  14.034  0.00  0.00    +0.000 C 
BRANCH  20  21
ATOM     21  O   UNL     1       6.738   3.637  13.370  0.00  0.00    +0.000 OA
ATOM     22  H   UNL     1       6.165   2.996  13.831  0.00  0.00    +0.000 HD
ENDBRANCH  20  21
ENDBRANCH   1  20
TORSDOF 2
ENDMDL
MODEL 2
REMARK VINA RESULT:      -7.2      5.825      7.626
REMARK  Name = 
REMARK  2 active torsions:
REMARK  status: ('A' for Active; 'I' for Inactive)
REMARK    1  A    between atoms: C_2  and  O_3
REMARK    2  A    between atoms: C_2  and  C_4
REMARK                            x       y       z     vdW  Elec       q    Type
REMARK                         _______ _______ _______ _____ _____    ______ ____
ROOT
ATOM      1  C   UNL     1       2.327   7.391  19.245  0.00  0.00    +0.000 A 
ATOM      2  C   UNL     1       2.237   8.234  18.133  0.00  0.00    +0.000 A 
ATOM      3  C   UNL     1       1.492   9.422  18.204  0.00  0.00    +0.000 A 
ATOM      4  C   UNL     1       0.833   9.790  19.389  0.00  0.00    +0.000 A 
ATOM      5  C   UNL     1       0.961   8.950  20.486  0.00  0.00    +0.000 A 
ATOM      6  C   UNL     1       1.704   7.760  20.436  0.00  0.00    +0.000 A 
ATOM      7  S   UNL     1       0.191   9.338  22.002  0.00  0.00    +0.000 S 
ATOM      8  O   UNL     1       1.257   9.630  22.938  0.00  0.00    +0.000 OA
ATOM      9  O   UNL     1      -0.765   8.274  22.240  0.00  0.00    +0.000 OA
ATOM     10  C   UNL     1      -0.728  10.804  21.813  0.00  0.00    +0.000 A 
ATOM     11  C   UNL     1      -1.465  11.249  22.918  0.00  0.00    +0.000 A 
ATOM     12  C   UNL     1      -2.200  12.423  22.816  0.00  0.00    +0.000 A 
ATOM     13 CL   UNL     1      -3.103  12.981  24.166  0.00  0.00    +0.000 Cl
ATOM     14  C   UNL     1      -2.201  13.143  21.625  0.00  0.00    +0.000 A 
ATOM     15  C   UNL     1      -1.463  12.684  20.526  0.00  0.00    +0.000 A 
ATOM     16  C   UNL     1      -0.715  11.497  20.610  0.00  0.00    +0.000 A 
ATOM     17  C   UNL     1       0.045  11.048  19.412  0.00  0.00    +0.000 C 
ATOM     18  O   UNL     1       0.009  11.741  18.400  0.00  0.00    +0.000 OA
ENDROOT
BRANCH   1  20
ATOM     19  O   UNL     1       3.571   5.738  18.086  0.00  0.00    +0.000 OA
ATOM     20  C   UNL     1       3.130   6.148  19.144  0.00  0.00    +0.000 C 
BRANCH  20  21
ATOM     21  O   UNL     1       3.294   5.506  20.318  0.00  0.00    +0.000 OA
ATOM     22  H   UNL     1       3.250   6.053  21.125  0.00  0.00    +0.000 HD
ENDBRANCH  20  21
ENDBRANCH   1  20
TORSDOF 2
ENDMDL
MODEL 3
REMARK VINA RESULT:      -6.9      6.566      9.934
REMARK  Name = 
REMARK  2 active torsions:
REMARK  status: ('A' for Active; 'I' for Inactive)
REMARK    1  A    between atoms: C_2  and  O_3
REMARK    2  A    between atoms: C_2  and  C_4
REMARK                            x       y       z     vdW  Elec       q    Type
REMARK                         _______ _______ _______ _____ _____    ______ ____
ROOT
ATOM      1  C   UNL     1      -2.193  12.440  22.735  0.00  0.00    +0.000 A 
ATOM      2  C   UNL     1      -2.325  13.071  21.494  0.00  0.00    +0.000 A 
ATOM      3  C   UNL     1      -1.668  12.557  20.365  0.00  0.00    +0.000 A 
ATOM      4  C   UNL     1      -0.876  11.400  20.456  0.00  0.00    +0.000 A 
ATOM      5  C   UNL     1      -0.784  10.777  21.692  0.00  0.00    +0.000 A 
ATOM      6  C   UNL     1      -1.436  11.274  22.832  0.00  0.00    +0.000 A 
ATOM      7  S   UNL     1       0.163   9.326  21.892  0.00  0.00    +0.000 S 
ATOM      8  O   UNL     1      -0.777   8.260  22.167  0.00  0.00    +0.000 OA
ATOM      9  O   UNL     1       1.220   9.673  22.823  0.00  0.00    +0.000 OA
ATOM     10  C   UNL     1       0.935   8.940  20.381  0.00  0.00    +0.000 A 
ATOM     11  C   UNL     1       1.787   7.828  20.359  0.00  0.00    +0.000 A 
ATOM     12  C   UNL     1       2.410   7.473  19.170  0.00  0.00    +0.000 A 
ATOM     13 CL   UNL     1       3.453   6.109  19.129  0.00  0.00    +0.000 Cl
ATOM     14  C   UNL     1       2.188   8.221  18.016  0.00  0.00    +0.000 A 
ATOM     15  C   UNL     1       1.337   9.334  18.054  0.00  0.00    +0.000 A 
ATOM     16  C   UNL     1       0.699   9.709  19.249  0.00  0.00    +0.000 A 
ATOM     17  C   UNL     1      -0.188  10.902  19.238  0.00  0.00    +0.000 C 
ATOM     18  O   UNL     1      -0.348  11.506  18.181  0.00  0.00    +0.000 OA
ENDROOT
BRANCH   1  20
ATOM     19  O   UNL     1      -3.854  12.436  24.428  0.00  0.00    +0.000 OA
ATOM     20  C   UNL     1      -2.908  12.999  23.908  0.00  0.00    +0.000 C 
BRANCH  20  21
ATOM     21  O   UNL     1      -2.435  14.195  24.317  0.00  0.00    +0.000 OA
ATOM     22  H   UNL     1      -3.080  14.925  24.365  0.00  0.00    +0.000 HD
ENDBRANCH  20  21
ENDBRANCH   1  20
TORSDOF 2
ENDMDL
MODEL 4
REMARK VINA RESULT:      -6.8      5.137      7.239
REMARK  Name = 
REMARK  2 active torsions:
REMARK  status: ('A' for Active; 'I' for Inactive)
REMARK    1  A    between atoms: C_2  and  O_3
REMARK    2  A    between atoms: C_2  and  C_4
REMARK                            x       y       z     vdW  Elec       q    Type
REMARK                         _______ _______ _______ _____ _____    ______ ____
ROOT
ATOM      1  C   UNL     1       2.359   5.676  19.960  0.00  0.00    +0.000 A 
ATOM      2  C   UNL     1       2.734   6.070  18.671  0.00  0.00    +0.000 A 
ATOM      3  C   UNL     1       2.491   7.381  18.232  0.00  0.00    +0.000 A 
ATOM      4  C   UNL     1       1.878   8.321  19.077  0.00  0.00    +0.000 A 
ATOM      5  C   UNL     1       1.541   7.914  20.360  0.00  0.00    +0.000 A 
ATOM      6  C   UNL     1       1.779   6.608  20.818  0.00  0.00    +0.000 A 
ATOM      7  S   UNL     1       0.793   9.021  21.481  0.00  0.00    +0.000 S 
ATOM      8  O   UNL     1       1.764   9.261  22.527  0.00  0.00    +0.000 OA
ATOM      9  O   UNL     1      -0.516   8.466  21.765  0.00  0.00    +0.000 OA
ATOM     10  C   UNL     1       0.527  10.544  20.681  0.00  0.00    +0.000 A 
ATOM     11  C   UNL     1      -0.119  11.550  21.411  0.00  0.00    +0.000 A 
ATOM     12  C   UNL     1      -0.336  12.787  20.818  0.00  0.00    +0.000 A 
ATOM     13 CL   UNL     1      -1.122  14.030  21.705  0.00  0.00    +0.000 Cl
ATOM     14  C   UNL     1       0.083  13.016  19.510  0.00  0.00    +0.000 A 
ATOM     15  C   UNL     1       0.723  11.999  18.790  0.00  0.00    +0.000 A 
ATOM     16  C   UNL     1       0.951  10.740  19.374  0.00  0.00    +0.000 A 
ATOM     17  C   UNL     1       1.628   9.692  18.564  0.00  0.00    +0.000 C 
ATOM     18  O   UNL     1       1.982   9.969  17.422  0.00  0.00    +0.000 OA
ENDROOT
BRANCH   1  20
ATOM     19  O   UNL     1       3.302   3.511  19.736  0.00  0.00    +0.000 OA
ATOM     20  C   UNL     1       2.639   4.288  20.400  0.00  0.00    +0.000 C 
BRANCH  20  21
ATOM     21  O   UNL     1       2.066   3.961  21.576  0.00  0.00    +0.000 OA
ATOM     22  H   UNL     1       1.183   3.550  21.532  0.00  0.00    +0.000 HD
ENDBRANCH  20  21
ENDBRANCH   1  20
TORSDOF 2
ENDMDL
MODEL 5
REMARK VINA RESULT:      -6.5     10.259     13.511
REMARK  Name = 
REMARK  2 active torsions:
REMARK  status: ('A' for Active; 'I' for Inactive)
REMARK    1  A    between atoms: C_2  and  O_3
REMARK    2  A    between atoms: C_2  and  C_4
REMARK                            x       y       z     vdW  Elec       q    Type
REMARK                         _______ _______ _______ _____ _____    ______ ____
ROOT
ATOM      1  C   UNL     1      -5.973  13.191  22.860  0.00  0.00    +0.000 A 
ATOM      2  C   UNL     1      -4.625  13.343  23.200  0.00  0.00    +0.000 A 
ATOM      3  C   UNL     1      -3.621  13.052  22.263  0.00  0.00    +0.000 A 
ATOM      4  C   UNL     1      -3.948  12.613  20.970  0.00  0.00    +0.000 A 
ATOM      5  C   UNL     1      -5.293  12.497  20.647  0.00  0.00    +0.000 A 
ATOM      6  C   UNL     1      -6.312  12.787  21.570  0.00  0.00    +0.000 A 
ATOM      7  S   UNL     1      -5.789  11.976  19.059  0.00  0.00    +0.000 S 
ATOM      8  O   UNL     1      -6.420  13.119  18.433  0.00  0.00    +0.000 OA
ATOM      9  O   UNL     1      -6.497  10.726  19.260  0.00  0.00    +0.000 OA
ATOM     10  C   UNL     1      -4.374  11.603  18.117  0.00  0.00    +0.000 A 
ATOM     11  C   UNL     1      -4.575  11.114  16.820  0.00  0.00    +0.000 A 
ATOM     12  C   UNL     1      -3.474  10.819  16.027  0.00  0.00    +0.000 A 
ATOM     13 CL   UNL     1      -3.707  10.223  14.433  0.00  0.00    +0.000 Cl
ATOM     14  C   UNL     1      -2.187  11.009  16.523  0.00  0.00    +0.000 A 
ATOM     15  C   UNL     1      -2.001  11.495  17.824  0.00  0.00    +0.000 A 
ATOM     16  C   UNL     1      -3.103  11.797  18.642  0.00  0.00    +0.000 A 
ATOM     17  C   UNL     1      -2.852  12.303  20.018  0.00  0.00    +0.000 C 
ATOM     18  O   UNL     1      -1.691  12.458  20.384  0.00  0.00    +0.000 OA
ENDROOT
BRANCH   1  20
ATOM     19  O   UNL     1      -7.916  12.751  24.147  0.00  0.00    +0.000 OA
ATOM     20  C   UNL     1      -7.012  13.517  23.866  0.00  0.00    +0.000 C 
BRANCH  20  21
ATOM     21  O   UNL     1      -6.880  14.745  24.411  0.00  0.00    +0.000 OA
ATOM     22  H   UNL     1      -7.381  15.467  23.986  0.00  0.00    +0.000 HD
ENDBRANCH  20  21
ENDBRANCH   1  20
TORSDOF 2
ENDMDL
MODEL 6
REMARK VINA RESULT:      -6.5      1.893      3.205
REMARK  Name = 
REMARK  2 active torsions:
REMARK  status: ('A' for Active; 'I' for Inactive)
REMARK    1  A    between atoms: C_2  and  O_3
REMARK    2  A    between atoms: C_2  and  C_4
REMARK                            x       y       z     vdW  Elec       q    Type
REMARK                         _______ _______ _______ _____ _____    ______ ____
ROOT
ATOM      1  C   UNL     1       6.721   4.854  14.304  0.00  0.00    +0.000 A 
ATOM      2  C   UNL     1       6.315   3.530  14.495  0.00  0.00    +0.000 A 
ATOM      3  C   UNL     1       5.380   3.213  15.493  0.00  0.00    +0.000 A 
ATOM      4  C   UNL     1       4.830   4.214  16.309  0.00  0.00    +0.000 A 
ATOM      5  C   UNL     1       5.227   5.524  16.081  0.00  0.00    +0.000 A 
ATOM      6  C   UNL     1       6.159   5.862  15.086  0.00  0.00    +0.000 A 
ATOM      7  S   UNL     1       4.581   6.833  17.036  0.00  0.00    +0.000 S 
ATOM      8  O   UNL     1       3.764   7.626  16.142  0.00  0.00    +0.000 OA
ATOM      9  O   UNL     1       5.715   7.399  17.742  0.00  0.00    +0.000 OA
ATOM     10  C   UNL     1       3.515   6.179  18.246  0.00  0.00    +0.000 A 
ATOM     11  C   UNL     1       2.937   7.080  19.150  0.00  0.00    +0.000 A 
ATOM     12  C   UNL     1       2.067   6.603  20.121  0.00  0.00    +0.000 A 
ATOM     13 CL   UNL     1       1.348   7.700  21.231  0.00  0.00    +0.000 Cl
ATOM     14  C   UNL     1       1.778   5.243  20.192  0.00  0.00    +0.000 A 
ATOM     15  C   UNL     1       2.367   4.353  19.284  0.00  0.00    +0.000 A 
ATOM     16  C   UNL     1       3.251   4.816  18.295  0.00  0.00    +0.000 A 
ATOM     17  C   UNL     1       3.856   3.829  17.361  0.00  0.00    +0.000 C 
ATOM     18  O   UNL     1       3.545   2.647  17.474  0.00  0.00    +0.000 OA
ENDROOT
BRANCH   1  20
ATOM     19  O   UNL     1       8.643   5.913  13.405  0.00  0.00    +0.000 OA
ATOM     20  C   UNL     1       7.701   5.161  13.234  0.00  0.00    +0.000 C 
BRANCH  20  21
ATOM     21  O   UNL     1       7.433   4.559  12.057  0.00  0.00    +0.000 OA
ATOM     22  H   UNL     1       7.153   3.626  12.098  0.00  0.00    +0.000 HD
ENDBRANCH  20  21
ENDBRANCH   1  20
TORSDOF 2
ENDMDL
MODEL 7
REMARK VINA RESULT:      -6.3      9.982     11.869
REMARK  Name = 
REMARK  2 active torsions:
REMARK  status: ('A' for Active; 'I' for Inactive)
REMARK    1  A    between atoms: C_2  and  O_3
REMARK    2  A    between atoms: C_2  and  C_4
REMARK                            x       y       z     vdW  Elec       q    Type
REMARK                         _______ _______ _______ _____ _____    ______ ____
ROOT
ATOM      1  C   UNL     1      -3.445  10.590  15.621  0.00  0.00    +0.000 A 
ATOM      2  C   UNL     1      -2.262  10.548  16.366  0.00  0.00    +0.000 A 
ATOM      3  C   UNL     1      -2.229  11.060  17.672  0.00  0.00    +0.000 A 
ATOM      4  C   UNL     1      -3.380  11.615  18.258  0.00  0.00    +0.000 A 
ATOM      5  C   UNL     1      -4.548  11.620  17.508  0.00  0.00    +0.000 A 
ATOM      6  C   UNL     1      -4.601  11.109  16.201  0.00  0.00    +0.000 A 
ATOM      7  S   UNL     1      -6.026  12.272  18.163  0.00  0.00    +0.000 S 
ATOM      8  O   UNL     1      -6.926  11.152  18.334  0.00  0.00    +0.000 OA
ATOM      9  O   UNL     1      -6.363  13.403  17.319  0.00  0.00    +0.000 OA
ATOM     10  C   UNL     1      -5.710  12.911  19.751  0.00  0.00    +0.000 A 
ATOM     11  C   UNL     1      -6.774  13.530  20.419  0.00  0.00    +0.000 A 
ATOM     12  C   UNL     1      -6.570  14.039  21.696  0.00  0.00    +0.000 A 
ATOM     13 CL   UNL     1      -7.869  14.795  22.528  0.00  0.00    +0.000 Cl
ATOM     14  C   UNL     1      -5.319  13.934  22.296  0.00  0.00    +0.000 A 
ATOM     15  C   UNL     1      -4.263  13.316  21.614  0.00  0.00    +0.000 A 
ATOM     16  C   UNL     1      -4.449  12.797  20.321  0.00  0.00    +0.000 A 
ATOM     17  C   UNL     1      -3.293  12.158  19.637  0.00  0.00    +0.000 C 
ATOM     18  O   UNL     1      -2.223  12.088  20.233  0.00  0.00    +0.000 OA
ENDROOT
BRANCH   1  20
ATOM     19  O   UNL     1      -2.431   9.839  13.613  0.00  0.00    +0.000 OA
ATOM     20  C   UNL     1      -3.452  10.031  14.247  0.00  0.00    +0.000 C 
BRANCH  20  21
ATOM     21  O   UNL     1      -4.687   9.791  13.761  0.00  0.00    +0.000 OA
ATOM     22  H   UNL     1      -4.782   9.789  12.790  0.00  0.00    +0.000 HD
ENDBRANCH  20  21
ENDBRANCH   1  20
TORSDOF 2
ENDMDL
MODEL 8
REMARK VINA RESULT:      -6.3      3.386      6.565
REMARK  Name = 
REMARK  2 active torsions:
REMARK  status: ('A' for Active; 'I' for Inactive)
REMARK    1  A    between atoms: C_2  and  O_3
REMARK    2  A    between atoms: C_2  and  C_4
REMARK                            x       y       z     vdW  Elec       q    Type
REMARK                         _______ _______ _______ _____ _____    ______ ____
ROOT
ATOM      1  C   UNL     1       0.741   8.922  21.274  0.00  0.00    +0.000 A 
ATOM      2  C   UNL     1       1.254   9.606  20.168  0.00  0.00    +0.000 A 
ATOM      3  C   UNL     1       1.952   8.911  19.167  0.00  0.00    +0.000 A 
ATOM      4  C   UNL     1       2.140   7.522  19.251  0.00  0.00    +0.000 A 
ATOM      5  C   UNL     1       1.596   6.862  20.345  0.00  0.00    +0.000 A 
ATOM      6  C   UNL     1       0.893   7.539  21.354  0.00  0.00    +0.000 A 
ATOM      7  S   UNL     1       1.766   5.135  20.521  0.00  0.00    +0.000 S 
ATOM      8  O   UNL     1       0.440   4.577  20.364  0.00  0.00    +0.000 OA
ATOM      9  O   UNL     1       2.541   4.939  21.731  0.00  0.00    +0.000 OA
ATOM     10  C   UNL     1       2.730   4.524  19.206  0.00  0.00    +0.000 A 
ATOM     11  C   UNL     1       3.021   3.154  19.206  0.00  0.00    +0.000 A 
ATOM     12  C   UNL     1       3.773   2.620  18.167  0.00  0.00    +0.000 A 
ATOM     13 CL   UNL     1       4.133   0.940  18.152  0.00  0.00    +0.000 Cl
ATOM     14  C   UNL     1       4.230   3.444  17.142  0.00  0.00    +0.000 A 
ATOM     15  C   UNL     1       3.934   4.813  17.158  0.00  0.00    +0.000 A 
ATOM     16  C   UNL     1       3.177   5.372  18.202  0.00  0.00    +0.000 A 
ATOM     17  C   UNL     1       2.897   6.832  18.177  0.00  0.00    +0.000 C 
ATOM     18  O   UNL     1       3.320   7.495  17.234  0.00  0.00    +0.000 OA
ENDROOT
BRANCH   1  20
ATOM     19  O   UNL     1       0.128  10.882  22.461  0.00  0.00    +0.000 OA
ATOM     20  C   UNL     1      -0.001   9.680  22.310  0.00  0.00    +0.000 C 
BRANCH  20  21
ATOM     21  O   UNL     1      -0.800   8.914  23.082  0.00  0.00    +0.000 OA
ATOM     22  H   UNL     1      -1.329   9.378  23.757  0.00  0.00    +0.000 HD
ENDBRANCH  20  21
ENDBRANCH   1  20
TORSDOF 2
ENDMDL
MODEL 9
REMARK VINA RESULT:      -6.3      6.263      9.431
REMARK  Name = 
REMARK  2 active torsions:
REMARK  status: ('A' for Active; 'I' for Inactive)
REMARK    1  A    between atoms: C_2  and  O_3
REMARK    2  A    between atoms: C_2  and  C_4
REMARK                            x       y       z     vdW  Elec       q    Type
REMARK                         _______ _______ _______ _____ _____    ______ ____
ROOT
ATOM      1  C   UNL     1      -0.998  12.974  22.376  0.00  0.00    +0.000 A 
ATOM      2  C   UNL     1      -0.822  13.564  21.120  0.00  0.00    +0.000 A 
ATOM      3  C   UNL     1      -0.219  12.842  20.078  0.00  0.00    +0.000 A 
ATOM      4  C   UNL     1       0.209  11.519  20.271  0.00  0.00    +0.000 A 
ATOM      5  C   UNL     1      -0.002  10.947  21.518  0.00  0.00    +0.000 A 
ATOM      6  C   UNL     1      -0.605  11.651  22.572  0.00  0.00    +0.000 A 
ATOM      7  S   UNL     1       0.483   9.303  21.840  0.00  0.00    +0.000 S 
ATOM      8  O   UNL     1      -0.738   8.546  22.023  0.00  0.00    +0.000 OA
ATOM      9  O   UNL     1       1.493   9.389  22.878  0.00  0.00    +0.000 OA
ATOM     10  C   UNL     1       1.270   8.657  20.429  0.00  0.00    +0.000 A 
ATOM     11  C   UNL     1       1.780   7.355  20.516  0.00  0.00    +0.000 A 
ATOM     12  C   UNL     1       2.401   6.793  19.408  0.00  0.00    +0.000 A 
ATOM     13 CL   UNL     1       3.025   5.196  19.501  0.00  0.00    +0.000 Cl
ATOM     14  C   UNL     1       2.514   7.523  18.228  0.00  0.00    +0.000 A 
ATOM     15  C   UNL     1       2.003   8.826  18.157  0.00  0.00    +0.000 A 
ATOM     16  C   UNL     1       1.373   9.411  19.268  0.00  0.00    +0.000 A 
ATOM     17  C   UNL     1       0.855  10.800  19.144  0.00  0.00    +0.000 C 
ATOM     18  O   UNL     1       0.977  11.379  18.068  0.00  0.00    +0.000 OA
ENDROOT
BRANCH   1  20
ATOM     19  O   UNL     1      -1.020  14.471  24.216  0.00  0.00    +0.000 OA
ATOM     20  C   UNL     1      -1.648  13.757  23.455  0.00  0.00    +0.000 C 
BRANCH  20  21
ATOM     21  O   UNL     1      -2.982  13.577  23.533  0.00  0.00    +0.000 OA
ATOM     22  H   UNL     1      -3.498  13.786  22.732  0.00  0.00    +0.000 HD
ENDBRANCH  20  21
ENDBRANCH   1  20
TORSDOF 2
ENDMDL
