MODEL 1
REMARK VINA RESULT:      -8.4      0.000      0.000
REMARK  Name = 
REMARK  4 active torsions:
REMARK  status: ('A' for Active; 'I' for Inactive)
REMARK    1  A    between atoms: C_7  and  C_8
REMARK    2  A    between atoms: C_11  and  O_12
REMARK    3  A    between atoms: O_12  and  C_13
REMARK    4  A    between atoms: C_13  and  C_14
REMARK                            x       y       z     vdW  Elec       q    Type
REMARK                         _______ _______ _______ _____ _____    ______ ____
ROOT
ATOM      1  C   UNL     1       5.872   5.281  17.401  0.00  0.00    +0.000 A 
ATOM      2  C   UNL     1       5.843   6.532  16.778  0.00  0.00    +0.000 A 
ATOM      3  C   UNL     1       6.764   7.513  17.132  0.00  0.00    +0.000 A 
ATOM      4  C   UNL     1       7.701   7.266  18.137  0.00  0.00    +0.000 A 
ATOM      5  C   UNL     1       7.774   5.997  18.715  0.00  0.00    +0.000 A 
ATOM      6  C   UNL     1       6.859   5.005  18.351  0.00  0.00    +0.000 A 
ENDROOT
BRANCH   1  13
ATOM      7  O   UNL     1       0.740   2.543  18.305  0.00  0.00    +0.000 OA
ATOM      8  C   UNL     1       1.708   3.281  18.282  0.00  0.00    +0.000 C 
ATOM      9  N   UNL     1       1.933   4.349  19.107  0.00  0.00    +0.000 N 
ATOM     10  C   UNL     1       3.131   4.951  18.834  0.00  0.00    +0.000 C 
ATOM     11  O   UNL     1       3.610   5.910  19.400  0.00  0.00    +0.000 OA
ATOM     12  C   UNL     1       3.697   4.155  17.693  0.00  0.00    +0.000 C 
ATOM     13  C   UNL     1       4.856   4.295  17.048  0.00  0.00    +0.000 C 
ATOM     14  N   UNL     1       2.781   3.177  17.419  0.00  0.00    +0.000 N 
ATOM     15  H   UNL     1       1.307   4.643  19.834  0.00  0.00    +0.000 HD
ATOM     16  H   UNL     1       2.862   2.452  16.723  0.00  0.00    +0.000 HD
ENDBRANCH   1  13
BRANCH   4  17
ATOM     17  O   UNL     1       8.574   8.202  18.626  0.00  0.00    +0.000 OA
BRANCH  17  18
ATOM     18  C   UNL     1       8.362   9.522  18.120  0.00  0.00    +0.000 C 
BRANCH  18  19
ATOM     19  C   UNL     1       9.365  10.461  18.732  0.00  0.00    +0.000 A 
ATOM     20  C   UNL     1       9.353  10.727  20.107  0.00  0.00    +0.000 A 
ATOM     21  C   UNL     1      10.293  11.594  20.662  0.00  0.00    +0.000 A 
ATOM     22  C   UNL     1      11.247  12.205  19.850  0.00  0.00    +0.000 A 
ATOM     23  C   UNL     1      11.265  11.950  18.480  0.00  0.00    +0.000 A 
ATOM     24  C   UNL     1      10.326  11.084  17.921  0.00  0.00    +0.000 A 
ENDBRANCH  18  19
ENDBRANCH  17  18
ENDBRANCH   4  17
TORSDOF 4
ENDMDL
MODEL 2
REMARK VINA RESULT:      -8.4      0.146      1.038
REMARK  Name = 
REMARK  4 active torsions:
REMARK  status: ('A' for Active; 'I' for Inactive)
REMARK    1  A    between atoms: C_7  and  C_8
REMARK    2  A    between atoms: C_11  and  O_12
REMARK    3  A    between atoms: O_12  and  C_13
REMARK    4  A    between atoms: C_13  and  C_14
REMARK                            x       y       z     vdW  Elec       q    Type
REMARK                         _______ _______ _______ _____ _____    ______ ____
ROOT
ATOM      1  C   UNL     1       5.781   5.193  17.408  0.00  0.00    +0.000 A 
ATOM      2  C   UNL     1       5.749   6.435  16.768  0.00  0.00    +0.000 A 
ATOM      3  C   UNL     1       6.676   7.418  17.101  0.00  0.00    +0.000 A 
ATOM      4  C   UNL     1       7.621   7.183  18.100  0.00  0.00    +0.000 A 
ATOM      5  C   UNL     1       7.697   5.922  18.694  0.00  0.00    +0.000 A 
ATOM      6  C   UNL     1       6.776   4.927  18.353  0.00  0.00    +0.000 A 
ENDROOT
BRANCH   1  13
ATOM      7  O   UNL     1       0.619   2.527  18.358  0.00  0.00    +0.000 OA
ATOM      8  C   UNL     1       1.593   3.255  18.320  0.00  0.00    +0.000 C 
ATOM      9  N   UNL     1       1.821   4.347  19.112  0.00  0.00    +0.000 N 
ATOM     10  C   UNL     1       3.026   4.930  18.830  0.00  0.00    +0.000 C 
ATOM     11  O   UNL     1       3.509   5.903  19.369  0.00  0.00    +0.000 OA
ATOM     12  C   UNL     1       3.594   4.094  17.719  0.00  0.00    +0.000 C 
ATOM     13  C   UNL     1       4.759   4.205  17.079  0.00  0.00    +0.000 C 
ATOM     14  N   UNL     1       2.672   3.116  17.468  0.00  0.00    +0.000 N 
ATOM     15  H   UNL     1       1.193   4.669  19.825  0.00  0.00    +0.000 HD
ATOM     16  H   UNL     1       2.751   2.369  16.796  0.00  0.00    +0.000 HD
ENDBRANCH   1  13
BRANCH   4  17
ATOM     17  O   UNL     1       8.501   8.123  18.567  0.00  0.00    +0.000 OA
BRANCH  17  18
ATOM     18  C   UNL     1       8.320   9.426  18.007  0.00  0.00    +0.000 C 
BRANCH  18  19
ATOM     19  C   UNL     1       9.282  10.387  18.650  0.00  0.00    +0.000 A 
ATOM     20  C   UNL     1      10.174  11.136  17.873  0.00  0.00    +0.000 A 
ATOM     21  C   UNL     1      11.056  12.029  18.482  0.00  0.00    +0.000 A 
ATOM     22  C   UNL     1      11.057  12.175  19.869  0.00  0.00    +0.000 A 
ATOM     23  C   UNL     1      10.176  11.430  20.650  0.00  0.00    +0.000 A 
ATOM     24  C   UNL     1       9.294  10.536  20.045  0.00  0.00    +0.000 A 
ENDBRANCH  18  19
ENDBRANCH  17  18
ENDBRANCH   4  17
TORSDOF 4
ENDMDL
MODEL 3
REMARK VINA RESULT:      -8.3      0.186      1.046
REMARK  Name = 
REMARK  4 active torsions:
REMARK  status: ('A' for Active; 'I' for Inactive)
REMARK    1  A    between atoms: C_7  and  C_8
REMARK    2  A    between atoms: C_11  and  O_12
REMARK    3  A    between atoms: O_12  and  C_13
REMARK    4  A    between atoms: C_13  and  C_14
REMARK                            x       y       z     vdW  Elec       q    Type
REMARK                         _______ _______ _______ _____ _____    ______ ____
ROOT
ATOM      1  C   UNL     1       5.757   5.315  17.620  0.00  0.00    +0.000 A 
ATOM      2  C   UNL     1       6.690   5.017  18.617  0.00  0.00    +0.000 A 
ATOM      3  C   UNL     1       7.663   5.949  18.966  0.00  0.00    +0.000 A 
ATOM      4  C   UNL     1       7.735   7.172  18.298  0.00  0.00    +0.000 A 
ATOM      5  C   UNL     1       6.765   7.498  17.348  0.00  0.00    +0.000 A 
ATOM      6  C   UNL     1       5.777   6.569  17.005  0.00  0.00    +0.000 A 
ENDROOT
BRANCH   1  13
ATOM      7  O   UNL     1       0.679   2.426  18.349  0.00  0.00    +0.000 OA
ATOM      8  C   UNL     1       1.624   3.193  18.357  0.00  0.00    +0.000 C 
ATOM      9  N   UNL     1       1.782   4.276  19.178  0.00  0.00    +0.000 N 
ATOM     10  C   UNL     1       2.971   4.912  18.947  0.00  0.00    +0.000 C 
ATOM     11  O   UNL     1       3.398   5.891  19.521  0.00  0.00    +0.000 OA
ATOM     12  C   UNL     1       3.607   4.123  17.838  0.00  0.00    +0.000 C 
ATOM     13  C   UNL     1       4.786   4.294  17.238  0.00  0.00    +0.000 C 
ATOM     14  N   UNL     1       2.733   3.115  17.537  0.00  0.00    +0.000 N 
ATOM     15  H   UNL     1       1.120   4.557  19.876  0.00  0.00    +0.000 HD
ATOM     16  H   UNL     1       2.864   2.386  16.853  0.00  0.00    +0.000 HD
ENDBRANCH   1  13
BRANCH   4  17
ATOM     17  O   UNL     1       8.719   8.104  18.498  0.00  0.00    +0.000 OA
BRANCH  17  18
ATOM     18  C   UNL     1       8.353   9.433  18.118  0.00  0.00    +0.000 C 
BRANCH  18  19
ATOM     19  C   UNL     1       9.327  10.412  18.716  0.00  0.00    +0.000 A 
ATOM     20  C   UNL     1       9.351  10.646  20.096  0.00  0.00    +0.000 A 
ATOM     21  C   UNL     1      10.264  11.551  20.638  0.00  0.00    +0.000 A 
ATOM     22  C   UNL     1      11.153  12.231  19.807  0.00  0.00    +0.000 A 
ATOM     23  C   UNL     1      11.134  12.007  18.432  0.00  0.00    +0.000 A 
ATOM     24  C   UNL     1      10.222  11.104  17.887  0.00  0.00    +0.000 A 
ENDBRANCH  18  19
ENDBRANCH  17  18
ENDBRANCH   4  17
TORSDOF 4
ENDMDL
MODEL 4
REMARK VINA RESULT:      -8.3      0.235      1.473
REMARK  Name = 
REMARK  4 active torsions:
REMARK  status: ('A' for Active; 'I' for Inactive)
REMARK    1  A    between atoms: C_7  and  C_8
REMARK    2  A    between atoms: C_11  and  O_12
REMARK    3  A    between atoms: O_12  and  C_13
REMARK    4  A    between atoms: C_13  and  C_14
REMARK                            x       y       z     vdW  Elec       q    Type
REMARK                         _______ _______ _______ _____ _____    ______ ____
ROOT
ATOM      1  C   UNL     1       5.767   5.227  17.658  0.00  0.00    +0.000 A 
ATOM      2  C   UNL     1       6.653   4.992  18.713  0.00  0.00    +0.000 A 
ATOM      3  C   UNL     1       7.611   5.944  19.049  0.00  0.00    +0.000 A 
ATOM      4  C   UNL     1       7.716   7.124  18.311  0.00  0.00    +0.000 A 
ATOM      5  C   UNL     1       6.793   7.390  17.299  0.00  0.00    +0.000 A 
ATOM      6  C   UNL     1       5.820   6.441  16.968  0.00  0.00    +0.000 A 
ENDROOT
BRANCH   1  13
ATOM      7  O   UNL     1       0.639   2.409  18.302  0.00  0.00    +0.000 OA
ATOM      8  C   UNL     1       1.587   3.172  18.309  0.00  0.00    +0.000 C 
ATOM      9  N   UNL     1       1.706   4.310  19.060  0.00  0.00    +0.000 N 
ATOM     10  C   UNL     1       2.910   4.925  18.851  0.00  0.00    +0.000 C 
ATOM     11  O   UNL     1       3.310   5.941  19.378  0.00  0.00    +0.000 OA
ATOM     12  C   UNL     1       3.602   4.059  17.838  0.00  0.00    +0.000 C 
ATOM     13  C   UNL     1       4.814   4.184  17.294  0.00  0.00    +0.000 C 
ATOM     14  N   UNL     1       2.740   3.034  17.560  0.00  0.00    +0.000 N 
ATOM     15  H   UNL     1       1.007   4.640  19.698  0.00  0.00    +0.000 HD
ATOM     16  H   UNL     1       2.904   2.259  16.937  0.00  0.00    +0.000 HD
ENDBRANCH   1  13
BRANCH   4  17
ATOM     17  O   UNL     1       8.692   8.067  18.499  0.00  0.00    +0.000 OA
BRANCH  17  18
ATOM     18  C   UNL     1       8.322   9.385  18.085  0.00  0.00    +0.000 C 
BRANCH  18  19
ATOM     19  C   UNL     1       9.274  10.384  18.682  0.00  0.00    +0.000 A 
ATOM     20  C   UNL     1      10.163  11.101  17.872  0.00  0.00    +0.000 A 
ATOM     21  C   UNL     1      11.035  12.030  18.439  0.00  0.00    +0.000 A 
ATOM     22  C   UNL     1      11.031  12.245  19.816  0.00  0.00    +0.000 A 
ATOM     23  C   UNL     1      10.153  11.532  20.631  0.00  0.00    +0.000 A 
ATOM     24  C   UNL     1       9.280  10.603  20.068  0.00  0.00    +0.000 A 
ENDBRANCH  18  19
ENDBRANCH  17  18
ENDBRANCH   4  17
TORSDOF 4
ENDMDL
MODEL 5
REMARK VINA RESULT:      -8.0      3.133      4.102
REMARK  Name = 
REMARK  4 active torsions:
REMARK  status: ('A' for Active; 'I' for Inactive)
REMARK    1  A    between atoms: C_7  and  C_8
REMARK    2  A    between atoms: C_11  and  O_12
REMARK    3  A    between atoms: O_12  and  C_13
REMARK    4  A    between atoms: C_13  and  C_14
REMARK                            x       y       z     vdW  Elec       q    Type
REMARK                         _______ _______ _______ _____ _____    ______ ____
ROOT
ATOM      1  C   UNL     1       6.477   5.344  16.663  0.00  0.00    +0.000 A 
ATOM      2  C   UNL     1       7.421   4.956  17.618  0.00  0.00    +0.000 A 
ATOM      3  C   UNL     1       8.082   5.916  18.378  0.00  0.00    +0.000 A 
ATOM      4  C   UNL     1       7.834   7.273  18.167  0.00  0.00    +0.000 A 
ATOM      5  C   UNL     1       6.845   7.660  17.261  0.00  0.00    +0.000 A 
ATOM      6  C   UNL     1       6.168   6.698  16.504  0.00  0.00    +0.000 A 
ENDROOT
BRANCH   1  13
ATOM      7  O   UNL     1       5.627   2.562  11.545  0.00  0.00    +0.000 OA
ATOM      8  C   UNL     1       6.008   3.233  12.486  0.00  0.00    +0.000 C 
ATOM      9  N   UNL     1       7.015   4.158  12.467  0.00  0.00    +0.000 N 
ATOM     10  C   UNL     1       7.173   4.755  13.688  0.00  0.00    +0.000 C 
ATOM     11  O   UNL     1       7.972   5.618  13.980  0.00  0.00    +0.000 OA
ATOM     12  C   UNL     1       6.141   4.099  14.560  0.00  0.00    +0.000 C 
ATOM     13  C   UNL     1       5.844   4.317  15.842  0.00  0.00    +0.000 C 
ATOM     14  N   UNL     1       5.490   3.195  13.766  0.00  0.00    +0.000 N 
ATOM     15  H   UNL     1       7.557   4.387  11.654  0.00  0.00    +0.000 HD
ATOM     16  H   UNL     1       4.720   2.601  14.032  0.00  0.00    +0.000 HD
ENDBRANCH   1  13
BRANCH   4  17
ATOM     17  O   UNL     1       8.511   8.288  18.790  0.00  0.00    +0.000 OA
BRANCH  17  18
ATOM     18  C   UNL     1       8.381   9.559  18.148  0.00  0.00    +0.000 C 
BRANCH  18  19
ATOM     19  C   UNL     1       9.383  10.519  18.730  0.00  0.00    +0.000 A 
ATOM     20  C   UNL     1      10.265  11.224  17.902  0.00  0.00    +0.000 A 
ATOM     21  C   UNL     1      11.184  12.116  18.454  0.00  0.00    +0.000 A 
ATOM     22  C   UNL     1      11.232  12.306  19.835  0.00  0.00    +0.000 A 
ATOM     23  C   UNL     1      10.361  11.605  20.667  0.00  0.00    +0.000 A 
ATOM     24  C   UNL     1       9.442  10.713  20.118  0.00  0.00    +0.000 A 
ENDBRANCH  18  19
ENDBRANCH  17  18
ENDBRANCH   4  17
TORSDOF 4
ENDMDL
MODEL 6
REMARK VINA RESULT:      -7.7      1.098      1.577
REMARK  Name = 
REMARK  4 active torsions:
REMARK  status: ('A' for Active; 'I' for Inactive)
REMARK    1  A    between atoms: C_7  and  C_8
REMARK    2  A    between atoms: C_11  and  O_12
REMARK    3  A    between atoms: O_12  and  C_13
REMARK    4  A    between atoms: C_13  and  C_14
REMARK                            x       y       z     vdW  Elec       q    Type
REMARK                         _______ _______ _______ _____ _____    ______ ____
ROOT
ATOM      1  C   UNL     1       6.540   5.684  17.655  0.00  0.00    +0.000 A 
ATOM      2  C   UNL     1       7.594   5.794  18.566  0.00  0.00    +0.000 A 
ATOM      3  C   UNL     1       8.256   7.007  18.728  0.00  0.00    +0.000 A 
ATOM      4  C   UNL     1       7.895   8.112  17.956  0.00  0.00    +0.000 A 
ATOM      5  C   UNL     1       6.801   8.023  17.093  0.00  0.00    +0.000 A 
ATOM      6  C   UNL     1       6.124   6.809  16.938  0.00  0.00    +0.000 A 
ENDROOT
BRANCH   1  13
ATOM      7  O   UNL     1       2.549   1.588  19.055  0.00  0.00    +0.000 OA
ATOM      8  C   UNL     1       3.227   2.588  18.907  0.00  0.00    +0.000 C 
ATOM      9  N   UNL     1       3.076   3.776  19.569  0.00  0.00    +0.000 N 
ATOM     10  C   UNL     1       4.021   4.688  19.187  0.00  0.00    +0.000 C 
ATOM     11  O   UNL     1       4.152   5.820  19.602  0.00  0.00    +0.000 OA
ATOM     12  C   UNL     1       4.839   3.967  18.154  0.00  0.00    +0.000 C 
ATOM     13  C   UNL     1       5.905   4.383  17.468  0.00  0.00    +0.000 C 
ATOM     14  N   UNL     1       4.295   2.718  18.040  0.00  0.00    +0.000 N 
ATOM     15  H   UNL     1       2.374   3.950  20.264  0.00  0.00    +0.000 HD
ATOM     16  H   UNL     1       4.621   1.968  17.450  0.00  0.00    +0.000 HD
ENDBRANCH   1  13
BRANCH   4  17
ATOM     17  O   UNL     1       8.556   9.312  17.968  0.00  0.00    +0.000 OA
BRANCH  17  18
ATOM     18  C   UNL     1       8.983   9.733  19.266  0.00  0.00    +0.000 C 
BRANCH  18  19
ATOM     19  C   UNL     1       9.927  10.896  19.131  0.00  0.00    +0.000 A 
ATOM     20  C   UNL     1      10.432  11.545  20.264  0.00  0.00    +0.000 A 
ATOM     21  C   UNL     1      11.312  12.619  20.124  0.00  0.00    +0.000 A 
ATOM     22  C   UNL     1      11.687  13.054  18.854  0.00  0.00    +0.000 A 
ATOM     23  C   UNL     1      11.186  12.417  17.720  0.00  0.00    +0.000 A 
ATOM     24  C   UNL     1      10.307  11.345  17.857  0.00  0.00    +0.000 A 
ENDBRANCH  18  19
ENDBRANCH  17  18
ENDBRANCH   4  17
TORSDOF 4
ENDMDL
MODEL 7
REMARK VINA RESULT:      -7.7      4.722      7.116
REMARK  Name = 
REMARK  4 active torsions:
REMARK  status: ('A' for Active; 'I' for Inactive)
REMARK    1  A    between atoms: C_7  and  C_8
REMARK    2  A    between atoms: C_11  and  O_12
REMARK    3  A    between atoms: O_12  and  C_13
REMARK    4  A    between atoms: C_13  and  C_14
REMARK                            x       y       z     vdW  Elec       q    Type
REMARK                         _______ _______ _______ _____ _____    ______ ____
ROOT
ATOM      1  C   UNL     1       5.209   5.101  17.953  0.00  0.00    +0.000 A 
ATOM      2  C   UNL     1       6.529   4.665  18.095  0.00  0.00    +0.000 A 
ATOM      3  C   UNL     1       7.352   4.547  16.978  0.00  0.00    +0.000 A 
ATOM      4  C   UNL     1       6.853   4.830  15.706  0.00  0.00    +0.000 A 
ATOM      5  C   UNL     1       5.556   5.327  15.568  0.00  0.00    +0.000 A 
ATOM      6  C   UNL     1       4.731   5.459  16.690  0.00  0.00    +0.000 A 
ENDROOT
BRANCH   1  13
ATOM      7  O   UNL     1       1.069   2.875  21.497  0.00  0.00    +0.000 OA
ATOM      8  C   UNL     1       1.934   3.098  20.670  0.00  0.00    +0.000 C 
ATOM      9  N   UNL     1       2.343   2.252  19.676  0.00  0.00    +0.000 N 
ATOM     10  C   UNL     1       3.316   2.821  18.900  0.00  0.00    +0.000 C 
ATOM     11  O   UNL     1       3.866   2.325  17.941  0.00  0.00    +0.000 OA
ATOM     12  C   UNL     1       3.532   4.177  19.509  0.00  0.00    +0.000 C 
ATOM     13  C   UNL     1       4.356   5.158  19.135  0.00  0.00    +0.000 C 
ATOM     14  N   UNL     1       2.671   4.262  20.568  0.00  0.00    +0.000 N 
ATOM     15  H   UNL     1       1.963   1.337  19.521  0.00  0.00    +0.000 HD
ATOM     16  H   UNL     1       2.541   5.053  21.179  0.00  0.00    +0.000 HD
ENDBRANCH   1  13
BRANCH   4  17
ATOM     17  O   UNL     1       7.552   4.641  14.543  0.00  0.00    +0.000 OA
BRANCH  17  18
ATOM     18  C   UNL     1       6.848   5.040  13.364  0.00  0.00    +0.000 C 
BRANCH  18  19
ATOM     19  C   UNL     1       6.556   3.829  12.520  0.00  0.00    +0.000 A 
ATOM     20  C   UNL     1       7.596   3.092  11.939  0.00  0.00    +0.000 A 
ATOM     21  C   UNL     1       7.311   1.968  11.165  0.00  0.00    +0.000 A 
ATOM     22  C   UNL     1       5.989   1.574  10.962  0.00  0.00    +0.000 A 
ATOM     23  C   UNL     1       4.947   2.303  11.533  0.00  0.00    +0.000 A 
ATOM     24  C   UNL     1       5.229   3.428  12.306  0.00  0.00    +0.000 A 
ENDBRANCH  18  19
ENDBRANCH  17  18
ENDBRANCH   4  17
TORSDOF 4
ENDMDL
MODEL 8
REMARK VINA RESULT:      -7.7      5.327      7.917
REMARK  Name = 
REMARK  4 active torsions:
REMARK  status: ('A' for Active; 'I' for Inactive)
REMARK    1  A    between atoms: C_7  and  C_8
REMARK    2  A    between atoms: C_11  and  O_12
REMARK    3  A    between atoms: O_12  and  C_13
REMARK    4  A    between atoms: C_13  and  C_14
REMARK                            x       y       z     vdW  Elec       q    Type
REMARK                         _______ _______ _______ _____ _____    ______ ____
ROOT
ATOM      1  C   UNL     1       3.070   6.601  18.893  0.00  0.00    +0.000 A 
ATOM      2  C   UNL     1       2.224   6.974  19.941  0.00  0.00    +0.000 A 
ATOM      3  C   UNL     1       1.478   8.146  19.855  0.00  0.00    +0.000 A 
ATOM      4  C   UNL     1       1.597   8.974  18.738  0.00  0.00    +0.000 A 
ATOM      5  C   UNL     1       2.392   8.572  17.663  0.00  0.00    +0.000 A 
ATOM      6  C   UNL     1       3.132   7.388  17.739  0.00  0.00    +0.000 A 
ENDROOT
BRANCH   1  13
ATOM      7  O   UNL     1       3.918   0.799  18.369  0.00  0.00    +0.000 OA
ATOM      8  C   UNL     1       3.546   1.957  18.320  0.00  0.00    +0.000 C 
ATOM      9  N   UNL     1       2.386   2.413  17.756  0.00  0.00    +0.000 N 
ATOM     10  C   UNL     1       2.258   3.768  17.896  0.00  0.00    +0.000 C 
ATOM     11  O   UNL     1       1.338   4.457  17.511  0.00  0.00    +0.000 OA
ATOM     12  C   UNL     1       3.503   4.187  18.626  0.00  0.00    +0.000 C 
ATOM     13  C   UNL     1       3.882   5.397  19.038  0.00  0.00    +0.000 C 
ATOM     14  N   UNL     1       4.224   3.044  18.837  0.00  0.00    +0.000 N 
ATOM     15  H   UNL     1       1.705   1.826  17.313  0.00  0.00    +0.000 HD
ATOM     16  H   UNL     1       5.103   2.966  19.324  0.00  0.00    +0.000 HD
ENDBRANCH   1  13
BRANCH   4  17
ATOM     17  O   UNL     1       0.988  10.194  18.613  0.00  0.00    +0.000 OA
BRANCH  17  18
ATOM     18  C   UNL     1      -0.192  10.344  19.406  0.00  0.00    +0.000 C 
BRANCH  18  19
ATOM     19  C   UNL     1      -1.382  10.531  18.505  0.00  0.00    +0.000 A 
ATOM     20  C   UNL     1      -2.411  11.416  18.849  0.00  0.00    +0.000 A 
ATOM     21  C   UNL     1      -3.505  11.584  18.000  0.00  0.00    +0.000 A 
ATOM     22  C   UNL     1      -3.582  10.866  16.807  0.00  0.00    +0.000 A 
ATOM     23  C   UNL     1      -2.565   9.980  16.459  0.00  0.00    +0.000 A 
ATOM     24  C   UNL     1      -1.471   9.809  17.305  0.00  0.00    +0.000 A 
ENDBRANCH  18  19
ENDBRANCH  17  18
ENDBRANCH   4  17
TORSDOF 4
ENDMDL
MODEL 9
REMARK VINA RESULT:      -7.7      5.519      8.187
REMARK  Name = 
REMARK  4 active torsions:
REMARK  status: ('A' for Active; 'I' for Inactive)
REMARK    1  A    between atoms: C_7  and  C_8
REMARK    2  A    between atoms: C_11  and  O_12
REMARK    3  A    between atoms: O_12  and  C_13
REMARK    4  A    between atoms: C_13  and  C_14
REMARK                            x       y       z     vdW  Elec       q    Type
REMARK                         _______ _______ _______ _____ _____    ______ ____
ROOT
ATOM      1  C   UNL     1       2.760   6.857  19.132  0.00  0.00    +0.000 A 
ATOM      2  C   UNL     1       1.968   7.260  20.211  0.00  0.00    +0.000 A 
ATOM      3  C   UNL     1       1.206   8.421  20.126  0.00  0.00    +0.000 A 
ATOM      4  C   UNL     1       1.255   9.210  18.975  0.00  0.00    +0.000 A 
ATOM      5  C   UNL     1       1.993   8.777  17.873  0.00  0.00    +0.000 A 
ATOM      6  C   UNL     1       2.750   7.603  17.950  0.00  0.00    +0.000 A 
ENDROOT
BRANCH   1  13
ATOM      7  O   UNL     1       3.786   1.107  18.403  0.00  0.00    +0.000 OA
ATOM      8  C   UNL     1       3.388   2.257  18.383  0.00  0.00    +0.000 C 
ATOM      9  N   UNL     1       2.255   2.712  17.767  0.00  0.00    +0.000 N 
ATOM     10  C   UNL     1       2.084   4.056  17.959  0.00  0.00    +0.000 C 
ATOM     11  O   UNL     1       1.172   4.741  17.548  0.00  0.00    +0.000 OA
ATOM     12  C   UNL     1       3.269   4.468  18.785  0.00  0.00    +0.000 C 
ATOM     13  C   UNL     1       3.591   5.667  19.275  0.00  0.00    +0.000 C 
ATOM     14  N   UNL     1       4.005   3.334  18.990  0.00  0.00    +0.000 N 
ATOM     15  H   UNL     1       1.618   2.131  17.255  0.00  0.00    +0.000 HD
ATOM     16  H   UNL     1       4.853   3.253  19.528  0.00  0.00    +0.000 HD
ENDBRANCH   1  13
BRANCH   4  17
ATOM     17  O   UNL     1       0.626  10.420  18.841  0.00  0.00    +0.000 OA
BRANCH  17  18
ATOM     18  C   UNL     1      -0.668  10.478  19.447  0.00  0.00    +0.000 C 
BRANCH  18  19
ATOM     19  C   UNL     1      -1.719  10.572  18.375  0.00  0.00    +0.000 A 
ATOM     20  C   UNL     1      -1.609   9.827  17.195  0.00  0.00    +0.000 A 
ATOM     21  C   UNL     1      -2.595   9.918  16.213  0.00  0.00    +0.000 A 
ATOM     22  C   UNL     1      -3.693  10.756  16.400  0.00  0.00    +0.000 A 
ATOM     23  C   UNL     1      -3.810  11.504  17.570  0.00  0.00    +0.000 A 
ATOM     24  C   UNL     1      -2.826  11.416  18.553  0.00  0.00    +0.000 A 
ENDBRANCH  18  19
ENDBRANCH  17  18
ENDBRANCH   4  17
TORSDOF 4
ENDMDL
