MODEL 1
REMARK VINA RESULT:      -6.4      0.000      0.000
REMARK  Name = 
REMARK  12 active torsions:
REMARK  status: ('A' for Active; 'I' for Inactive)
REMARK    1  A    between atoms: C_1  and  C_2
REMARK    2  A    between atoms: C_2  and  C_3
REMARK    3  A    between atoms: C_3  and  C_4
REMARK    4  A    between atoms: C_4  and  N_5
REMARK    5  A    between atoms: C_6  and  S_7
REMARK    6  A    between atoms: S_7  and  C_8
REMARK    7  A    between atoms: C_10  and  O_11
REMARK    8  A    between atoms: O_11  and  C_12
REMARK    9  A    between atoms: C_13  and  O_14
REMARK   10  A    between atoms: O_14  and  C_15
REMARK   11  A    between atoms: C_16  and  O_17
REMARK   12  A    between atoms: O_17  and  C_18
REMARK                            x       y       z     vdW  Elec       q    Type
REMARK                         _______ _______ _______ _____ _____    ______ ____
ROOT
ATOM      1  N   UNL     1       3.849   5.698  17.850  0.00  0.00    +0.000 N 
ATOM      2  C   UNL     1       3.455   7.020  17.863  0.00  0.00    +0.000 A 
ATOM      3  N   UNL     1       4.488   7.831  17.713  0.00  0.00    +0.000 NA
ATOM      4  C   UNL     1       5.598   6.998  17.634  0.00  0.00    +0.000 A 
ATOM      5  C   UNL     1       6.972   7.211  17.415  0.00  0.00    +0.000 A 
ATOM      6  N   UNL     1       7.536   8.443  17.134  0.00  0.00    +0.000 N 
ATOM      7  N   UNL     1       7.818   6.156  17.452  0.00  0.00    +0.000 NA
ATOM      8  C   UNL     1       7.306   4.924  17.644  0.00  0.00    +0.000 A 
ATOM      9  F   UNL     1       8.186   3.912  17.717  0.00  0.00    +0.000 F 
ATOM     10  N   UNL     1       6.011   4.594  17.775  0.00  0.00    +0.000 NA
ATOM     11  C   UNL     1       5.219   5.677  17.772  0.00  0.00    +0.000 A 
ATOM     12  H   UNL     1       7.003   9.249  17.438  0.00  0.00    +0.000 HD
ATOM     13  H   UNL     1       8.539   8.450  17.254  0.00  0.00    +0.000 HD
ENDROOT
BRANCH   1  14
ATOM     14  C   UNL     1       3.053   4.487  17.752  0.00  0.00    +0.000 C 
BRANCH  14  15
ATOM     15  C   UNL     1       2.730   3.863  19.109  0.00  0.00    +0.000 C 
BRANCH  15  17
ATOM     16  C   UNL     1       0.711   2.386  18.849  0.00  0.00    +0.000 C 
ATOM     17  C   UNL     1       1.222   3.739  19.317  0.00  0.00    +0.000 C 
ENDBRANCH  15  17
ENDBRANCH  14  15
ENDBRANCH   1  14
BRANCH   2  18
ATOM     18  S   UNL     1       1.768   7.443  17.881  0.00  0.00    +0.000 S 
BRANCH  18  19
ATOM     19  C   UNL     1       1.616   8.911  18.914  0.00  0.00    +0.000 A 
ATOM     20  C   UNL     1       1.587  10.164  18.299  0.00  0.00    +0.000 A 
ATOM     21  C   UNL     1       1.263  11.316  19.026  0.00  0.00    +0.000 A 
ATOM     22  C   UNL     1       0.872  11.222  20.380  0.00  0.00    +0.000 A 
ATOM     23  C   UNL     1       0.915   9.971  21.037  0.00  0.00    +0.000 A 
ATOM     24  C   UNL     1       1.319   8.825  20.301  0.00  0.00    +0.000 A 
ATOM     25 CL   UNL     1       1.557   7.289  21.092  0.00  0.00    +0.000 Cl
BRANCH  21  26
ATOM     26  O   UNL     1       1.248  12.570  18.457  0.00  0.00    +0.000 OA
ATOM     27  C   UNL     1       2.524  13.137  18.176  0.00  0.00    +0.000 C 
ENDBRANCH  21  26
BRANCH  22  28
ATOM     28  O   UNL     1       0.564  12.425  20.979  0.00  0.00    +0.000 OA
ATOM     29  C   UNL     1      -0.808  12.799  21.049  0.00  0.00    +0.000 C 
ENDBRANCH  22  28
BRANCH  23  30
ATOM     30  O   UNL     1       0.706   9.991  22.397  0.00  0.00    +0.000 OA
ATOM     31  C   UNL     1      -0.571   9.586  22.886  0.00  0.00    +0.000 C 
ENDBRANCH  23  30
ENDBRANCH  18  19
ENDBRANCH   2  18
TORSDOF 8
ENDMDL
MODEL 2
REMARK VINA RESULT:      -6.3      5.235      8.303
REMARK  Name = 
REMARK  12 active torsions:
REMARK  status: ('A' for Active; 'I' for Inactive)
REMARK    1  A    between atoms: C_1  and  C_2
REMARK    2  A    between atoms: C_2  and  C_3
REMARK    3  A    between atoms: C_3  and  C_4
REMARK    4  A    between atoms: C_4  and  N_5
REMARK    5  A    between atoms: C_6  and  S_7
REMARK    6  A    between atoms: S_7  and  C_8
REMARK    7  A    between atoms: C_10  and  O_11
REMARK    8  A    between atoms: O_11  and  C_12
REMARK    9  A    between atoms: C_13  and  O_14
REMARK   10  A    between atoms: O_14  and  C_15
REMARK   11  A    between atoms: C_16  and  O_17
REMARK   12  A    between atoms: O_17  and  C_18
REMARK                            x       y       z     vdW  Elec       q    Type
REMARK                         _______ _______ _______ _____ _____    ______ ____
ROOT
ATOM      1  N   UNL     1      -1.055  11.274  19.123  0.00  0.00    +0.000 N 
ATOM      2  C   UNL     1      -0.155  10.387  18.567  0.00  0.00    +0.000 A 
ATOM      3  N   UNL     1      -0.644   9.828  17.474  0.00  0.00    +0.000 NA
ATOM      4  C   UNL     1      -1.925  10.351  17.338  0.00  0.00    +0.000 A 
ATOM      5  C   UNL     1      -2.941  10.224  16.372  0.00  0.00    +0.000 A 
ATOM      6  N   UNL     1      -2.810   9.513  15.191  0.00  0.00    +0.000 N 
ATOM      7  N   UNL     1      -4.126  10.845  16.573  0.00  0.00    +0.000 NA
ATOM      8  C   UNL     1      -4.274  11.613  17.671  0.00  0.00    +0.000 A 
ATOM      9  F   UNL     1      -5.481  12.174  17.853  0.00  0.00    +0.000 F 
ATOM     10  N   UNL     1      -3.350  11.877  18.608  0.00  0.00    +0.000 NA
ATOM     11  C   UNL     1      -2.208  11.207  18.384  0.00  0.00    +0.000 A 
ATOM     12  H   UNL     1      -2.100   8.791  15.190  0.00  0.00    +0.000 HD
ATOM     13  H   UNL     1      -3.698   9.323  14.750  0.00  0.00    +0.000 HD
ENDROOT
BRANCH   1  14
ATOM     14  C   UNL     1      -0.865  12.263  20.170  0.00  0.00    +0.000 C 
BRANCH  14  15
ATOM     15  C   UNL     1      -1.699  11.987  21.421  0.00  0.00    +0.000 C 
BRANCH  15  17
ATOM     16  C   UNL     1      -0.945  10.384  23.207  0.00  0.00    +0.000 C 
ATOM     17  C   UNL     1      -0.809  11.791  22.647  0.00  0.00    +0.000 C 
ENDBRANCH  15  17
ENDBRANCH  14  15
ENDBRANCH   1  14
BRANCH   2  18
ATOM     18  S   UNL     1       1.459  10.249  19.198  0.00  0.00    +0.000 S 
BRANCH  18  19
ATOM     19  C   UNL     1       1.941   8.523  19.007  0.00  0.00    +0.000 A 
ATOM     20  C   UNL     1       2.754   8.169  17.928  0.00  0.00    +0.000 A 
ATOM     21  C   UNL     1       3.327   6.894  17.847  0.00  0.00    +0.000 A 
ATOM     22  C   UNL     1       3.166   5.967  18.901  0.00  0.00    +0.000 A 
ATOM     23  C   UNL     1       2.330   6.288  19.994  0.00  0.00    +0.000 A 
ATOM     24  C   UNL     1       1.697   7.560  20.022  0.00  0.00    +0.000 A 
ATOM     25 CL   UNL     1       0.522   7.950  21.252  0.00  0.00    +0.000 Cl
BRANCH  21  26
ATOM     26  O   UNL     1       4.113   6.503  16.786  0.00  0.00    +0.000 OA
ATOM     27  C   UNL     1       5.436   7.033  16.768  0.00  0.00    +0.000 C 
ENDBRANCH  21  26
BRANCH  22  28
ATOM     28  O   UNL     1       3.791   4.754  18.706  0.00  0.00    +0.000 OA
ATOM     29  C   UNL     1       5.027   4.530  19.377  0.00  0.00    +0.000 C 
ENDBRANCH  22  28
BRANCH  23  30
ATOM     30  O   UNL     1       2.071   5.269  20.882  0.00  0.00    +0.000 OA
ATOM     31  C   UNL     1       1.094   4.296  20.520  0.00  0.00    +0.000 C 
ENDBRANCH  23  30
ENDBRANCH  18  19
ENDBRANCH   2  18
TORSDOF 8
ENDMDL
MODEL 3
REMARK VINA RESULT:      -6.2      4.760      8.531
REMARK  Name = 
REMARK  12 active torsions:
REMARK  status: ('A' for Active; 'I' for Inactive)
REMARK    1  A    between atoms: C_1  and  C_2
REMARK    2  A    between atoms: C_2  and  C_3
REMARK    3  A    between atoms: C_3  and  C_4
REMARK    4  A    between atoms: C_4  and  N_5
REMARK    5  A    between atoms: C_6  and  S_7
REMARK    6  A    between atoms: S_7  and  C_8
REMARK    7  A    between atoms: C_10  and  O_11
REMARK    8  A    between atoms: O_11  and  C_12
REMARK    9  A    between atoms: C_13  and  O_14
REMARK   10  A    between atoms: O_14  and  C_15
REMARK   11  A    between atoms: C_16  and  O_17
REMARK   12  A    between atoms: O_17  and  C_18
REMARK                            x       y       z     vdW  Elec       q    Type
REMARK                         _______ _______ _______ _____ _____    ______ ____
ROOT
ATOM      1  N   UNL     1       1.112  10.598  19.330  0.00  0.00    +0.000 N 
ATOM      2  C   UNL     1       1.339   9.238  19.377  0.00  0.00    +0.000 A 
ATOM      3  N   UNL     1       0.912   8.718  20.515  0.00  0.00    +0.000 NA
ATOM      4  C   UNL     1       0.420   9.794  21.246  0.00  0.00    +0.000 A 
ATOM      5  C   UNL     1      -0.223   9.923  22.491  0.00  0.00    +0.000 A 
ATOM      6  N   UNL     1      -0.592   8.857  23.293  0.00  0.00    +0.000 N 
ATOM      7  N   UNL     1      -0.533  11.157  22.949  0.00  0.00    +0.000 NA
ATOM      8  C   UNL     1      -0.265  12.223  22.168  0.00  0.00    +0.000 A 
ATOM      9  F   UNL     1      -0.549  13.431  22.681  0.00  0.00    +0.000 F 
ATOM     10  N   UNL     1       0.262  12.212  20.933  0.00  0.00    +0.000 NA
ATOM     11  C   UNL     1       0.589  10.970  20.542  0.00  0.00    +0.000 A 
ATOM     12  H   UNL     1      -0.078   7.997  23.143  0.00  0.00    +0.000 HD
ATOM     13  H   UNL     1      -0.807   9.136  24.239  0.00  0.00    +0.000 HD
ENDROOT
BRANCH   1  14
ATOM     14  C   UNL     1       1.202  11.522  18.212  0.00  0.00    +0.000 C 
BRANCH  14  15
ATOM     15  C   UNL     1       2.556  12.224  18.115  0.00  0.00    +0.000 C 
BRANCH  15  17
ATOM     16  C   UNL     1       3.773  14.418  18.295  0.00  0.00    +0.000 C 
ATOM     17  C   UNL     1       2.431  13.714  18.428  0.00  0.00    +0.000 C 
ENDBRANCH  15  17
ENDBRANCH  14  15
ENDBRANCH   1  14
BRANCH   2  18
ATOM     18  S   UNL     1       1.937   8.390  17.981  0.00  0.00    +0.000 S 
BRANCH  18  19
ATOM     19  C   UNL     1       2.841   6.958  18.596  0.00  0.00    +0.000 A 
ATOM     20  C   UNL     1       2.320   6.252  19.683  0.00  0.00    +0.000 A 
ATOM     21  C   UNL     1       2.864   5.020  20.068  0.00  0.00    +0.000 A 
ATOM     22  C   UNL     1       3.895   4.424  19.308  0.00  0.00    +0.000 A 
ATOM     23  C   UNL     1       4.458   5.125  18.218  0.00  0.00    +0.000 A 
ATOM     24  C   UNL     1       3.943   6.407  17.889  0.00  0.00    +0.000 A 
ATOM     25 CL   UNL     1       4.705   7.393  16.669  0.00  0.00    +0.000 Cl
BRANCH  21  26
ATOM     26  O   UNL     1       2.392   4.309  21.148  0.00  0.00    +0.000 OA
ATOM     27  C   UNL     1       1.155   3.630  20.949  0.00  0.00    +0.000 C 
ENDBRANCH  21  26
BRANCH  22  28
ATOM     28  O   UNL     1       4.333   3.205  19.784  0.00  0.00    +0.000 OA
ATOM     29  C   UNL     1       3.865   2.031  19.128  0.00  0.00    +0.000 C 
ENDBRANCH  22  28
BRANCH  23  30
ATOM     30  O   UNL     1       5.580   4.566  17.650  0.00  0.00    +0.000 OA
ATOM     31  C   UNL     1       5.463   4.005  16.345  0.00  0.00    +0.000 C 
ENDBRANCH  23  30
ENDBRANCH  18  19
ENDBRANCH   2  18
TORSDOF 8
ENDMDL
MODEL 4
REMARK VINA RESULT:      -6.2      5.005      8.350
REMARK  Name = 
REMARK  12 active torsions:
REMARK  status: ('A' for Active; 'I' for Inactive)
REMARK    1  A    between atoms: C_1  and  C_2
REMARK    2  A    between atoms: C_2  and  C_3
REMARK    3  A    between atoms: C_3  and  C_4
REMARK    4  A    between atoms: C_4  and  N_5
REMARK    5  A    between atoms: C_6  and  S_7
REMARK    6  A    between atoms: S_7  and  C_8
REMARK    7  A    between atoms: C_10  and  O_11
REMARK    8  A    between atoms: O_11  and  C_12
REMARK    9  A    between atoms: C_13  and  O_14
REMARK   10  A    between atoms: O_14  and  C_15
REMARK   11  A    between atoms: C_16  and  O_17
REMARK   12  A    between atoms: O_17  and  C_18
REMARK                            x       y       z     vdW  Elec       q    Type
REMARK                         _______ _______ _______ _____ _____    ______ ____
ROOT
ATOM      1  N   UNL     1       0.183  10.271  19.310  0.00  0.00    +0.000 N 
ATOM      2  C   UNL     1       1.093   9.249  19.493  0.00  0.00    +0.000 A 
ATOM      3  N   UNL     1       1.193   8.917  20.768  0.00  0.00    +0.000 NA
ATOM      4  C   UNL     1       0.337   9.782  21.440  0.00  0.00    +0.000 A 
ATOM      5  C   UNL     1      -0.067   9.921  22.781  0.00  0.00    +0.000 A 
ATOM      6  N   UNL     1       0.313   9.067  23.801  0.00  0.00    +0.000 N 
ATOM      7  N   UNL     1      -0.899  10.933  23.119  0.00  0.00    +0.000 NA
ATOM      8  C   UNL     1      -1.358  11.744  22.146  0.00  0.00    +0.000 A 
ATOM      9  F   UNL     1      -2.146  12.761  22.534  0.00  0.00    +0.000 F 
ATOM     10  N   UNL     1      -1.113  11.653  20.829  0.00  0.00    +0.000 NA
ATOM     11  C   UNL     1      -0.253  10.660  20.551  0.00  0.00    +0.000 A 
ATOM     12  H   UNL     1       1.168   8.548  23.644  0.00  0.00    +0.000 HD
ATOM     13  H   UNL     1       0.140   9.454  24.718  0.00  0.00    +0.000 HD
ENDROOT
BRANCH   1  14
ATOM     14  C   UNL     1      -0.407  10.788  18.087  0.00  0.00    +0.000 C 
BRANCH  14  15
ATOM     15  C   UNL     1      -1.461   9.860  17.484  0.00  0.00    +0.000 C 
BRANCH  15  17
ATOM     16  C   UNL     1      -3.583  10.864  16.580  0.00  0.00    +0.000 C 
ATOM     17  C   UNL     1      -2.874  10.335  17.817  0.00  0.00    +0.000 C 
ENDBRANCH  15  17
ENDBRANCH  14  15
ENDBRANCH   1  14
BRANCH   2  18
ATOM     18  S   UNL     1       1.810   8.446  18.128  0.00  0.00    +0.000 S 
BRANCH  18  19
ATOM     19  C   UNL     1       2.684   7.009  18.775  0.00  0.00    +0.000 A 
ATOM     20  C   UNL     1       2.087   6.264  19.794  0.00  0.00    +0.000 A 
ATOM     21  C   UNL     1       2.618   5.030  20.189  0.00  0.00    +0.000 A 
ATOM     22  C   UNL     1       3.718   4.471  19.502  0.00  0.00    +0.000 A 
ATOM     23  C   UNL     1       4.358   5.211  18.482  0.00  0.00    +0.000 A 
ATOM     24  C   UNL     1       3.850   6.495  18.148  0.00  0.00    +0.000 A 
ATOM     25 CL   UNL     1       4.694   7.528  17.023  0.00  0.00    +0.000 Cl
BRANCH  21  26
ATOM     26  O   UNL     1       2.069   4.281  21.206  0.00  0.00    +0.000 OA
ATOM     27  C   UNL     1       0.981   3.438  20.836  0.00  0.00    +0.000 C 
ENDBRANCH  21  26
BRANCH  22  28
ATOM     28  O   UNL     1       4.135   3.245  19.978  0.00  0.00    +0.000 OA
ATOM     29  C   UNL     1       3.837   2.094  19.194  0.00  0.00    +0.000 C 
ENDBRANCH  22  28
BRANCH  23  30
ATOM     30  O   UNL     1       5.532   4.685  17.994  0.00  0.00    +0.000 OA
ATOM     31  C   UNL     1       5.539   4.184  16.660  0.00  0.00    +0.000 C 
ENDBRANCH  23  30
ENDBRANCH  18  19
ENDBRANCH   2  18
TORSDOF 8
ENDMDL
MODEL 5
REMARK VINA RESULT:      -6.1      4.625      7.479
REMARK  Name = 
REMARK  12 active torsions:
REMARK  status: ('A' for Active; 'I' for Inactive)
REMARK    1  A    between atoms: C_1  and  C_2
REMARK    2  A    between atoms: C_2  and  C_3
REMARK    3  A    between atoms: C_3  and  C_4
REMARK    4  A    between atoms: C_4  and  N_5
REMARK    5  A    between atoms: C_6  and  S_7
REMARK    6  A    between atoms: S_7  and  C_8
REMARK    7  A    between atoms: C_10  and  O_11
REMARK    8  A    between atoms: O_11  and  C_12
REMARK    9  A    between atoms: C_13  and  O_14
REMARK   10  A    between atoms: O_14  and  C_15
REMARK   11  A    between atoms: C_16  and  O_17
REMARK   12  A    between atoms: O_17  and  C_18
REMARK                            x       y       z     vdW  Elec       q    Type
REMARK                         _______ _______ _______ _____ _____    ______ ____
ROOT
ATOM      1  N   UNL     1       2.460   5.240  19.658  0.00  0.00    +0.000 N 
ATOM      2  C   UNL     1       2.825   5.122  18.333  0.00  0.00    +0.000 A 
ATOM      3  N   UNL     1       2.721   6.279  17.701  0.00  0.00    +0.000 NA
ATOM      4  C   UNL     1       2.237   7.172  18.651  0.00  0.00    +0.000 A 
ATOM      5  C   UNL     1       1.967   8.553  18.653  0.00  0.00    +0.000 A 
ATOM      6  N   UNL     1       2.229   9.401  17.591  0.00  0.00    +0.000 N 
ATOM      7  N   UNL     1       1.436   9.120  19.760  0.00  0.00    +0.000 NA
ATOM      8  C   UNL     1       1.236   8.350  20.848  0.00  0.00    +0.000 A 
ATOM      9  F   UNL     1       0.667   8.946  21.909  0.00  0.00    +0.000 F 
ATOM     10  N   UNL     1       1.537   7.050  20.989  0.00  0.00    +0.000 NA
ATOM     11  C   UNL     1       2.022   6.525  19.852  0.00  0.00    +0.000 A 
ATOM     12  H   UNL     1       2.290   8.959  16.681  0.00  0.00    +0.000 HD
ATOM     13  H   UNL     1       1.751  10.286  17.671  0.00  0.00    +0.000 HD
ENDROOT
BRANCH   1  14
ATOM     14  C   UNL     1       2.633   4.309  20.760  0.00  0.00    +0.000 C 
BRANCH  14  15
ATOM     15  C   UNL     1       1.391   3.462  21.037  0.00  0.00    +0.000 C 
BRANCH  15  17
ATOM     16  C   UNL     1       0.515   2.296  18.987  0.00  0.00    +0.000 C 
ATOM     17  C   UNL     1       1.405   2.175  20.215  0.00  0.00    +0.000 C 
ENDBRANCH  15  17
ENDBRANCH  14  15
ENDBRANCH   1  14
BRANCH   2  18
ATOM     18  S   UNL     1       3.505   3.641  17.728  0.00  0.00    +0.000 S 
BRANCH  18  19
ATOM     19  C   UNL     1       5.022   4.085  16.862  0.00  0.00    +0.000 A 
ATOM     20  C   UNL     1       5.191   3.658  15.544  0.00  0.00    +0.000 A 
ATOM     21  C   UNL     1       6.245   4.144  14.760  0.00  0.00    +0.000 A 
ATOM     22  C   UNL     1       7.106   5.146  15.259  0.00  0.00    +0.000 A 
ATOM     23  C   UNL     1       6.974   5.581  16.597  0.00  0.00    +0.000 A 
ATOM     24  C   UNL     1       5.945   5.020  17.401  0.00  0.00    +0.000 A 
ATOM     25 CL   UNL     1       5.837   5.387  19.103  0.00  0.00    +0.000 Cl
BRANCH  21  26
ATOM     26  O   UNL     1       6.456   3.726  13.465  0.00  0.00    +0.000 OA
ATOM     27  C   UNL     1       5.286   3.399  12.721  0.00  0.00    +0.000 C 
ENDBRANCH  21  26
BRANCH  22  28
ATOM     28  O   UNL     1       8.093   5.549  14.384  0.00  0.00    +0.000 OA
ATOM     29  C   UNL     1       7.741   5.699  13.012  0.00  0.00    +0.000 C 
ENDBRANCH  22  28
BRANCH  23  30
ATOM     30  O   UNL     1       7.964   6.414  17.066  0.00  0.00    +0.000 OA
ATOM     31  C   UNL     1       7.609   7.750  17.412  0.00  0.00    +0.000 C 
ENDBRANCH  23  30
ENDBRANCH  18  19
ENDBRANCH   2  18
TORSDOF 8
ENDMDL
MODEL 6
REMARK VINA RESULT:      -6.0      1.793      2.879
REMARK  Name = 
REMARK  12 active torsions:
REMARK  status: ('A' for Active; 'I' for Inactive)
REMARK    1  A    between atoms: C_1  and  C_2
REMARK    2  A    between atoms: C_2  and  C_3
REMARK    3  A    between atoms: C_3  and  C_4
REMARK    4  A    between atoms: C_4  and  N_5
REMARK    5  A    between atoms: C_6  and  S_7
REMARK    6  A    between atoms: S_7  and  C_8
REMARK    7  A    between atoms: C_10  and  O_11
REMARK    8  A    between atoms: O_11  and  C_12
REMARK    9  A    between atoms: C_13  and  O_14
REMARK   10  A    between atoms: O_14  and  C_15
REMARK   11  A    between atoms: C_16  and  O_17
REMARK   12  A    between atoms: O_17  and  C_18
REMARK                            x       y       z     vdW  Elec       q    Type
REMARK                         _______ _______ _______ _____ _____    ______ ____
ROOT
ATOM      1  N   UNL     1       3.859   4.657  17.896  0.00  0.00    +0.000 N 
ATOM      2  C   UNL     1       3.871   5.509  18.981  0.00  0.00    +0.000 A 
ATOM      3  N   UNL     1       4.848   6.394  18.887  0.00  0.00    +0.000 NA
ATOM      4  C   UNL     1       5.516   6.078  17.709  0.00  0.00    +0.000 A 
ATOM      5  C   UNL     1       6.589   6.653  17.004  0.00  0.00    +0.000 A 
ATOM      6  N   UNL     1       7.218   7.831  17.365  0.00  0.00    +0.000 N 
ATOM      7  N   UNL     1       7.042   6.047  15.882  0.00  0.00    +0.000 NA
ATOM      8  C   UNL     1       6.410   4.938  15.446  0.00  0.00    +0.000 A 
ATOM      9  F   UNL     1       6.921   4.346  14.354  0.00  0.00    +0.000 F 
ATOM     10  N   UNL     1       5.328   4.356  15.985  0.00  0.00    +0.000 NA
ATOM     11  C   UNL     1       4.943   4.969  17.116  0.00  0.00    +0.000 A 
ATOM     12  H   UNL     1       7.134   8.092  18.340  0.00  0.00    +0.000 HD
ATOM     13  H   UNL     1       8.107   7.956  16.902  0.00  0.00    +0.000 HD
ENDROOT
BRANCH   1  14
ATOM     14  C   UNL     1       2.851   3.702  17.469  0.00  0.00    +0.000 C 
BRANCH  14  15
ATOM     15  C   UNL     1       3.122   2.278  17.955  0.00  0.00    +0.000 C 
BRANCH  15  17
ATOM     16  C   UNL     1       0.759   2.414  18.806  0.00  0.00    +0.000 C 
ATOM     17  C   UNL     1       2.158   1.882  19.072  0.00  0.00    +0.000 C 
ENDBRANCH  15  17
ENDBRANCH  14  15
ENDBRANCH   1  14
BRANCH   2  18
ATOM     18  S   UNL     1       2.596   5.459  20.162  0.00  0.00    +0.000 S 
BRANCH  18  19
ATOM     19  C   UNL     1       1.848   7.098  20.184  0.00  0.00    +0.000 A 
ATOM     20  C   UNL     1       1.692   7.748  21.411  0.00  0.00    +0.000 A 
ATOM     21  C   UNL     1       1.314   9.095  21.468  0.00  0.00    +0.000 A 
ATOM     22  C   UNL     1       1.168   9.849  20.283  0.00  0.00    +0.000 A 
ATOM     23  C   UNL     1       1.296   9.214  19.027  0.00  0.00    +0.000 A 
ATOM     24  C   UNL     1       1.607   7.828  18.990  0.00  0.00    +0.000 A 
ATOM     25 CL   UNL     1       1.609   6.950  17.483  0.00  0.00    +0.000 Cl
BRANCH  21  26
ATOM     26  O   UNL     1       1.127   9.760  22.660  0.00  0.00    +0.000 OA
ATOM     27  C   UNL     1      -0.096   9.486  23.336  0.00  0.00    +0.000 C 
ENDBRANCH  21  26
BRANCH  22  28
ATOM     28  O   UNL     1       0.807  11.166  20.477  0.00  0.00    +0.000 OA
ATOM     29  C   UNL     1       1.795  12.165  20.242  0.00  0.00    +0.000 C 
ENDBRANCH  22  28
BRANCH  23  30
ATOM     30  O   UNL     1       0.954   9.966  17.928  0.00  0.00    +0.000 OA
ATOM     31  C   UNL     1      -0.429  10.090  17.603  0.00  0.00    +0.000 C 
ENDBRANCH  23  30
ENDBRANCH  18  19
ENDBRANCH   2  18
TORSDOF 8
ENDMDL
MODEL 7
REMARK VINA RESULT:      -6.0      2.388      4.457
REMARK  Name = 
REMARK  12 active torsions:
REMARK  status: ('A' for Active; 'I' for Inactive)
REMARK    1  A    between atoms: C_1  and  C_2
REMARK    2  A    between atoms: C_2  and  C_3
REMARK    3  A    between atoms: C_3  and  C_4
REMARK    4  A    between atoms: C_4  and  N_5
REMARK    5  A    between atoms: C_6  and  S_7
REMARK    6  A    between atoms: S_7  and  C_8
REMARK    7  A    between atoms: C_10  and  O_11
REMARK    8  A    between atoms: O_11  and  C_12
REMARK    9  A    between atoms: C_13  and  O_14
REMARK   10  A    between atoms: O_14  and  C_15
REMARK   11  A    between atoms: C_16  and  O_17
REMARK   12  A    between atoms: O_17  and  C_18
REMARK                            x       y       z     vdW  Elec       q    Type
REMARK                         _______ _______ _______ _____ _____    ______ ____
ROOT
ATOM      1  N   UNL     1       3.401   5.693  17.709  0.00  0.00    +0.000 N 
ATOM      2  C   UNL     1       2.485   6.531  18.313  0.00  0.00    +0.000 A 
ATOM      3  N   UNL     1       1.728   5.874  19.175  0.00  0.00    +0.000 NA
ATOM      4  C   UNL     1       2.150   4.552  19.099  0.00  0.00    +0.000 A 
ATOM      5  C   UNL     1       1.810   3.371  19.784  0.00  0.00    +0.000 A 
ATOM      6  N   UNL     1       0.923   3.313  20.845  0.00  0.00    +0.000 N 
ATOM      7  N   UNL     1       2.390   2.205  19.419  0.00  0.00    +0.000 NA
ATOM      8  C   UNL     1       3.319   2.223  18.442  0.00  0.00    +0.000 A 
ATOM      9  F   UNL     1       3.835   1.036  18.082  0.00  0.00    +0.000 F 
ATOM     10  N   UNL     1       3.784   3.296  17.784  0.00  0.00    +0.000 NA
ATOM     11  C   UNL     1       3.150   4.420  18.154  0.00  0.00    +0.000 A 
ATOM     12  H   UNL     1       0.251   4.069  20.897  0.00  0.00    +0.000 HD
ATOM     13  H   UNL     1       0.614   2.372  21.045  0.00  0.00    +0.000 HD
ENDROOT
BRANCH   1  14
ATOM     14  C   UNL     1       4.558   6.010  16.889  0.00  0.00    +0.000 C 
BRANCH  14  15
ATOM     15  C   UNL     1       5.768   6.468  17.702  0.00  0.00    +0.000 C 
BRANCH  15  17
ATOM     16  C   UNL     1       7.414   4.586  17.429  0.00  0.00    +0.000 C 
ATOM     17  C   UNL     1       7.075   6.020  17.051  0.00  0.00    +0.000 C 
ENDBRANCH  15  17
ENDBRANCH  14  15
ENDBRANCH   1  14
BRANCH   2  18
ATOM     18  S   UNL     1       2.542   8.248  18.044  0.00  0.00    +0.000 S 
BRANCH  18  19
ATOM     19  C   UNL     1       1.329   8.984  19.154  0.00  0.00    +0.000 A 
ATOM     20  C   UNL     1       1.646   9.105  20.509  0.00  0.00    +0.000 A 
ATOM     21  C   UNL     1       0.836   9.851  21.374  0.00  0.00    +0.000 A 
ATOM     22  C   UNL     1      -0.271  10.572  20.875  0.00  0.00    +0.000 A 
ATOM     23  C   UNL     1      -0.631  10.450  19.513  0.00  0.00    +0.000 A 
ATOM     24  C   UNL     1       0.160   9.628  18.667  0.00  0.00    +0.000 A 
ATOM     25 CL   UNL     1      -0.328   9.301  17.025  0.00  0.00    +0.000 Cl
BRANCH  21  26
ATOM     26  O   UNL     1       1.106   9.971  22.719  0.00  0.00    +0.000 OA
ATOM     27  C   UNL     1       0.219   9.277  23.592  0.00  0.00    +0.000 C 
ENDBRANCH  21  26
BRANCH  22  28
ATOM     28  O   UNL     1      -0.978  11.278  21.825  0.00  0.00    +0.000 OA
ATOM     29  C   UNL     1      -0.706  12.670  21.954  0.00  0.00    +0.000 C 
ENDBRANCH  22  28
BRANCH  23  30
ATOM     30  O   UNL     1      -1.825  11.026  19.147  0.00  0.00    +0.000 OA
ATOM     31  C   UNL     1      -1.785  12.215  18.361  0.00  0.00    +0.000 C 
ENDBRANCH  23  30
ENDBRANCH  18  19
ENDBRANCH   2  18
TORSDOF 8
ENDMDL
MODEL 8
REMARK VINA RESULT:      -6.0      3.445      5.150
REMARK  Name = 
REMARK  12 active torsions:
REMARK  status: ('A' for Active; 'I' for Inactive)
REMARK    1  A    between atoms: C_1  and  C_2
REMARK    2  A    between atoms: C_2  and  C_3
REMARK    3  A    between atoms: C_3  and  C_4
REMARK    4  A    between atoms: C_4  and  N_5
REMARK    5  A    between atoms: C_6  and  S_7
REMARK    6  A    between atoms: S_7  and  C_8
REMARK    7  A    between atoms: C_10  and  O_11
REMARK    8  A    between atoms: O_11  and  C_12
REMARK    9  A    between atoms: C_13  and  O_14
REMARK   10  A    between atoms: O_14  and  C_15
REMARK   11  A    between atoms: C_16  and  O_17
REMARK   12  A    between atoms: O_17  and  C_18
REMARK                            x       y       z     vdW  Elec       q    Type
REMARK                         _______ _______ _______ _____ _____    ______ ____
ROOT
ATOM      1  N   UNL     1       1.840   7.945  20.027  0.00  0.00    +0.000 N 
ATOM      2  C   UNL     1       2.096   8.339  18.729  0.00  0.00    +0.000 A 
ATOM      3  N   UNL     1       2.238   7.296  17.929  0.00  0.00    +0.000 NA
ATOM      4  C   UNL     1       2.101   6.183  18.752  0.00  0.00    +0.000 A 
ATOM      5  C   UNL     1       2.082   4.794  18.529  0.00  0.00    +0.000 A 
ATOM      6  N   UNL     1       2.138   4.203  17.279  0.00  0.00    +0.000 N 
ATOM      7  N   UNL     1       1.981   3.957  19.588  0.00  0.00    +0.000 NA
ATOM      8  C   UNL     1       1.845   4.487  20.820  0.00  0.00    +0.000 A 
ATOM      9  F   UNL     1       1.792   3.619  21.844  0.00  0.00    +0.000 F 
ATOM     10  N   UNL     1       1.761   5.787  21.139  0.00  0.00    +0.000 NA
ATOM     11  C   UNL     1       1.907   6.575  20.062  0.00  0.00    +0.000 A 
ATOM     12  H   UNL     1       2.550   4.767  16.546  0.00  0.00    +0.000 HD
ATOM     13  H   UNL     1       2.364   3.219  17.322  0.00  0.00    +0.000 HD
ENDROOT
BRANCH   1  14
ATOM     14  C   UNL     1       1.396   8.725  21.169  0.00  0.00    +0.000 C 
BRANCH  14  15
ATOM     15  C   UNL     1      -0.103   8.604  21.439  0.00  0.00    +0.000 C 
BRANCH  15  17
ATOM     16  C   UNL     1      -0.742  10.473  22.996  0.00  0.00    +0.000 C 
ATOM     17  C   UNL     1      -0.439   8.987  22.879  0.00  0.00    +0.000 C 
ENDBRANCH  15  17
ENDBRANCH  14  15
ENDBRANCH   1  14
BRANCH   2  18
ATOM     18  S   UNL     1       2.024  10.017  18.281  0.00  0.00    +0.000 S 
BRANCH  18  19
ATOM     19  C   UNL     1       0.282  10.477  18.286  0.00  0.00    +0.000 A 
ATOM     20  C   UNL     1      -0.578   9.859  17.376  0.00  0.00    +0.000 A 
ATOM     21  C   UNL     1      -1.966  10.021  17.472  0.00  0.00    +0.000 A 
ATOM     22  C   UNL     1      -2.529  10.743  18.547  0.00  0.00    +0.000 A 
ATOM     23  C   UNL     1      -1.684  11.400  19.470  0.00  0.00    +0.000 A 
ATOM     24  C   UNL     1      -0.277  11.286  19.311  0.00  0.00    +0.000 A 
ATOM     25 CL   UNL     1       0.816  12.209  20.310  0.00  0.00    +0.000 Cl
BRANCH  21  26
ATOM     26  O   UNL     1      -2.840   9.446  16.578  0.00  0.00    +0.000 OA
ATOM     27  C   UNL     1      -2.805   9.968  15.253  0.00  0.00    +0.000 C 
ENDBRANCH  21  26
BRANCH  22  28
ATOM     28  O   UNL     1      -3.906  10.817  18.536  0.00  0.00    +0.000 OA
ATOM     29  C   UNL     1      -4.505  11.916  17.856  0.00  0.00    +0.000 C 
ENDBRANCH  22  28
BRANCH  23  30
ATOM     30  O   UNL     1      -2.302  12.236  20.371  0.00  0.00    +0.000 OA
ATOM     31  C   UNL     1      -2.188  13.643  20.170  0.00  0.00    +0.000 C 
ENDBRANCH  23  30
ENDBRANCH  18  19
ENDBRANCH   2  18
TORSDOF 8
ENDMDL
MODEL 9
REMARK VINA RESULT:      -5.9      5.163      8.494
REMARK  Name = 
REMARK  12 active torsions:
REMARK  status: ('A' for Active; 'I' for Inactive)
REMARK    1  A    between atoms: C_1  and  C_2
REMARK    2  A    between atoms: C_2  and  C_3
REMARK    3  A    between atoms: C_3  and  C_4
REMARK    4  A    between atoms: C_4  and  N_5
REMARK    5  A    between atoms: C_6  and  S_7
REMARK    6  A    between atoms: S_7  and  C_8
REMARK    7  A    between atoms: C_10  and  O_11
REMARK    8  A    between atoms: O_11  and  C_12
REMARK    9  A    between atoms: C_13  and  O_14
REMARK   10  A    between atoms: O_14  and  C_15
REMARK   11  A    between atoms: C_16  and  O_17
REMARK   12  A    between atoms: O_17  and  C_18
REMARK                            x       y       z     vdW  Elec       q    Type
REMARK                         _______ _______ _______ _____ _____    ______ ____
ROOT
ATOM      1  N   UNL     1      -0.646  10.966  19.267  0.00  0.00    +0.000 N 
ATOM      2  C   UNL     1       0.179  10.127  18.546  0.00  0.00    +0.000 A 
ATOM      3  N   UNL     1      -0.422   9.684  17.455  0.00  0.00    +0.000 NA
ATOM      4  C   UNL     1      -1.699  10.234  17.492  0.00  0.00    +0.000 A 
ATOM      5  C   UNL     1      -2.802  10.214  16.619  0.00  0.00    +0.000 A 
ATOM      6  N   UNL     1      -2.798   9.621  15.369  0.00  0.00    +0.000 N 
ATOM      7  N   UNL     1      -3.950  10.827  16.991  0.00  0.00    +0.000 NA
ATOM      8  C   UNL     1      -3.978  11.485  18.167  0.00  0.00    +0.000 A 
ATOM      9  F   UNL     1      -5.151  12.041  18.515  0.00  0.00    +0.000 F 
ATOM     10  N   UNL     1      -2.966  11.645  19.033  0.00  0.00    +0.000 NA
ATOM     11  C   UNL     1      -1.865  10.986  18.638  0.00  0.00    +0.000 A 
ATOM     12  H   UNL     1      -2.107   8.893  15.231  0.00  0.00    +0.000 HD
ATOM     13  H   UNL     1      -3.727   9.486  14.997  0.00  0.00    +0.000 HD
ENDROOT
BRANCH   1  14
ATOM     14  C   UNL     1      -0.338  11.845  20.382  0.00  0.00    +0.000 C 
BRANCH  14  15
ATOM     15  C   UNL     1       0.191  13.211  19.947  0.00  0.00    +0.000 C 
BRANCH  15  17
ATOM     16  C   UNL     1      -0.021  14.467  22.116  0.00  0.00    +0.000 C 
ATOM     17  C   UNL     1      -0.522  14.342  20.686  0.00  0.00    +0.000 C 
ENDBRANCH  15  17
ENDBRANCH  14  15
ENDBRANCH   1  14
BRANCH   2  18
ATOM     18  S   UNL     1       1.841   9.908  19.004  0.00  0.00    +0.000 S 
BRANCH  18  19
ATOM     19  C   UNL     1       2.178   8.141  18.896  0.00  0.00    +0.000 A 
ATOM     20  C   UNL     1       2.916   7.664  17.811  0.00  0.00    +0.000 A 
ATOM     21  C   UNL     1       3.382   6.343  17.783  0.00  0.00    +0.000 A 
ATOM     22  C   UNL     1       3.191   5.492  18.894  0.00  0.00    +0.000 A 
ATOM     23  C   UNL     1       2.427   5.939  19.996  0.00  0.00    +0.000 A 
ATOM     24  C   UNL     1       1.898   7.257  19.973  0.00  0.00    +0.000 A 
ATOM     25 CL   UNL     1       0.809   7.808  21.219  0.00  0.00    +0.000 Cl
BRANCH  21  26
ATOM     26  O   UNL     1       4.092   5.833  16.719  0.00  0.00    +0.000 OA
ATOM     27  C   UNL     1       5.174   6.635  16.255  0.00  0.00    +0.000 C 
ENDBRANCH  21  26
BRANCH  22  28
ATOM     28  O   UNL     1       3.710   4.223  18.746  0.00  0.00    +0.000 OA
ATOM     29  C   UNL     1       4.982   3.956  19.327  0.00  0.00    +0.000 C 
ENDBRANCH  22  28
BRANCH  23  30
ATOM     30  O   UNL     1       2.125   4.994  20.949  0.00  0.00    +0.000 OA
ATOM     31  C   UNL     1       1.131   4.020  20.637  0.00  0.00    +0.000 C 
ENDBRANCH  23  30
ENDBRANCH  18  19
ENDBRANCH   2  18
TORSDOF 8
ENDMDL
