MODEL 1
REMARK VINA RESULT:      -6.2      0.000      0.000
REMARK  Name = 
REMARK  4 active torsions:
REMARK  status: ('A' for Active; 'I' for Inactive)
REMARK    1  A    between atoms: N_1  and  C_2
REMARK    2  A    between atoms: C_9  and  O_10
REMARK    3  A    between atoms: C_11  and  O_12
REMARK    4  A    between atoms: C_13  and  O_14
REMARK                            x       y       z     vdW  Elec       q    Type
REMARK                         _______ _______ _______ _____ _____    ______ ____
ROOT
ATOM      1  C   UNL     1       4.335   3.829  19.252  0.00  0.00    +0.000 C 
ATOM      2  C   UNL     1       4.536   5.338  19.311  0.00  0.00    +0.000 C 
ATOM      3  C   UNL     1       5.817   5.715  18.567  0.00  0.00    +0.000 C 
ATOM      4  C   UNL     1       5.926   5.087  17.199  0.00  0.00    +0.000 A 
ATOM      5  C   UNL     1       5.144   3.972  16.829  0.00  0.00    +0.000 A 
ATOM      6  C   UNL     1       5.274   3.438  15.530  0.00  0.00    +0.000 A 
ATOM      7  C   UNL     1       6.195   3.963  14.619  0.00  0.00    +0.000 A 
ATOM      8  C   UNL     1       6.986   5.032  15.009  0.00  0.00    +0.000 A 
ATOM      9  C   UNL     1       6.856   5.584  16.283  0.00  0.00    +0.000 A 
ATOM     10  C   UNL     1       4.116   3.385  17.779  0.00  0.00    +0.000 C 
ENDROOT
BRANCH   1  11
ATOM     11  N   UNL     1       3.204   3.436  20.108  0.00  0.00    +0.000 NA
ATOM     12  H   UNL     1       2.692   4.266  20.401  0.00  0.00    +0.000 HD
ATOM     13  H   UNL     1       3.583   3.009  20.956  0.00  0.00    +0.000 HD
ENDBRANCH   1  11
BRANCH   8  14
ATOM     14  O   UNL     1       7.915   5.586  14.170  0.00  0.00    +0.000 OA
ATOM     15  H   UNL     1       7.477   5.786  13.325  0.00  0.00    +0.000 HD
ENDBRANCH   8  14
BRANCH   9  16
ATOM     16  O   UNL     1       7.664   6.635  16.627  0.00  0.00    +0.000 OA
ATOM     17  H   UNL     1       8.545   6.233  16.762  0.00  0.00    +0.000 HD
ENDBRANCH   9  16
BRANCH  10  18
ATOM     18  O   UNL     1       4.163   1.951  17.736  0.00  0.00    +0.000 OA
ATOM     19  H   UNL     1       3.677   1.635  18.517  0.00  0.00    +0.000 HD
ENDBRANCH  10  18
TORSDOF 4
ENDMDL
MODEL 2
REMARK VINA RESULT:      -6.1      2.036      2.577
REMARK  Name = 
REMARK  4 active torsions:
REMARK  status: ('A' for Active; 'I' for Inactive)
REMARK    1  A    between atoms: N_1  and  C_2
REMARK    2  A    between atoms: C_9  and  O_10
REMARK    3  A    between atoms: C_11  and  O_12
REMARK    4  A    between atoms: C_13  and  O_14
REMARK                            x       y       z     vdW  Elec       q    Type
REMARK                         _______ _______ _______ _____ _____    ______ ____
ROOT
ATOM      1  C   UNL     1       2.112   2.781  18.517  0.00  0.00    +0.000 C 
ATOM      2  C   UNL     1       1.337   4.027  18.104  0.00  0.00    +0.000 C 
ATOM      3  C   UNL     1       2.252   5.249  18.181  0.00  0.00    +0.000 C 
ATOM      4  C   UNL     1       3.587   5.047  17.506  0.00  0.00    +0.000 A 
ATOM      5  C   UNL     1       4.080   3.759  17.206  0.00  0.00    +0.000 A 
ATOM      6  C   UNL     1       5.326   3.629  16.558  0.00  0.00    +0.000 A 
ATOM      7  C   UNL     1       6.101   4.751  16.248  0.00  0.00    +0.000 A 
ATOM      8  C   UNL     1       5.624   6.008  16.584  0.00  0.00    +0.000 A 
ATOM      9  C   UNL     1       4.385   6.154  17.208  0.00  0.00    +0.000 A 
ATOM     10  C   UNL     1       3.261   2.516  17.505  0.00  0.00    +0.000 C 
ENDROOT
BRANCH   1  11
ATOM     11  N   UNL     1       1.202   1.629  18.614  0.00  0.00    +0.000 NA
ATOM     12  H   UNL     1       1.697   0.778  18.350  0.00  0.00    +0.000 HD
ATOM     13  H   UNL     1       0.453   1.758  17.929  0.00  0.00    +0.000 HD
ENDBRANCH   1  11
BRANCH   8  14
ATOM     14  O   UNL     1       6.338   7.145  16.320  0.00  0.00    +0.000 OA
ATOM     15  H   UNL     1       6.819   7.012  15.486  0.00  0.00    +0.000 HD
ENDBRANCH   8  14
BRANCH   9  16
ATOM     16  O   UNL     1       3.958   7.414  17.529  0.00  0.00    +0.000 OA
ATOM     17  H   UNL     1       4.379   7.993  16.863  0.00  0.00    +0.000 HD
ENDBRANCH   9  16
BRANCH  10  18
ATOM     18  O   UNL     1       4.102   1.486  18.048  0.00  0.00    +0.000 OA
ATOM     19  H   UNL     1       4.827   1.939  18.512  0.00  0.00    +0.000 HD
ENDBRANCH  10  18
TORSDOF 4
ENDMDL
MODEL 3
REMARK VINA RESULT:      -6.1      2.106      3.267
REMARK  Name = 
REMARK  4 active torsions:
REMARK  status: ('A' for Active; 'I' for Inactive)
REMARK    1  A    between atoms: N_1  and  C_2
REMARK    2  A    between atoms: C_9  and  O_10
REMARK    3  A    between atoms: C_11  and  O_12
REMARK    4  A    between atoms: C_13  and  O_14
REMARK                            x       y       z     vdW  Elec       q    Type
REMARK                         _______ _______ _______ _____ _____    ______ ____
ROOT
ATOM      1  C   UNL     1       1.718   4.061  19.190  0.00  0.00    +0.000 C 
ATOM      2  C   UNL     1       1.914   2.953  18.162  0.00  0.00    +0.000 C 
ATOM      3  C   UNL     1       2.882   3.425  17.078  0.00  0.00    +0.000 C 
ATOM      4  C   UNL     1       4.143   4.050  17.625  0.00  0.00    +0.000 A 
ATOM      5  C   UNL     1       4.226   4.509  18.957  0.00  0.00    +0.000 A 
ATOM      6  C   UNL     1       5.435   5.068  19.421  0.00  0.00    +0.000 A 
ATOM      7  C   UNL     1       6.538   5.215  18.574  0.00  0.00    +0.000 A 
ATOM      8  C   UNL     1       6.430   4.796  17.257  0.00  0.00    +0.000 A 
ATOM      9  C   UNL     1       5.247   4.225  16.788  0.00  0.00    +0.000 A 
ATOM     10  C   UNL     1       3.061   4.349  19.917  0.00  0.00    +0.000 C 
ENDROOT
BRANCH   1  11
ATOM     11  N   UNL     1       0.659   3.686  20.142  0.00  0.00    +0.000 NA
ATOM     12  H   UNL     1      -0.178   3.410  19.631  0.00  0.00    +0.000 HD
ATOM     13  H   UNL     1       0.412   4.518  20.683  0.00  0.00    +0.000 HD
ENDBRANCH   1  11
BRANCH   8  14
ATOM     14  O   UNL     1       7.467   4.923  16.372  0.00  0.00    +0.000 OA
ATOM     15  H   UNL     1       7.138   4.687  15.488  0.00  0.00    +0.000 HD
ENDBRANCH   8  14
BRANCH   9  16
ATOM     16  O   UNL     1       5.184   3.833  15.478  0.00  0.00    +0.000 OA
ATOM     17  H   UNL     1       4.635   4.516  15.044  0.00  0.00    +0.000 HD
ENDBRANCH   9  16
BRANCH  10  18
ATOM     18  O   UNL     1       2.896   5.540  20.700  0.00  0.00    +0.000 OA
ATOM     19  H   UNL     1       2.835   5.254  21.628  0.00  0.00    +0.000 HD
ENDBRANCH  10  18
TORSDOF 4
ENDMDL
MODEL 4
REMARK VINA RESULT:      -6.0      2.538      3.452
REMARK  Name = 
REMARK  4 active torsions:
REMARK  status: ('A' for Active; 'I' for Inactive)
REMARK    1  A    between atoms: N_1  and  C_2
REMARK    2  A    between atoms: C_9  and  O_10
REMARK    3  A    between atoms: C_11  and  O_12
REMARK    4  A    between atoms: C_13  and  O_14
REMARK                            x       y       z     vdW  Elec       q    Type
REMARK                         _______ _______ _______ _____ _____    ______ ____
ROOT
ATOM      1  C   UNL     1       1.735   2.506  18.276  0.00  0.00    +0.000 C 
ATOM      2  C   UNL     1       2.764   2.107  19.326  0.00  0.00    +0.000 C 
ATOM      3  C   UNL     1       4.152   2.570  18.887  0.00  0.00    +0.000 C 
ATOM      4  C   UNL     1       4.193   4.010  18.436  0.00  0.00    +0.000 A 
ATOM      5  C   UNL     1       3.021   4.709  18.078  0.00  0.00    +0.000 A 
ATOM      6  C   UNL     1       3.116   6.060  17.682  0.00  0.00    +0.000 A 
ATOM      7  C   UNL     1       4.354   6.704  17.595  0.00  0.00    +0.000 A 
ATOM      8  C   UNL     1       5.501   5.994  17.910  0.00  0.00    +0.000 A 
ATOM      9  C   UNL     1       5.423   4.664  18.322  0.00  0.00    +0.000 A 
ATOM     10  C   UNL     1       1.655   4.055  18.179  0.00  0.00    +0.000 C 
ENDROOT
BRANCH   1  11
ATOM     11  N   UNL     1       0.426   1.917  18.600  0.00  0.00    +0.000 NA
ATOM     12  H   UNL     1      -0.232   2.107  17.845  0.00  0.00    +0.000 HD
ATOM     13  H   UNL     1       0.064   2.390  19.432  0.00  0.00    +0.000 HD
ENDBRANCH   1  11
BRANCH   8  14
ATOM     14  O   UNL     1       6.745   6.561  17.834  0.00  0.00    +0.000 OA
ATOM     15  H   UNL     1       7.386   5.855  17.646  0.00  0.00    +0.000 HD
ENDBRANCH   8  14
BRANCH   9  16
ATOM     16  O   UNL     1       6.583   3.999  18.616  0.00  0.00    +0.000 OA
ATOM     17  H   UNL     1       7.269   4.460  18.093  0.00  0.00    +0.000 HD
ENDBRANCH   9  16
BRANCH  10  18
ATOM     18  O   UNL     1       0.859   4.388  17.033  0.00  0.00    +0.000 OA
ATOM     19  H   UNL     1      -0.029   4.025  17.198  0.00  0.00    +0.000 HD
ENDBRANCH  10  18
TORSDOF 4
ENDMDL
MODEL 5
REMARK VINA RESULT:      -6.0      2.821      4.845
REMARK  Name = 
REMARK  4 active torsions:
REMARK  status: ('A' for Active; 'I' for Inactive)
REMARK    1  A    between atoms: N_1  and  C_2
REMARK    2  A    between atoms: C_9  and  O_10
REMARK    3  A    between atoms: C_11  and  O_12
REMARK    4  A    between atoms: C_13  and  O_14
REMARK                            x       y       z     vdW  Elec       q    Type
REMARK                         _______ _______ _______ _____ _____    ______ ____
ROOT
ATOM      1  C   UNL     1       6.165   5.076  17.169  0.00  0.00    +0.000 C 
ATOM      2  C   UNL     1       6.417   5.048  18.672  0.00  0.00    +0.000 C 
ATOM      3  C   UNL     1       5.128   5.400  19.414  0.00  0.00    +0.000 C 
ATOM      4  C   UNL     1       3.924   4.629  18.931  0.00  0.00    +0.000 A 
ATOM      5  C   UNL     1       3.914   3.973  17.681  0.00  0.00    +0.000 A 
ATOM      6  C   UNL     1       2.768   3.252  17.288  0.00  0.00    +0.000 A 
ATOM      7  C   UNL     1       1.625   3.211  18.093  0.00  0.00    +0.000 A 
ATOM      8  C   UNL     1       1.633   3.893  19.300  0.00  0.00    +0.000 A 
ATOM      9  C   UNL     1       2.766   4.595  19.712  0.00  0.00    +0.000 A 
ATOM     10  C   UNL     1       5.140   3.974  16.786  0.00  0.00    +0.000 C 
ENDROOT
BRANCH   1  11
ATOM     11  N   UNL     1       7.434   4.910  16.441  0.00  0.00    +0.000 NA
ATOM     12  H   UNL     1       7.796   3.970  16.595  0.00  0.00    +0.000 HD
ATOM     13  H   UNL     1       8.116   5.558  16.843  0.00  0.00    +0.000 HD
ENDBRANCH   1  11
BRANCH   8  14
ATOM     14  O   UNL     1       0.545   3.904  20.130  0.00  0.00    +0.000 OA
ATOM     15  H   UNL     1      -0.175   4.375  19.675  0.00  0.00    +0.000 HD
ENDBRANCH   8  14
BRANCH   9  16
ATOM     16  O   UNL     1       2.725   5.260  20.908  0.00  0.00    +0.000 OA
ATOM     17  H   UNL     1       2.861   4.563  21.580  0.00  0.00    +0.000 HD
ENDBRANCH   9  16
BRANCH  10  18
ATOM     18  O   UNL     1       4.756   4.180  15.418  0.00  0.00    +0.000 OA
ATOM     19  H   UNL     1       5.454   4.725  15.015  0.00  0.00    +0.000 HD
ENDBRANCH  10  18
TORSDOF 4
ENDMDL
MODEL 6
REMARK VINA RESULT:      -5.9      2.677      5.448
REMARK  Name = 
REMARK  4 active torsions:
REMARK  status: ('A' for Active; 'I' for Inactive)
REMARK    1  A    between atoms: N_1  and  C_2
REMARK    2  A    between atoms: C_9  and  O_10
REMARK    3  A    between atoms: C_11  and  O_12
REMARK    4  A    between atoms: C_13  and  O_14
REMARK                            x       y       z     vdW  Elec       q    Type
REMARK                         _______ _______ _______ _____ _____    ______ ____
ROOT
ATOM      1  C   UNL     1       6.258   4.389  17.519  0.00  0.00    +0.000 C 
ATOM      2  C   UNL     1       5.321   4.033  16.371  0.00  0.00    +0.000 C 
ATOM      3  C   UNL     1       4.189   3.147  16.888  0.00  0.00    +0.000 C 
ATOM      4  C   UNL     1       3.531   3.678  18.138  0.00  0.00    +0.000 A 
ATOM      5  C   UNL     1       4.154   4.649  18.951  0.00  0.00    +0.000 A 
ATOM      6  C   UNL     1       3.485   5.123  20.098  0.00  0.00    +0.000 A 
ATOM      7  C   UNL     1       2.235   4.617  20.469  0.00  0.00    +0.000 A 
ATOM      8  C   UNL     1       1.652   3.634  19.685  0.00  0.00    +0.000 A 
ATOM      9  C   UNL     1       2.292   3.169  18.537  0.00  0.00    +0.000 A 
ATOM     10  C   UNL     1       5.500   5.241  18.573  0.00  0.00    +0.000 C 
ENDROOT
BRANCH   1  11
ATOM     11  N   UNL     1       7.443   5.095  17.005  0.00  0.00    +0.000 NA
ATOM     12  H   UNL     1       8.193   5.052  17.694  0.00  0.00    +0.000 HD
ATOM     13  H   UNL     1       7.200   6.082  16.895  0.00  0.00    +0.000 HD
ENDBRANCH   1  11
BRANCH   8  14
ATOM     14  O   UNL     1       0.437   3.088  19.998  0.00  0.00    +0.000 OA
ATOM     15  H   UNL     1       0.593   2.207  20.379  0.00  0.00    +0.000 HD
ENDBRANCH   8  14
BRANCH   9  16
ATOM     16  O   UNL     1       1.682   2.192  17.796  0.00  0.00    +0.000 OA
ATOM     17  H   UNL     1       1.084   1.744  18.427  0.00  0.00    +0.000 HD
ENDBRANCH   9  16
BRANCH  10  18
ATOM     18  O   UNL     1       6.335   5.358  19.735  0.00  0.00    +0.000 OA
ATOM     19  H   UNL     1       7.228   5.568  19.412  0.00  0.00    +0.000 HD
ENDBRANCH  10  18
TORSDOF 4
ENDMDL
MODEL 7
REMARK VINA RESULT:      -5.9      3.158      4.688
REMARK  Name = 
REMARK  4 active torsions:
REMARK  status: ('A' for Active; 'I' for Inactive)
REMARK    1  A    between atoms: N_1  and  C_2
REMARK    2  A    between atoms: C_9  and  O_10
REMARK    3  A    between atoms: C_11  and  O_12
REMARK    4  A    between atoms: C_13  and  O_14
REMARK                            x       y       z     vdW  Elec       q    Type
REMARK                         _______ _______ _______ _____ _____    ______ ____
ROOT
ATOM      1  C   UNL     1       4.481   2.862  19.972  0.00  0.00    +0.000 C 
ATOM      2  C   UNL     1       3.063   2.853  20.530  0.00  0.00    +0.000 C 
ATOM      3  C   UNL     1       2.643   4.278  20.888  0.00  0.00    +0.000 C 
ATOM      4  C   UNL     1       2.917   5.281  19.794  0.00  0.00    +0.000 A 
ATOM      5  C   UNL     1       3.818   5.006  18.743  0.00  0.00    +0.000 A 
ATOM      6  C   UNL     1       4.021   5.972  17.736  0.00  0.00    +0.000 A 
ATOM      7  C   UNL     1       3.380   7.214  17.784  0.00  0.00    +0.000 A 
ATOM      8  C   UNL     1       2.528   7.487  18.843  0.00  0.00    +0.000 A 
ATOM      9  C   UNL     1       2.302   6.535  19.836  0.00  0.00    +0.000 A 
ATOM     10  C   UNL     1       4.518   3.663  18.642  0.00  0.00    +0.000 C 
ENDROOT
BRANCH   1  11
ATOM     11  N   UNL     1       4.960   1.483  19.786  0.00  0.00    +0.000 NA
ATOM     12  H   UNL     1       5.729   1.475  19.118  0.00  0.00    +0.000 HD
ATOM     13  H   UNL     1       4.202   0.938  19.367  0.00  0.00    +0.000 HD
ENDBRANCH   1  11
BRANCH   8  14
ATOM     14  O   UNL     1       1.879   8.687  18.956  0.00  0.00    +0.000 OA
ATOM     15  H   UNL     1       1.116   8.674  18.352  0.00  0.00    +0.000 HD
ENDBRANCH   8  14
BRANCH   9  16
ATOM     16  O   UNL     1       1.458   6.851  20.866  0.00  0.00    +0.000 OA
ATOM     17  H   UNL     1       0.669   6.294  20.716  0.00  0.00    +0.000 HD
ENDBRANCH   9  16
BRANCH  10  18
ATOM     18  O   UNL     1       5.893   3.846  18.272  0.00  0.00    +0.000 OA
ATOM     19  H   UNL     1       5.915   3.886  17.300  0.00  0.00    +0.000 HD
ENDBRANCH  10  18
TORSDOF 4
ENDMDL
MODEL 8
REMARK VINA RESULT:      -5.9      1.860      2.489
REMARK  Name = 
REMARK  4 active torsions:
REMARK  status: ('A' for Active; 'I' for Inactive)
REMARK    1  A    between atoms: N_1  and  C_2
REMARK    2  A    between atoms: C_9  and  O_10
REMARK    3  A    between atoms: C_11  and  O_12
REMARK    4  A    between atoms: C_13  and  O_14
REMARK                            x       y       z     vdW  Elec       q    Type
REMARK                         _______ _______ _______ _____ _____    ______ ____
ROOT
ATOM      1  C   UNL     1       1.886   3.250  19.516  0.00  0.00    +0.000 C 
ATOM      2  C   UNL     1       2.322   4.502  20.267  0.00  0.00    +0.000 C 
ATOM      3  C   UNL     1       3.847   4.600  20.259  0.00  0.00    +0.000 C 
ATOM      4  C   UNL     1       4.457   4.402  18.893  0.00  0.00    +0.000 A 
ATOM      5  C   UNL     1       3.740   3.797  17.839  0.00  0.00    +0.000 A 
ATOM      6  C   UNL     1       4.353   3.654  16.577  0.00  0.00    +0.000 A 
ATOM      7  C   UNL     1       5.674   4.060  16.364  0.00  0.00    +0.000 A 
ATOM      8  C   UNL     1       6.382   4.617  17.417  0.00  0.00    +0.000 A 
ATOM      9  C   UNL     1       5.783   4.782  18.666  0.00  0.00    +0.000 A 
ATOM     10  C   UNL     1       2.297   3.361  18.022  0.00  0.00    +0.000 C 
ENDROOT
BRANCH   1  11
ATOM     11  N   UNL     1       0.435   3.051  19.664  0.00  0.00    +0.000 NA
ATOM     12  H   UNL     1       0.255   2.133  20.068  0.00  0.00    +0.000 HD
ATOM     13  H   UNL     1       0.020   3.048  18.729  0.00  0.00    +0.000 HD
ENDBRANCH   1  11
BRANCH   8  14
ATOM     14  O   UNL     1       7.681   5.024  17.279  0.00  0.00    +0.000 OA
ATOM     15  H   UNL     1       8.068   4.543  16.528  0.00  0.00    +0.000 HD
ENDBRANCH   8  14
BRANCH   9  16
ATOM     16  O   UNL     1       6.522   5.329  19.680  0.00  0.00    +0.000 OA
ATOM     17  H   UNL     1       7.373   4.849  19.650  0.00  0.00    +0.000 HD
ENDBRANCH   9  16
BRANCH  10  18
ATOM     18  O   UNL     1       2.082   2.083  17.405  0.00  0.00    +0.000 OA
ATOM     19  H   UNL     1       2.792   1.971  16.749  0.00  0.00    +0.000 HD
ENDBRANCH  10  18
TORSDOF 4
ENDMDL
MODEL 9
REMARK VINA RESULT:      -5.9      1.319      1.337
REMARK  Name = 
REMARK  4 active torsions:
REMARK  status: ('A' for Active; 'I' for Inactive)
REMARK    1  A    between atoms: N_1  and  C_2
REMARK    2  A    between atoms: C_9  and  O_10
REMARK    3  A    between atoms: C_11  and  O_12
REMARK    4  A    between atoms: C_13  and  O_14
REMARK                            x       y       z     vdW  Elec       q    Type
REMARK                         _______ _______ _______ _____ _____    ______ ____
ROOT
ATOM      1  C   UNL     1       2.695   4.440  18.618  0.00  0.00    +0.000 C 
ATOM      2  C   UNL     1       2.656   5.917  18.244  0.00  0.00    +0.000 C 
ATOM      3  C   UNL     1       4.069   6.402  17.926  0.00  0.00    +0.000 C 
ATOM      4  C   UNL     1       4.818   5.500  16.977  0.00  0.00    +0.000 A 
ATOM      5  C   UNL     1       4.412   4.169  16.741  0.00  0.00    +0.000 A 
ATOM      6  C   UNL     1       5.138   3.376  15.829  0.00  0.00    +0.000 A 
ATOM      7  C   UNL     1       6.279   3.869  15.187  0.00  0.00    +0.000 A 
ATOM      8  C   UNL     1       6.691   5.165  15.458  0.00  0.00    +0.000 A 
ATOM      9  C   UNL     1       5.972   5.968  16.343  0.00  0.00    +0.000 A 
ATOM     10  C   UNL     1       3.168   3.600  17.400  0.00  0.00    +0.000 C 
ENDROOT
BRANCH   1  11
ATOM     11  N   UNL     1       1.371   4.003  19.093  0.00  0.00    +0.000 NA
ATOM     12  H   UNL     1       0.645   4.541  18.623  0.00  0.00    +0.000 HD
ATOM     13  H   UNL     1       1.304   4.225  20.089  0.00  0.00    +0.000 HD
ENDBRANCH   1  11
BRANCH   8  14
ATOM     14  O   UNL     1       7.804   5.704  14.873  0.00  0.00    +0.000 OA
ATOM     15  H   UNL     1       8.543   5.085  15.003  0.00  0.00    +0.000 HD
ENDBRANCH   8  14
BRANCH   9  16
ATOM     16  O   UNL     1       6.420   7.238  16.585  0.00  0.00    +0.000 OA
ATOM     17  H   UNL     1       5.900   7.539  17.356  0.00  0.00    +0.000 HD
ENDBRANCH   9  16
BRANCH  10  18
ATOM     18  O   UNL     1       3.414   2.260  17.851  0.00  0.00    +0.000 OA
ATOM     19  H   UNL     1       4.048   2.329  18.586  0.00  0.00    +0.000 HD
ENDBRANCH  10  18
TORSDOF 4
ENDMDL
