MODEL 1
REMARK VINA RESULT:      -7.2      0.000      0.000
REMARK  Name = 
REMARK  5 active torsions:
REMARK  status: ('A' for Active; 'I' for Inactive)
REMARK    1  A    between atoms: C_1  and  C_2
REMARK    2  A    between atoms: C_2  and  N_3
REMARK    3  A    between atoms: C_13  and  C_15
REMARK    4  A    between atoms: C_15  and  C_16
REMARK    5  A    between atoms: C_19  and  C_20
REMARK                            x       y       z     vdW  Elec       q    Type
REMARK                         _______ _______ _______ _____ _____    ______ ____
ROOT
ATOM      1  N   UNL     1      -1.249  11.462  22.688  0.00  0.00    +0.000 N 
ATOM      2  C   UNL     1      -0.574  10.843  21.612  0.00  0.00    +0.000 A 
ATOM      3  C   UNL     1       0.269   9.775  21.879  0.00  0.00    +0.000 A 
ATOM      4  C   UNL     1       0.923   9.120  20.831  0.00  0.00    +0.000 A 
ATOM      5  C   UNL     1       0.756   9.623  19.545  0.00  0.00    +0.000 A 
ATOM      6  N   UNL     1      -0.025  10.697  19.310  0.00  0.00    +0.000 NA
ATOM      7  N   UNL     1      -0.685  11.305  20.347  0.00  0.00    +0.000 NA
ATOM      8  C   UNL     1       1.360   8.950  18.349  0.00  0.00    +0.000 C 
ATOM      9  C   UNL     1       2.485   8.004  18.746  0.00  0.00    +0.000 C 
ATOM     10  N   UNL     1       2.081   7.172  19.881  0.00  0.00    +0.000 N 
ATOM     11  C   UNL     1       1.894   5.798  19.880  0.00  0.00    +0.000 C 
ATOM     12  O   UNL     1       1.541   5.187  20.888  0.00  0.00    +0.000 OA
ATOM     13  C   UNL     1       1.790   7.921  21.100  0.00  0.00    +0.000 C 
ATOM     14  H   UNL     1      -1.442  10.774  23.408  0.00  0.00    +0.000 HD
ENDROOT
BRANCH   1  16
ATOM     15  C   UNL     1      -3.135  12.808  23.448  0.00  0.00    +0.000 C 
ATOM     16  C   UNL     1      -2.484  12.124  22.256  0.00  0.00    +0.000 C 
ENDBRANCH   1  16
BRANCH  11  17
ATOM     17  C   UNL     1       2.129   5.031  18.588  0.00  0.00    +0.000 C 
BRANCH  17  18
ATOM     18  C   UNL     1       3.584   4.850  18.255  0.00  0.00    +0.000 A 
ATOM     19  C   UNL     1       4.073   5.085  16.969  0.00  0.00    +0.000 A 
ATOM     20  C   UNL     1       5.437   4.963  16.711  0.00  0.00    +0.000 A 
ATOM     21  C   UNL     1       6.289   4.606  17.750  0.00  0.00    +0.000 A 
ATOM     22  C   UNL     1       7.763   4.469  17.524  0.00  0.00    +0.000 C 
ATOM     23  N   UNL     1       5.838   4.359  19.003  0.00  0.00    +0.000 NA
ATOM     24  C   UNL     1       4.511   4.487  19.229  0.00  0.00    +0.000 A 
ENDBRANCH  17  18
ENDBRANCH  11  17
TORSDOF 3
ENDMDL
MODEL 2
REMARK VINA RESULT:      -7.0      5.123      6.581
REMARK  Name = 
REMARK  5 active torsions:
REMARK  status: ('A' for Active; 'I' for Inactive)
REMARK    1  A    between atoms: C_1  and  C_2
REMARK    2  A    between atoms: C_2  and  N_3
REMARK    3  A    between atoms: C_13  and  C_15
REMARK    4  A    between atoms: C_15  and  C_16
REMARK    5  A    between atoms: C_19  and  C_20
REMARK                            x       y       z     vdW  Elec       q    Type
REMARK                         _______ _______ _______ _____ _____    ______ ____
ROOT
ATOM      1  N   UNL     1       2.262   3.563  21.241  0.00  0.00    +0.000 N 
ATOM      2  C   UNL     1       2.772   4.379  20.206  0.00  0.00    +0.000 A 
ATOM      3  C   UNL     1       4.147   4.477  20.050  0.00  0.00    +0.000 A 
ATOM      4  C   UNL     1       4.679   5.249  19.013  0.00  0.00    +0.000 A 
ATOM      5  C   UNL     1       3.795   5.960  18.210  0.00  0.00    +0.000 A 
ATOM      6  N   UNL     1       2.461   5.897  18.410  0.00  0.00    +0.000 NA
ATOM      7  N   UNL     1       1.957   5.107  19.412  0.00  0.00    +0.000 NA
ATOM      8  C   UNL     1       4.264   6.761  17.032  0.00  0.00    +0.000 C 
ATOM      9  C   UNL     1       5.754   7.060  17.116  0.00  0.00    +0.000 C 
ATOM     10  N   UNL     1       6.501   5.854  17.478  0.00  0.00    +0.000 N 
ATOM     11  C   UNL     1       7.413   5.171  16.688  0.00  0.00    +0.000 C 
ATOM     12  O   UNL     1       7.984   4.154  17.081  0.00  0.00    +0.000 OA
ATOM     13  C   UNL     1       6.166   5.314  18.793  0.00  0.00    +0.000 C 
ATOM     14  H   UNL     1       2.892   2.784  21.399  0.00  0.00    +0.000 HD
ENDROOT
BRANCH   1  16
ATOM     15  C   UNL     1       0.924   2.262  19.672  0.00  0.00    +0.000 C 
ATOM     16  C   UNL     1       0.907   3.086  20.949  0.00  0.00    +0.000 C 
ENDBRANCH   1  16
BRANCH  11  17
ATOM     17  C   UNL     1       7.705   5.697  15.290  0.00  0.00    +0.000 C 
BRANCH  17  18
ATOM     18  C   UNL     1       6.994   4.939  14.205  0.00  0.00    +0.000 A 
ATOM     19  C   UNL     1       7.592   4.707  12.965  0.00  0.00    +0.000 A 
ATOM     20  C   UNL     1       6.926   3.950  12.003  0.00  0.00    +0.000 A 
ATOM     21  C   UNL     1       5.669   3.439  12.301  0.00  0.00    +0.000 A 
ATOM     22  C   UNL     1       4.915   2.615  11.302  0.00  0.00    +0.000 C 
ATOM     23  N   UNL     1       5.060   3.661  13.490  0.00  0.00    +0.000 NA
ATOM     24  C   UNL     1       5.728   4.396  14.409  0.00  0.00    +0.000 A 
ENDBRANCH  17  18
ENDBRANCH  11  17
TORSDOF 3
ENDMDL
MODEL 3
REMARK VINA RESULT:      -6.9      0.774      1.089
REMARK  Name = 
REMARK  5 active torsions:
REMARK  status: ('A' for Active; 'I' for Inactive)
REMARK    1  A    between atoms: C_1  and  C_2
REMARK    2  A    between atoms: C_2  and  N_3
REMARK    3  A    between atoms: C_13  and  C_15
REMARK    4  A    between atoms: C_15  and  C_16
REMARK    5  A    between atoms: C_19  and  C_20
REMARK                            x       y       z     vdW  Elec       q    Type
REMARK                         _______ _______ _______ _____ _____    ______ ____
ROOT
ATOM      1  N   UNL     1      -1.533  11.836  22.047  0.00  0.00    +0.000 N 
ATOM      2  C   UNL     1      -0.795  11.171  21.041  0.00  0.00    +0.000 A 
ATOM      3  C   UNL     1       0.069  10.151  21.411  0.00  0.00    +0.000 A 
ATOM      4  C   UNL     1       0.785   9.453  20.434  0.00  0.00    +0.000 A 
ATOM      5  C   UNL     1       0.657   9.865  19.113  0.00  0.00    +0.000 A 
ATOM      6  N   UNL     1      -0.147  10.896  18.777  0.00  0.00    +0.000 NA
ATOM      7  N   UNL     1      -0.868  11.547  19.746  0.00  0.00    +0.000 NA
ATOM      8  C   UNL     1       1.330   9.138  17.988  0.00  0.00    +0.000 C 
ATOM      9  C   UNL     1       2.466   8.258  18.490  0.00  0.00    +0.000 C 
ATOM     10  N   UNL     1       2.040   7.487  19.661  0.00  0.00    +0.000 N 
ATOM     11  C   UNL     1       1.896   6.110  19.742  0.00  0.00    +0.000 C 
ATOM     12  O   UNL     1       1.520   5.554  20.773  0.00  0.00    +0.000 OA
ATOM     13  C   UNL     1       1.676   8.302  20.816  0.00  0.00    +0.000 C 
ATOM     14  H   UNL     1      -1.735  11.188  22.802  0.00  0.00    +0.000 HD
ENDROOT
BRANCH   1  16
ATOM     15  C   UNL     1      -3.744  12.653  22.668  0.00  0.00    +0.000 C 
ATOM     16  C   UNL     1      -2.768  12.427  21.524  0.00  0.00    +0.000 C 
ENDBRANCH   1  16
BRANCH  11  17
ATOM     17  C   UNL     1       2.208   5.270  18.513  0.00  0.00    +0.000 C 
BRANCH  17  18
ATOM     18  C   UNL     1       3.680   5.114  18.252  0.00  0.00    +0.000 A 
ATOM     19  C   UNL     1       4.625   5.321  19.260  0.00  0.00    +0.000 A 
ATOM     20  C   UNL     1       5.977   5.112  18.997  0.00  0.00    +0.000 A 
ATOM     21  C   UNL     1       6.359   4.698  17.726  0.00  0.00    +0.000 A 
ATOM     22  C   UNL     1       7.800   4.454  17.397  0.00  0.00    +0.000 C 
ATOM     23  N   UNL     1       5.465   4.504  16.728  0.00  0.00    +0.000 NA
ATOM     24  C   UNL     1       4.158   4.711  17.008  0.00  0.00    +0.000 A 
ENDBRANCH  17  18
ENDBRANCH  11  17
TORSDOF 3
ENDMDL
MODEL 4
REMARK VINA RESULT:      -6.9      2.996      4.303
REMARK  Name = 
REMARK  5 active torsions:
REMARK  status: ('A' for Active; 'I' for Inactive)
REMARK    1  A    between atoms: C_1  and  C_2
REMARK    2  A    between atoms: C_2  and  N_3
REMARK    3  A    between atoms: C_13  and  C_15
REMARK    4  A    between atoms: C_15  and  C_16
REMARK    5  A    between atoms: C_19  and  C_20
REMARK                            x       y       z     vdW  Elec       q    Type
REMARK                         _______ _______ _______ _____ _____    ______ ____
ROOT
ATOM      1  N   UNL     1      -0.688  15.043  18.559  0.00  0.00    +0.000 N 
ATOM      2  C   UNL     1      -0.313  13.871  19.253  0.00  0.00    +0.000 A 
ATOM      3  C   UNL     1      -0.290  12.666  18.565  0.00  0.00    +0.000 A 
ATOM      4  C   UNL     1       0.111  11.496  19.216  0.00  0.00    +0.000 A 
ATOM      5  C   UNL     1       0.405  11.574  20.573  0.00  0.00    +0.000 A 
ATOM      6  N   UNL     1       0.324  12.745  21.240  0.00  0.00    +0.000 NA
ATOM      7  N   UNL     1      -0.038  13.888  20.575  0.00  0.00    +0.000 NA
ATOM      8  C   UNL     1       0.908  10.390  21.343  0.00  0.00    +0.000 C 
ATOM      9  C   UNL     1       0.616   9.084  20.617  0.00  0.00    +0.000 C 
ATOM     10  N   UNL     1       0.970   9.194  19.199  0.00  0.00    +0.000 N 
ATOM     11  C   UNL     1       1.974   8.504  18.537  0.00  0.00    +0.000 C 
ATOM     12  O   UNL     1       2.202   8.675  17.340  0.00  0.00    +0.000 OA
ATOM     13  C   UNL     1       0.202  10.195  18.466  0.00  0.00    +0.000 C 
ATOM     14  H   UNL     1      -0.403  14.968  17.588  0.00  0.00    +0.000 HD
ENDROOT
BRANCH   1  16
ATOM     15  C   UNL     1      -0.204  17.403  18.186  0.00  0.00    +0.000 C 
ATOM     16  C   UNL     1      -0.129  16.250  19.174  0.00  0.00    +0.000 C 
ENDBRANCH   1  16
BRANCH  11  17
ATOM     17  C   UNL     1       2.820   7.513  19.323  0.00  0.00    +0.000 C 
BRANCH  17  18
ATOM     18  C   UNL     1       2.303   6.103  19.258  0.00  0.00    +0.000 A 
ATOM     19  C   UNL     1       1.756   5.474  20.379  0.00  0.00    +0.000 A 
ATOM     20  C   UNL     1       1.235   4.187  20.267  0.00  0.00    +0.000 A 
ATOM     21  C   UNL     1       1.272   3.550  19.032  0.00  0.00    +0.000 A 
ATOM     22  C   UNL     1       0.718   2.169  18.860  0.00  0.00    +0.000 C 
ATOM     23  N   UNL     1       1.810   4.132  17.934  0.00  0.00    +0.000 NA
ATOM     24  C   UNL     1       2.307   5.383  18.066  0.00  0.00    +0.000 A 
ENDBRANCH  17  18
ENDBRANCH  11  17
TORSDOF 3
ENDMDL
MODEL 5
REMARK VINA RESULT:      -6.9      2.482      8.881
REMARK  Name = 
REMARK  5 active torsions:
REMARK  status: ('A' for Active; 'I' for Inactive)
REMARK    1  A    between atoms: C_1  and  C_2
REMARK    2  A    between atoms: C_2  and  N_3
REMARK    3  A    between atoms: C_13  and  C_15
REMARK    4  A    between atoms: C_15  and  C_16
REMARK    5  A    between atoms: C_19  and  C_20
REMARK                            x       y       z     vdW  Elec       q    Type
REMARK                         _______ _______ _______ _____ _____    ______ ____
ROOT
ATOM      1  N   UNL     1       6.492   4.894  14.581  0.00  0.00    +0.000 N 
ATOM      2  C   UNL     1       5.506   5.028  15.584  0.00  0.00    +0.000 A 
ATOM      3  C   UNL     1       5.279   6.281  16.134  0.00  0.00    +0.000 A 
ATOM      4  C   UNL     1       4.286   6.449  17.104  0.00  0.00    +0.000 A 
ATOM      5  C   UNL     1       3.602   5.320  17.538  0.00  0.00    +0.000 A 
ATOM      6  N   UNL     1       3.873   4.099  17.031  0.00  0.00    +0.000 NA
ATOM      7  N   UNL     1       4.828   3.959  16.056  0.00  0.00    +0.000 NA
ATOM      8  C   UNL     1       2.474   5.408  18.523  0.00  0.00    +0.000 C 
ATOM      9  C   UNL     1       2.498   6.725  19.285  0.00  0.00    +0.000 C 
ATOM     10  N   UNL     1       2.708   7.847  18.367  0.00  0.00    +0.000 N 
ATOM     11  C   UNL     1       1.809   8.860  18.072  0.00  0.00    +0.000 C 
ATOM     12  O   UNL     1       2.077   9.758  17.273  0.00  0.00    +0.000 OA
ATOM     13  C   UNL     1       3.987   7.814  17.663  0.00  0.00    +0.000 C 
ATOM     14  H   UNL     1       6.544   5.752  14.041  0.00  0.00    +0.000 HD
ENDROOT
BRANCH   1  16
ATOM     15  C   UNL     1       6.802   4.025  12.324  0.00  0.00    +0.000 C 
ATOM     16  C   UNL     1       6.238   3.744  13.708  0.00  0.00    +0.000 C 
ENDBRANCH   1  16
BRANCH  11  17
ATOM     17  C   UNL     1       0.449   8.851  18.755  0.00  0.00    +0.000 C 
BRANCH  17  18
ATOM     18  C   UNL     1       0.210  10.052  19.627  0.00  0.00    +0.000 A 
ATOM     19  C   UNL     1      -0.709  11.041  19.269  0.00  0.00    +0.000 A 
ATOM     20  C   UNL     1      -0.947  12.111  20.130  0.00  0.00    +0.000 A 
ATOM     21  C   UNL     1      -0.259  12.170  21.336  0.00  0.00    +0.000 A 
ATOM     22  C   UNL     1      -0.485  13.297  22.297  0.00  0.00    +0.000 C 
ATOM     23  N   UNL     1       0.647  11.232  21.700  0.00  0.00    +0.000 NA
ATOM     24  C   UNL     1       0.859  10.201  20.849  0.00  0.00    +0.000 A 
ENDBRANCH  17  18
ENDBRANCH  11  17
TORSDOF 3
ENDMDL
MODEL 6
REMARK VINA RESULT:      -6.9      1.871      8.680
REMARK  Name = 
REMARK  5 active torsions:
REMARK  status: ('A' for Active; 'I' for Inactive)
REMARK    1  A    between atoms: C_1  and  C_2
REMARK    2  A    between atoms: C_2  and  N_3
REMARK    3  A    between atoms: C_13  and  C_15
REMARK    4  A    between atoms: C_15  and  C_16
REMARK    5  A    between atoms: C_19  and  C_20
REMARK                            x       y       z     vdW  Elec       q    Type
REMARK                         _______ _______ _______ _____ _____    ______ ____
ROOT
ATOM      1  N   UNL     1       4.756   4.878  18.579  0.00  0.00    +0.000 N 
ATOM      2  C   UNL     1       3.971   6.042  18.420  0.00  0.00    +0.000 A 
ATOM      3  C   UNL     1       3.053   6.368  19.408  0.00  0.00    +0.000 A 
ATOM      4  C   UNL     1       2.288   7.532  19.294  0.00  0.00    +0.000 A 
ATOM      5  C   UNL     1       2.426   8.292  18.139  0.00  0.00    +0.000 A 
ATOM      6  N   UNL     1       3.284   7.931  17.162  0.00  0.00    +0.000 NA
ATOM      7  N   UNL     1       4.051   6.803  17.308  0.00  0.00    +0.000 NA
ATOM      8  C   UNL     1       1.700   9.591  17.954  0.00  0.00    +0.000 C 
ATOM      9  C   UNL     1       0.520   9.714  18.909  0.00  0.00    +0.000 C 
ATOM     10  N   UNL     1       0.912   9.323  20.265  0.00  0.00    +0.000 N 
ATOM     11  C   UNL     1       0.978  10.143  21.381  0.00  0.00    +0.000 C 
ATOM     12  O   UNL     1       1.332   9.720  22.481  0.00  0.00    +0.000 OA
ATOM     13  C   UNL     1       1.335   7.931  20.389  0.00  0.00    +0.000 C 
ATOM     14  H   UNL     1       4.927   4.717  19.567  0.00  0.00    +0.000 HD
ENDROOT
BRANCH   1  16
ATOM     15  C   UNL     1       7.106   5.506  18.748  0.00  0.00    +0.000 C 
ATOM     16  C   UNL     1       6.018   4.958  17.838  0.00  0.00    +0.000 C 
ENDBRANCH   1  16
BRANCH  11  17
ATOM     17  C   UNL     1       0.605  11.611  21.231  0.00  0.00    +0.000 C 
BRANCH  17  18
ATOM     18  C   UNL     1      -0.829  11.902  21.574  0.00  0.00    +0.000 A 
ATOM     19  C   UNL     1      -1.297  11.812  22.886  0.00  0.00    +0.000 A 
ATOM     20  C   UNL     1      -2.619  12.145  23.176  0.00  0.00    +0.000 A 
ATOM     21  C   UNL     1      -3.450  12.563  22.143  0.00  0.00    +0.000 A 
ATOM     22  C   UNL     1      -4.876  12.937  22.406  0.00  0.00    +0.000 C 
ATOM     23  N   UNL     1      -3.025  12.644  20.860  0.00  0.00    +0.000 NA
ATOM     24  C   UNL     1      -1.737  12.319  20.604  0.00  0.00    +0.000 A 
ENDBRANCH  17  18
ENDBRANCH  11  17
TORSDOF 3
ENDMDL
MODEL 7
REMARK VINA RESULT:      -6.9      5.135      6.617
REMARK  Name = 
REMARK  5 active torsions:
REMARK  status: ('A' for Active; 'I' for Inactive)
REMARK    1  A    between atoms: C_1  and  C_2
REMARK    2  A    between atoms: C_2  and  N_3
REMARK    3  A    between atoms: C_13  and  C_15
REMARK    4  A    between atoms: C_15  and  C_16
REMARK    5  A    between atoms: C_19  and  C_20
REMARK                            x       y       z     vdW  Elec       q    Type
REMARK                         _______ _______ _______ _____ _____    ______ ____
ROOT
ATOM      1  N   UNL     1       2.317   3.630  21.362  0.00  0.00    +0.000 N 
ATOM      2  C   UNL     1       2.799   4.399  20.279  0.00  0.00    +0.000 A 
ATOM      3  C   UNL     1       4.170   4.538  20.116  0.00  0.00    +0.000 A 
ATOM      4  C   UNL     1       4.676   5.264  19.034  0.00  0.00    +0.000 A 
ATOM      5  C   UNL     1       3.767   5.891  18.189  0.00  0.00    +0.000 A 
ATOM      6  N   UNL     1       2.437   5.790  18.393  0.00  0.00    +0.000 NA
ATOM      7  N   UNL     1       1.960   5.045  19.441  0.00  0.00    +0.000 NA
ATOM      8  C   UNL     1       4.209   6.635  16.964  0.00  0.00    +0.000 C 
ATOM      9  C   UNL     1       5.687   6.993  17.029  0.00  0.00    +0.000 C 
ATOM     10  N   UNL     1       6.478   5.839  17.465  0.00  0.00    +0.000 N 
ATOM     11  C   UNL     1       7.416   5.143  16.718  0.00  0.00    +0.000 C 
ATOM     12  O   UNL     1       8.023   4.174  17.173  0.00  0.00    +0.000 OA
ATOM     13  C   UNL     1       6.160   5.369  18.810  0.00  0.00    +0.000 C 
ATOM     14  H   UNL     1       2.976   2.886  21.568  0.00  0.00    +0.000 HD
ENDROOT
BRANCH   1  16
ATOM     15  C   UNL     1       1.037   2.166  19.891  0.00  0.00    +0.000 C 
ATOM     16  C   UNL     1       0.981   3.085  21.100  0.00  0.00    +0.000 C 
ENDBRANCH   1  16
BRANCH  11  17
ATOM     17  C   UNL     1       7.692   5.593  15.291  0.00  0.00    +0.000 C 
BRANCH  17  18
ATOM     18  C   UNL     1       6.939   4.801  14.259  0.00  0.00    +0.000 A 
ATOM     19  C   UNL     1       5.668   4.284  14.520  0.00  0.00    +0.000 A 
ATOM     20  C   UNL     1       4.976   3.604  13.519  0.00  0.00    +0.000 A 
ATOM     21  C   UNL     1       5.571   3.454  12.272  0.00  0.00    +0.000 A 
ATOM     22  C   UNL     1       4.865   2.737  11.163  0.00  0.00    +0.000 C 
ATOM     23  N   UNL     1       6.807   3.934  11.998  0.00  0.00    +0.000 NA
ATOM     24  C   UNL     1       7.458   4.593  12.984  0.00  0.00    +0.000 A 
ENDBRANCH  17  18
ENDBRANCH  11  17
TORSDOF 3
ENDMDL
MODEL 8
REMARK VINA RESULT:      -6.8      2.843      4.389
REMARK  Name = 
REMARK  5 active torsions:
REMARK  status: ('A' for Active; 'I' for Inactive)
REMARK    1  A    between atoms: C_1  and  C_2
REMARK    2  A    between atoms: C_2  and  N_3
REMARK    3  A    between atoms: C_13  and  C_15
REMARK    4  A    between atoms: C_15  and  C_16
REMARK    5  A    between atoms: C_19  and  C_20
REMARK                            x       y       z     vdW  Elec       q    Type
REMARK                         _______ _______ _______ _____ _____    ______ ____
ROOT
ATOM      1  N   UNL     1       0.648   9.425  21.247  0.00  0.00    +0.000 N 
ATOM      2  C   UNL     1       1.248   8.281  20.673  0.00  0.00    +0.000 A 
ATOM      3  C   UNL     1       1.958   8.422  19.490  0.00  0.00    +0.000 A 
ATOM      4  C   UNL     1       2.590   7.314  18.918  0.00  0.00    +0.000 A 
ATOM      5  C   UNL     1       2.417   6.078  19.530  0.00  0.00    +0.000 A 
ATOM      6  N   UNL     1       1.677   5.949  20.651  0.00  0.00    +0.000 NA
ATOM      7  N   UNL     1       1.093   7.054  21.216  0.00  0.00    +0.000 NA
ATOM      8  C   UNL     1       3.110   4.844  19.032  0.00  0.00    +0.000 C 
ATOM      9  C   UNL     1       3.600   5.017  17.600  0.00  0.00    +0.000 C 
ATOM     10  N   UNL     1       4.275   6.306  17.439  0.00  0.00    +0.000 N 
ATOM     11  C   UNL     1       5.618   6.514  17.162  0.00  0.00    +0.000 C 
ATOM     12  O   UNL     1       6.095   7.643  17.056  0.00  0.00    +0.000 OA
ATOM     13  C   UNL     1       3.417   7.465  17.670  0.00  0.00    +0.000 C 
ATOM     14  H   UNL     1       1.209  10.244  21.034  0.00  0.00    +0.000 HD
ENDROOT
BRANCH   1  16
ATOM     15  C   UNL     1      -0.717  10.132  23.139  0.00  0.00    +0.000 C 
ATOM     16  C   UNL     1       0.463   9.283  22.694  0.00  0.00    +0.000 C 
ENDBRANCH   1  16
BRANCH  11  17
ATOM     17  C   UNL     1       6.523   5.303  16.994  0.00  0.00    +0.000 C 
BRANCH  17  18
ATOM     18  C   UNL     1       6.647   4.842  15.568  0.00  0.00    +0.000 A 
ATOM     19  C   UNL     1       5.861   3.803  15.067  0.00  0.00    +0.000 A 
ATOM     20  C   UNL     1       5.962   3.441  13.725  0.00  0.00    +0.000 A 
ATOM     21  C   UNL     1       6.851   4.129  12.908  0.00  0.00    +0.000 A 
ATOM     22  C   UNL     1       6.991   3.781  11.457  0.00  0.00    +0.000 C 
ATOM     23  N   UNL     1       7.635   5.131  13.372  0.00  0.00    +0.000 NA
ATOM     24  C   UNL     1       7.516   5.466  14.678  0.00  0.00    +0.000 A 
ENDBRANCH  17  18
ENDBRANCH  11  17
TORSDOF 3
ENDMDL
MODEL 9
REMARK VINA RESULT:      -6.8      2.988      4.210
REMARK  Name = 
REMARK  5 active torsions:
REMARK  status: ('A' for Active; 'I' for Inactive)
REMARK    1  A    between atoms: C_1  and  C_2
REMARK    2  A    between atoms: C_2  and  N_3
REMARK    3  A    between atoms: C_13  and  C_15
REMARK    4  A    between atoms: C_15  and  C_16
REMARK    5  A    between atoms: C_19  and  C_20
REMARK                            x       y       z     vdW  Elec       q    Type
REMARK                         _______ _______ _______ _____ _____    ______ ____
ROOT
ATOM      1  N   UNL     1      -0.633  15.166  18.577  0.00  0.00    +0.000 N 
ATOM      2  C   UNL     1      -0.293  13.976  19.259  0.00  0.00    +0.000 A 
ATOM      3  C   UNL     1      -0.276  12.783  18.552  0.00  0.00    +0.000 A 
ATOM      4  C   UNL     1       0.090  11.596  19.193  0.00  0.00    +0.000 A 
ATOM      5  C   UNL     1       0.356  11.647  20.556  0.00  0.00    +0.000 A 
ATOM      6  N   UNL     1       0.281  12.807  21.241  0.00  0.00    +0.000 NA
ATOM      7  N   UNL     1      -0.047  13.968  20.587  0.00  0.00    +0.000 NA
ATOM      8  C   UNL     1       0.822  10.442  21.317  0.00  0.00    +0.000 C 
ATOM      9  C   UNL     1       0.523   9.153  20.564  0.00  0.00    +0.000 C 
ATOM     10  N   UNL     1       0.909   9.279  19.156  0.00  0.00    +0.000 N 
ATOM     11  C   UNL     1       1.915   8.582  18.504  0.00  0.00    +0.000 C 
ATOM     12  O   UNL     1       2.172   8.767  17.315  0.00  0.00    +0.000 OA
ATOM     13  C   UNL     1       0.175  10.305  18.423  0.00  0.00    +0.000 C 
ATOM     14  H   UNL     1      -0.328  15.101  17.611  0.00  0.00    +0.000 HD
ENDROOT
BRANCH   1  16
ATOM     15  C   UNL     1      -0.419  17.589  18.411  0.00  0.00    +0.000 C 
ATOM     16  C   UNL     1      -0.066  16.353  19.223  0.00  0.00    +0.000 C 
ENDBRANCH   1  16
BRANCH  11  17
ATOM     17  C   UNL     1       2.726   7.564  19.292  0.00  0.00    +0.000 C 
BRANCH  17  18
ATOM     18  C   UNL     1       2.214   6.157  19.156  0.00  0.00    +0.000 A 
ATOM     19  C   UNL     1       2.211   5.497  17.926  0.00  0.00    +0.000 A 
ATOM     20  C   UNL     1       1.782   4.174  17.848  0.00  0.00    +0.000 A 
ATOM     21  C   UNL     1       1.362   3.533  19.008  0.00  0.00    +0.000 A 
ATOM     22  C   UNL     1       0.898   2.109  18.977  0.00  0.00    +0.000 C 
ATOM     23  N   UNL     1       1.342   4.154  20.211  0.00  0.00    +0.000 NA
ATOM     24  C   UNL     1       1.766   5.438  20.262  0.00  0.00    +0.000 A 
ENDBRANCH  17  18
ENDBRANCH  11  17
TORSDOF 3
ENDMDL
