MODEL 1
REMARK VINA RESULT:      -8.7      0.000      0.000
REMARK  Name = 
REMARK  6 active torsions:
REMARK  status: ('A' for Active; 'I' for Inactive)
REMARK    1  A    between atoms: C_1  and  N_2
REMARK    2  A    between atoms: N_2  and  C_3
REMARK    3  A    between atoms: N_2  and  S_15
REMARK    4  A    between atoms: C_3  and  C_4
REMARK    5  A    between atoms: N_6  and  C_7
REMARK    6  A    between atoms: S_15  and  C_18
REMARK                            x       y       z     vdW  Elec       q    Type
REMARK                         _______ _______ _______ _____ _____    ______ ____
ROOT
ATOM      1  C   UNL     1       7.407   4.602  17.498  0.00  0.00    +0.000 C 
ENDROOT
BRANCH   1   2
ATOM      2  C   UNL     1       6.526   4.622  18.750  0.00  0.00    +0.000 C 
ATOM      3  O   UNL     1       6.808   5.308  19.732  0.00  0.00    +0.000 OA
ATOM      4  N   UNL     1       5.431   3.782  18.712  0.00  0.00    +0.000 N 
ATOM      5  H   UNL     1       5.199   3.347  17.827  0.00  0.00    +0.000 HD
BRANCH   4   6
ATOM      6  C   UNL     1       4.484   3.640  19.828  0.00  0.00    +0.000 C 
ATOM      7  C   UNL     1       3.432   4.758  19.784  0.00  0.00    +0.000 C 
ATOM      8  C   UNL     1       2.372   4.741  20.891  0.00  0.00    +0.000 C 
ATOM      9  C   UNL     1       1.304   3.640  20.890  0.00  0.00    +0.000 C 
ATOM     10  C   UNL     1       0.822   3.155  19.524  0.00  0.00    +0.000 C 
ATOM     11  C   UNL     1       1.474   1.858  19.037  0.00  0.00    +0.000 C 
ATOM     12  C   UNL     1       2.954   1.925  18.665  0.00  0.00    +0.000 C 
ATOM     13  C   UNL     1       3.909   2.217  19.828  0.00  0.00    +0.000 C 
ENDBRANCH   4   6
ENDBRANCH   1   2
BRANCH   1  15
ATOM     14  C   UNL     1       7.274   7.068  17.341  0.00  0.00    +0.000 C 
ATOM     15  N   UNL     1       7.160   5.779  16.608  0.00  0.00    +0.000 NA
BRANCH  15  16
ATOM     16  S   UNL     1       5.708   5.633  15.711  0.00  0.00    +0.000 S 
ATOM     17  O   UNL     1       4.882   4.642  16.364  0.00  0.00    +0.000 OA
ATOM     18  O   UNL     1       5.212   6.967  15.453  0.00  0.00    +0.000 OA
BRANCH  16  19
ATOM     19  C   UNL     1       6.262   4.916  14.183  0.00  0.00    +0.000 A 
ATOM     20  C   UNL     1       5.494   3.896  13.610  0.00  0.00    +0.000 A 
ATOM     21  C   UNL     1       5.912   3.305  12.418  0.00  0.00    +0.000 A 
ATOM     22  C   UNL     1       7.085   3.737  11.800  0.00  0.00    +0.000 A 
ATOM     23  C   UNL     1       7.841   4.767  12.365  0.00  0.00    +0.000 A 
ATOM     24  C   UNL     1       7.430   5.366  13.560  0.00  0.00    +0.000 A 
ENDBRANCH  16  19
ENDBRANCH  15  16
ENDBRANCH   1  15
TORSDOF 5
ENDMDL
MODEL 2
REMARK VINA RESULT:      -8.5      0.192      1.029
REMARK  Name = 
REMARK  6 active torsions:
REMARK  status: ('A' for Active; 'I' for Inactive)
REMARK    1  A    between atoms: C_1  and  N_2
REMARK    2  A    between atoms: N_2  and  C_3
REMARK    3  A    between atoms: N_2  and  S_15
REMARK    4  A    between atoms: C_3  and  C_4
REMARK    5  A    between atoms: N_6  and  C_7
REMARK    6  A    between atoms: S_15  and  C_18
REMARK                            x       y       z     vdW  Elec       q    Type
REMARK                         _______ _______ _______ _____ _____    ______ ____
ROOT
ATOM      1  C   UNL     1       7.370   4.607  17.281  0.00  0.00    +0.000 C 
ENDROOT
BRANCH   1   2
ATOM      2  C   UNL     1       6.596   4.500  18.597  0.00  0.00    +0.000 C 
ATOM      3  O   UNL     1       7.040   4.956  19.652  0.00  0.00    +0.000 OA
ATOM      4  N   UNL     1       5.400   3.816  18.522  0.00  0.00    +0.000 N 
ATOM      5  H   UNL     1       5.047   3.581  17.602  0.00  0.00    +0.000 HD
BRANCH   4   6
ATOM      6  C   UNL     1       4.529   3.582  19.685  0.00  0.00    +0.000 C 
ATOM      7  C   UNL     1       3.475   4.693  19.795  0.00  0.00    +0.000 C 
ATOM      8  C   UNL     1       2.491   4.585  20.965  0.00  0.00    +0.000 C 
ATOM      9  C   UNL     1       1.426   3.481  20.950  0.00  0.00    +0.000 C 
ATOM     10  C   UNL     1       0.856   3.098  19.586  0.00  0.00    +0.000 C 
ATOM     11  C   UNL     1       1.476   1.847  18.959  0.00  0.00    +0.000 C 
ATOM     12  C   UNL     1       2.928   1.952  18.497  0.00  0.00    +0.000 C 
ATOM     13  C   UNL     1       3.958   2.160  19.612  0.00  0.00    +0.000 C 
ENDBRANCH   4   6
ENDBRANCH   1   2
BRANCH   1  15
ATOM     14  C   UNL     1       7.095   7.064  17.402  0.00  0.00    +0.000 C 
ATOM     15  N   UNL     1       7.047   5.860  16.530  0.00  0.00    +0.000 NA
BRANCH  15  16
ATOM     16  S   UNL     1       5.595   5.732  15.630  0.00  0.00    +0.000 S 
ATOM     17  O   UNL     1       4.717   4.824  16.334  0.00  0.00    +0.000 OA
ATOM     18  O   UNL     1       5.167   7.070  15.287  0.00  0.00    +0.000 OA
BRANCH  16  19
ATOM     19  C   UNL     1       6.122   4.897  14.153  0.00  0.00    +0.000 A 
ATOM     20  C   UNL     1       7.348   5.261  13.585  0.00  0.00    +0.000 A 
ATOM     21  C   UNL     1       7.781   4.634  12.418  0.00  0.00    +0.000 A 
ATOM     22  C   UNL     1       6.997   3.642  11.828  0.00  0.00    +0.000 A 
ATOM     23  C   UNL     1       5.782   3.268  12.407  0.00  0.00    +0.000 A 
ATOM     24  C   UNL     1       5.339   3.892  13.577  0.00  0.00    +0.000 A 
ENDBRANCH  16  19
ENDBRANCH  15  16
ENDBRANCH   1  15
TORSDOF 5
ENDMDL
MODEL 3
REMARK VINA RESULT:      -8.5      1.259      1.806
REMARK  Name = 
REMARK  6 active torsions:
REMARK  status: ('A' for Active; 'I' for Inactive)
REMARK    1  A    between atoms: C_1  and  N_2
REMARK    2  A    between atoms: N_2  and  C_3
REMARK    3  A    between atoms: N_2  and  S_15
REMARK    4  A    between atoms: C_3  and  C_4
REMARK    5  A    between atoms: N_6  and  C_7
REMARK    6  A    between atoms: S_15  and  C_18
REMARK                            x       y       z     vdW  Elec       q    Type
REMARK                         _______ _______ _______ _____ _____    ______ ____
ROOT
ATOM      1  C   UNL     1       6.616   6.656  17.816  0.00  0.00    +0.000 C 
ENDROOT
BRANCH   1   2
ATOM      2  C   UNL     1       6.111   5.703  18.901  0.00  0.00    +0.000 C 
ATOM      3  O   UNL     1       6.873   5.186  19.719  0.00  0.00    +0.000 OA
ATOM      4  N   UNL     1       4.758   5.430  18.862  0.00  0.00    +0.000 N 
ATOM      5  H   UNL     1       4.182   5.986  18.242  0.00  0.00    +0.000 HD
BRANCH   4   6
ATOM      6  C   UNL     1       4.091   4.516  19.802  0.00  0.00    +0.000 C 
ATOM      7  C   UNL     1       2.767   5.122  20.290  0.00  0.00    +0.000 C 
ATOM      8  C   UNL     1       1.956   4.279  21.281  0.00  0.00    +0.000 C 
ATOM      9  C   UNL     1       1.269   2.999  20.789  0.00  0.00    +0.000 C 
ATOM     10  C   UNL     1       0.730   3.016  19.359  0.00  0.00    +0.000 C 
ATOM     11  C   UNL     1       1.642   2.354  18.322  0.00  0.00    +0.000 C 
ATOM     12  C   UNL     1       2.956   3.064  18.002  0.00  0.00    +0.000 C 
ATOM     13  C   UNL     1       3.963   3.130  19.155  0.00  0.00    +0.000 C 
ENDBRANCH   4   6
ENDBRANCH   1   2
BRANCH   1  15
ATOM     14  C   UNL     1       4.842   6.467  16.100  0.00  0.00    +0.000 C 
ATOM     15  N   UNL     1       6.264   6.190  16.438  0.00  0.00    +0.000 NA
BRANCH  15  16
ATOM     16  S   UNL     1       6.725   4.564  16.156  0.00  0.00    +0.000 S 
ATOM     17  O   UNL     1       8.048   4.376  16.707  0.00  0.00    +0.000 OA
ATOM     18  O   UNL     1       5.622   3.717  16.555  0.00  0.00    +0.000 OA
BRANCH  16  19
ATOM     19  C   UNL     1       6.890   4.505  14.388  0.00  0.00    +0.000 A 
ATOM     20  C   UNL     1       7.774   5.399  13.773  0.00  0.00    +0.000 A 
ATOM     21  C   UNL     1       7.914   5.386  12.386  0.00  0.00    +0.000 A 
ATOM     22  C   UNL     1       7.181   4.479  11.621  0.00  0.00    +0.000 A 
ATOM     23  C   UNL     1       6.313   3.575  12.238  0.00  0.00    +0.000 A 
ATOM     24  C   UNL     1       6.165   3.582  13.629  0.00  0.00    +0.000 A 
ENDBRANCH  16  19
ENDBRANCH  15  16
ENDBRANCH   1  15
TORSDOF 5
ENDMDL
MODEL 4
REMARK VINA RESULT:      -8.0      1.836      3.817
REMARK  Name = 
REMARK  6 active torsions:
REMARK  status: ('A' for Active; 'I' for Inactive)
REMARK    1  A    between atoms: C_1  and  N_2
REMARK    2  A    between atoms: N_2  and  C_3
REMARK    3  A    between atoms: N_2  and  S_15
REMARK    4  A    between atoms: C_3  and  C_4
REMARK    5  A    between atoms: N_6  and  C_7
REMARK    6  A    between atoms: S_15  and  C_18
REMARK                            x       y       z     vdW  Elec       q    Type
REMARK                         _______ _______ _______ _____ _____    ______ ____
ROOT
ATOM      1  C   UNL     1       6.938   4.738  17.731  0.00  0.00    +0.000 C 
ENDROOT
BRANCH   1   2
ATOM      2  C   UNL     1       6.100   4.331  18.946  0.00  0.00    +0.000 C 
ATOM      3  O   UNL     1       6.265   4.847  20.052  0.00  0.00    +0.000 OA
ATOM      4  N   UNL     1       5.191   3.317  18.720  0.00  0.00    +0.000 N 
ATOM      5  H   UNL     1       5.029   3.033  17.761  0.00  0.00    +0.000 HD
BRANCH   4   6
ATOM      6  C   UNL     1       4.317   2.768  19.768  0.00  0.00    +0.000 C 
ATOM      7  C   UNL     1       3.545   3.898  20.466  0.00  0.00    +0.000 C 
ATOM      8  C   UNL     1       2.589   3.477  21.588  0.00  0.00    +0.000 C 
ATOM      9  C   UNL     1       1.302   2.722  21.234  0.00  0.00    +0.000 C 
ATOM     10  C   UNL     1       0.628   3.098  19.915  0.00  0.00    +0.000 C 
ATOM     11  C   UNL     1       0.935   2.157  18.747  0.00  0.00    +0.000 C 
ATOM     12  C   UNL     1       2.362   2.172  18.202  0.00  0.00    +0.000 C 
ATOM     13  C   UNL     1       3.437   1.664  19.168  0.00  0.00    +0.000 C 
ENDBRANCH   4   6
ENDBRANCH   1   2
BRANCH   1  15
ATOM     14  C   UNL     1       6.721   4.212  15.323  0.00  0.00    +0.000 C 
ATOM     15  N   UNL     1       6.111   4.896  16.494  0.00  0.00    +0.000 NA
BRANCH  15  16
ATOM     16  S   UNL     1       5.694   6.528  16.185  0.00  0.00    +0.000 S 
ATOM     17  O   UNL     1       6.671   7.367  16.843  0.00  0.00    +0.000 OA
ATOM     18  O   UNL     1       5.431   6.657  14.769  0.00  0.00    +0.000 OA
BRANCH  16  19
ATOM     19  C   UNL     1       4.169   6.718  17.077  0.00  0.00    +0.000 A 
ATOM     20  C   UNL     1       3.762   8.009  17.431  0.00  0.00    +0.000 A 
ATOM     21  C   UNL     1       2.577   8.188  18.144  0.00  0.00    +0.000 A 
ATOM     22  C   UNL     1       1.800   7.082  18.492  0.00  0.00    +0.000 A 
ATOM     23  C   UNL     1       2.200   5.796  18.122  0.00  0.00    +0.000 A 
ATOM     24  C   UNL     1       3.387   5.607  17.408  0.00  0.00    +0.000 A 
ENDBRANCH  16  19
ENDBRANCH  15  16
ENDBRANCH   1  15
TORSDOF 5
ENDMDL
MODEL 5
REMARK VINA RESULT:      -8.0      1.772      3.674
REMARK  Name = 
REMARK  6 active torsions:
REMARK  status: ('A' for Active; 'I' for Inactive)
REMARK    1  A    between atoms: C_1  and  N_2
REMARK    2  A    between atoms: N_2  and  C_3
REMARK    3  A    between atoms: N_2  and  S_15
REMARK    4  A    between atoms: C_3  and  C_4
REMARK    5  A    between atoms: N_6  and  C_7
REMARK    6  A    between atoms: S_15  and  C_18
REMARK                            x       y       z     vdW  Elec       q    Type
REMARK                         _______ _______ _______ _____ _____    ______ ____
ROOT
ATOM      1  C   UNL     1       7.061   4.828  17.731  0.00  0.00    +0.000 C 
ENDROOT
BRANCH   1   2
ATOM      2  C   UNL     1       6.258   4.426  18.970  0.00  0.00    +0.000 C 
ATOM      3  O   UNL     1       6.513   4.879  20.086  0.00  0.00    +0.000 OA
ATOM      4  N   UNL     1       5.269   3.487  18.751  0.00  0.00    +0.000 N 
ATOM      5  H   UNL     1       5.040   3.258  17.791  0.00  0.00    +0.000 HD
BRANCH   4   6
ATOM      6  C   UNL     1       4.412   2.953  19.820  0.00  0.00    +0.000 C 
ATOM      7  C   UNL     1       3.529   4.066  20.404  0.00  0.00    +0.000 C 
ATOM      8  C   UNL     1       2.578   3.659  21.535  0.00  0.00    +0.000 C 
ATOM      9  C   UNL     1       1.368   2.772  21.214  0.00  0.00    +0.000 C 
ATOM     10  C   UNL     1       0.705   2.984  19.853  0.00  0.00    +0.000 C 
ATOM     11  C   UNL     1       1.123   1.981  18.774  0.00  0.00    +0.000 C 
ATOM     12  C   UNL     1       2.559   2.072  18.263  0.00  0.00    +0.000 C 
ATOM     13  C   UNL     1       3.643   1.734  19.293  0.00  0.00    +0.000 C 
ENDBRANCH   4   6
ENDBRANCH   1   2
BRANCH   1  15
ATOM     14  C   UNL     1       6.835   4.291  15.326  0.00  0.00    +0.000 C 
ATOM     15  N   UNL     1       6.206   4.940  16.508  0.00  0.00    +0.000 NA
BRANCH  15  16
ATOM     16  S   UNL     1       5.692   6.546  16.208  0.00  0.00    +0.000 S 
ATOM     17  O   UNL     1       6.622   7.438  16.864  0.00  0.00    +0.000 OA
ATOM     18  O   UNL     1       5.414   6.664  14.794  0.00  0.00    +0.000 OA
BRANCH  16  19
ATOM     19  C   UNL     1       4.164   6.642  17.109  0.00  0.00    +0.000 A 
ATOM     20  C   UNL     1       3.380   5.488  17.213  0.00  0.00    +0.000 A 
ATOM     21  C   UNL     1       2.168   5.537  17.901  0.00  0.00    +0.000 A 
ATOM     22  C   UNL     1       1.749   6.731  18.489  0.00  0.00    +0.000 A 
ATOM     23  C   UNL     1       2.542   7.877  18.399  0.00  0.00    +0.000 A 
ATOM     24  C   UNL     1       3.758   7.838  17.710  0.00  0.00    +0.000 A 
ENDBRANCH  16  19
ENDBRANCH  15  16
ENDBRANCH   1  15
TORSDOF 5
ENDMDL
MODEL 6
REMARK VINA RESULT:      -7.8      4.138      8.040
REMARK  Name = 
REMARK  6 active torsions:
REMARK  status: ('A' for Active; 'I' for Inactive)
REMARK    1  A    between atoms: C_1  and  N_2
REMARK    2  A    between atoms: N_2  and  C_3
REMARK    3  A    between atoms: N_2  and  S_15
REMARK    4  A    between atoms: C_3  and  C_4
REMARK    5  A    between atoms: N_6  and  C_7
REMARK    6  A    between atoms: S_15  and  C_18
REMARK                            x       y       z     vdW  Elec       q    Type
REMARK                         _______ _______ _______ _____ _____    ______ ____
ROOT
ATOM      1  C   UNL     1       7.965   7.226  17.527  0.00  0.00    +0.000 C 
ENDROOT
BRANCH   1   2
ATOM      2  C   UNL     1       7.840   8.710  17.880  0.00  0.00    +0.000 C 
ATOM      3  O   UNL     1       6.948   9.417  17.410  0.00  0.00    +0.000 OA
ATOM      4  N   UNL     1       8.823   9.201  18.716  0.00  0.00    +0.000 N 
ATOM      5  H   UNL     1       9.445   8.534  19.156  0.00  0.00    +0.000 HD
BRANCH   4   6
ATOM      6  C   UNL     1       8.890  10.607  19.144  0.00  0.00    +0.000 C 
ATOM      7  C   UNL     1       9.592  10.718  20.506  0.00  0.00    +0.000 C 
ATOM      8  C   UNL     1       9.737  12.130  21.084  0.00  0.00    +0.000 C 
ATOM      9  C   UNL     1      10.711  13.115  20.424  0.00  0.00    +0.000 C 
ATOM     10  C   UNL     1      11.989  12.522  19.833  0.00  0.00    +0.000 C 
ATOM     11  C   UNL     1      11.948  12.290  18.320  0.00  0.00    +0.000 C 
ATOM     12  C   UNL     1      11.017  11.190  17.814  0.00  0.00    +0.000 C 
ATOM     13  C   UNL     1       9.522  11.448  18.026  0.00  0.00    +0.000 C 
ENDBRANCH   4   6
ENDBRANCH   1   2
BRANCH   1  15
ATOM     14  C   UNL     1       6.987   5.551  19.063  0.00  0.00    +0.000 C 
ATOM     15  N   UNL     1       6.744   6.446  17.900  0.00  0.00    +0.000 NA
BRANCH  15  16
ATOM     16  S   UNL     1       6.043   5.642  16.560  0.00  0.00    +0.000 S 
ATOM     17  O   UNL     1       5.846   6.618  15.511  0.00  0.00    +0.000 OA
ATOM     18  O   UNL     1       6.801   4.433  16.323  0.00  0.00    +0.000 OA
BRANCH  16  19
ATOM     19  C   UNL     1       4.431   5.205  17.166  0.00  0.00    +0.000 A 
ATOM     20  C   UNL     1       3.644   6.207  17.746  0.00  0.00    +0.000 A 
ATOM     21  C   UNL     1       2.381   5.891  18.243  0.00  0.00    +0.000 A 
ATOM     22  C   UNL     1       1.904   4.583  18.153  0.00  0.00    +0.000 A 
ATOM     23  C   UNL     1       2.684   3.588  17.559  0.00  0.00    +0.000 A 
ATOM     24  C   UNL     1       3.953   3.896  17.058  0.00  0.00    +0.000 A 
ENDBRANCH  16  19
ENDBRANCH  15  16
ENDBRANCH   1  15
TORSDOF 5
ENDMDL
MODEL 7
REMARK VINA RESULT:      -7.7      1.796      2.736
REMARK  Name = 
REMARK  6 active torsions:
REMARK  status: ('A' for Active; 'I' for Inactive)
REMARK    1  A    between atoms: C_1  and  N_2
REMARK    2  A    between atoms: N_2  and  C_3
REMARK    3  A    between atoms: N_2  and  S_15
REMARK    4  A    between atoms: C_3  and  C_4
REMARK    5  A    between atoms: N_6  and  C_7
REMARK    6  A    between atoms: S_15  and  C_18
REMARK                            x       y       z     vdW  Elec       q    Type
REMARK                         _______ _______ _______ _____ _____    ______ ____
ROOT
ATOM      1  C   UNL     1       5.251   6.806  16.765  0.00  0.00    +0.000 C 
ENDROOT
BRANCH   1   2
ATOM      2  C   UNL     1       3.872   6.636  17.406  0.00  0.00    +0.000 C 
ATOM      3  O   UNL     1       3.220   7.598  17.811  0.00  0.00    +0.000 OA
ATOM      4  N   UNL     1       3.442   5.330  17.540  0.00  0.00    +0.000 N 
ATOM      5  H   UNL     1       3.976   4.607  17.073  0.00  0.00    +0.000 HD
BRANCH   4   6
ATOM      6  C   UNL     1       2.159   4.962  18.158  0.00  0.00    +0.000 C 
ATOM      7  C   UNL     1       1.911   3.453  18.016  0.00  0.00    +0.000 C 
ATOM      8  C   UNL     1       0.605   2.918  18.615  0.00  0.00    +0.000 C 
ATOM      9  C   UNL     1       0.444   2.871  20.140  0.00  0.00    +0.000 C 
ATOM     10  C   UNL     1       1.702   2.570  20.953  0.00  0.00    +0.000 C 
ATOM     11  C   UNL     1       2.394   3.802  21.543  0.00  0.00    +0.000 C 
ATOM     12  C   UNL     1       3.069   4.754  20.559  0.00  0.00    +0.000 C 
ATOM     13  C   UNL     1       2.123   5.486  19.601  0.00  0.00    +0.000 C 
ENDBRANCH   4   6
ENDBRANCH   1   2
BRANCH   1  15
ATOM     14  C   UNL     1       7.515   7.322  17.619  0.00  0.00    +0.000 C 
ATOM     15  N   UNL     1       6.360   6.387  17.678  0.00  0.00    +0.000 NA
BRANCH  15  16
ATOM     16  S   UNL     1       6.804   4.746  17.464  0.00  0.00    +0.000 S 
ATOM     17  O   UNL     1       8.201   4.617  17.811  0.00  0.00    +0.000 OA
ATOM     18  O   UNL     1       5.796   3.929  18.103  0.00  0.00    +0.000 OA
BRANCH  16  19
ATOM     19  C   UNL     1       6.689   4.536  15.704  0.00  0.00    +0.000 A 
ATOM     20  C   UNL     1       5.647   3.752  15.194  0.00  0.00    +0.000 A 
ATOM     21  C   UNL     1       5.540   3.557  13.818  0.00  0.00    +0.000 A 
ATOM     22  C   UNL     1       6.464   4.150  12.957  0.00  0.00    +0.000 A 
ATOM     23  C   UNL     1       7.493   4.946  13.466  0.00  0.00    +0.000 A 
ATOM     24  C   UNL     1       7.608   5.146  14.845  0.00  0.00    +0.000 A 
ENDBRANCH  16  19
ENDBRANCH  15  16
ENDBRANCH   1  15
TORSDOF 5
ENDMDL
MODEL 8
REMARK VINA RESULT:      -7.7      1.799      2.926
REMARK  Name = 
REMARK  6 active torsions:
REMARK  status: ('A' for Active; 'I' for Inactive)
REMARK    1  A    between atoms: C_1  and  N_2
REMARK    2  A    between atoms: N_2  and  C_3
REMARK    3  A    between atoms: N_2  and  S_15
REMARK    4  A    between atoms: C_3  and  C_4
REMARK    5  A    between atoms: N_6  and  C_7
REMARK    6  A    between atoms: S_15  and  C_18
REMARK                            x       y       z     vdW  Elec       q    Type
REMARK                         _______ _______ _______ _____ _____    ______ ____
ROOT
ATOM      1  C   UNL     1       5.264   6.842  16.788  0.00  0.00    +0.000 C 
ENDROOT
BRANCH   1   2
ATOM      2  C   UNL     1       3.884   6.669  17.428  0.00  0.00    +0.000 C 
ATOM      3  O   UNL     1       3.239   7.628  17.851  0.00  0.00    +0.000 OA
ATOM      4  N   UNL     1       3.446   5.364  17.538  0.00  0.00    +0.000 N 
ATOM      5  H   UNL     1       3.975   4.646  17.058  0.00  0.00    +0.000 HD
BRANCH   4   6
ATOM      6  C   UNL     1       2.162   4.993  18.151  0.00  0.00    +0.000 C 
ATOM      7  C   UNL     1       1.910   3.486  17.995  0.00  0.00    +0.000 C 
ATOM      8  C   UNL     1       0.602   2.948  18.587  0.00  0.00    +0.000 C 
ATOM      9  C   UNL     1       0.438   2.888  20.111  0.00  0.00    +0.000 C 
ATOM     10  C   UNL     1       1.695   2.577  20.923  0.00  0.00    +0.000 C 
ATOM     11  C   UNL     1       2.388   3.801  21.526  0.00  0.00    +0.000 C 
ATOM     12  C   UNL     1       3.067   4.761  20.551  0.00  0.00    +0.000 C 
ATOM     13  C   UNL     1       2.124   5.503  19.598  0.00  0.00    +0.000 C 
ENDBRANCH   4   6
ENDBRANCH   1   2
BRANCH   1  15
ATOM     14  C   UNL     1       7.538   7.345  17.623  0.00  0.00    +0.000 C 
ATOM     15  N   UNL     1       6.373   6.424  17.702  0.00  0.00    +0.000 NA
BRANCH  15  16
ATOM     16  S   UNL     1       6.796   4.775  17.512  0.00  0.00    +0.000 S 
ATOM     17  O   UNL     1       8.199   4.638  17.834  0.00  0.00    +0.000 OA
ATOM     18  O   UNL     1       5.792   3.980  18.186  0.00  0.00    +0.000 OA
BRANCH  16  19
ATOM     19  C   UNL     1       6.644   4.532  15.758  0.00  0.00    +0.000 A 
ATOM     20  C   UNL     1       7.607   5.108  14.922  0.00  0.00    +0.000 A 
ATOM     21  C   UNL     1       7.505   4.947  13.540  0.00  0.00    +0.000 A 
ATOM     22  C   UNL     1       6.453   4.206  13.001  0.00  0.00    +0.000 A 
ATOM     23  C   UNL     1       5.503   3.618  13.839  0.00  0.00    +0.000 A 
ATOM     24  C   UNL     1       5.596   3.775  15.225  0.00  0.00    +0.000 A 
ENDBRANCH  16  19
ENDBRANCH  15  16
ENDBRANCH   1  15
TORSDOF 5
ENDMDL
MODEL 9
REMARK VINA RESULT:      -7.6      4.271      6.302
REMARK  Name = 
REMARK  6 active torsions:
REMARK  status: ('A' for Active; 'I' for Inactive)
REMARK    1  A    between atoms: C_1  and  N_2
REMARK    2  A    between atoms: N_2  and  C_3
REMARK    3  A    between atoms: N_2  and  S_15
REMARK    4  A    between atoms: C_3  and  C_4
REMARK    5  A    between atoms: N_6  and  C_7
REMARK    6  A    between atoms: S_15  and  C_18
REMARK                            x       y       z     vdW  Elec       q    Type
REMARK                         _______ _______ _______ _____ _____    ______ ____
ROOT
ATOM      1  C   UNL     1       2.048   5.266  19.828  0.00  0.00    +0.000 C 
ENDROOT
BRANCH   1   2
ATOM      2  C   UNL     1       2.213   6.787  19.790  0.00  0.00    +0.000 C 
ATOM      3  O   UNL     1       2.902   7.346  18.936  0.00  0.00    +0.000 OA
ATOM      4  N   UNL     1       1.579   7.473  20.807  0.00  0.00    +0.000 N 
ATOM      5  H   UNL     1       0.935   6.958  21.394  0.00  0.00    +0.000 HD
BRANCH   4   6
ATOM      6  C   UNL     1       1.645   8.935  20.958  0.00  0.00    +0.000 C 
ATOM      7  C   UNL     1       0.698   9.619  19.961  0.00  0.00    +0.000 C 
ATOM      8  C   UNL     1       0.659  11.151  20.000  0.00  0.00    +0.000 C 
ATOM      9  C   UNL     1       0.015  11.855  21.201  0.00  0.00    +0.000 C 
ATOM     10  C   UNL     1      -1.186  11.159  21.839  0.00  0.00    +0.000 C 
ATOM     11  C   UNL     1      -0.864  10.347  23.096  0.00  0.00    +0.000 C 
ATOM     12  C   UNL     1      -0.032   9.079  22.906  0.00  0.00    +0.000 C 
ATOM     13  C   UNL     1       1.406   9.304  22.428  0.00  0.00    +0.000 C 
ENDBRANCH   4   6
ENDBRANCH   1   2
BRANCH   1  15
ATOM     14  C   UNL     1       1.308   3.886  17.912  0.00  0.00    +0.000 C 
ATOM     15  N   UNL     1       2.442   4.617  18.539  0.00  0.00    +0.000 NA
BRANCH  15  16
ATOM     16  S   UNL     1       3.862   3.671  18.685  0.00  0.00    +0.000 S 
ATOM     17  O   UNL     1       4.066   3.392  20.089  0.00  0.00    +0.000 OA
ATOM     18  O   UNL     1       3.783   2.602  17.714  0.00  0.00    +0.000 OA
BRANCH  16  19
ATOM     19  C   UNL     1       5.139   4.804  18.194  0.00  0.00    +0.000 A 
ATOM     20  C   UNL     1       6.192   5.045  19.084  0.00  0.00    +0.000 A 
ATOM     21  C   UNL     1       7.201   5.941  18.733  0.00  0.00    +0.000 A 
ATOM     22  C   UNL     1       7.162   6.584  17.495  0.00  0.00    +0.000 A 
ATOM     23  C   UNL     1       6.119   6.329  16.602  0.00  0.00    +0.000 A 
ATOM     24  C   UNL     1       5.102   5.433  16.946  0.00  0.00    +0.000 A 
ENDBRANCH  16  19
ENDBRANCH  15  16
ENDBRANCH   1  15
TORSDOF 5
ENDMDL
