MODEL 1
REMARK VINA RESULT:      -8.4      0.000      0.000
REMARK  Name = 
REMARK  7 active torsions:
REMARK  status: ('A' for Active; 'I' for Inactive)
REMARK    1  A    between atoms: C_1  and  C_2
REMARK    2  A    between atoms: C_6  and  C_7
REMARK    3  A    between atoms: N_9  and  C_10
REMARK    4  A    between atoms: C_10  and  C_11
REMARK    5  A    between atoms: C_14  and  O_15
REMARK    6  A    between atoms: O_15  and  C_16
REMARK    7  A    between atoms: C_24  and  C_25
REMARK                            x       y       z     vdW  Elec       q    Type
REMARK                         _______ _______ _______ _____ _____    ______ ____
ROOT
ATOM      1  O   UNL     1       0.794  10.843  18.698  0.00  0.00    +0.000 OA
ENDROOT
BRANCH   1   2
ATOM      2  C   UNL     1       1.331  12.032  19.145  0.00  0.00    +0.000 A 
ATOM      3  C   UNL     1       1.071  12.542  20.420  0.00  0.00    +0.000 A 
ATOM      4  C   UNL     1       1.592  13.775  20.802  0.00  0.00    +0.000 A 
ATOM      5  C   UNL     1       2.381  14.501  19.913  0.00  0.00    +0.000 A 
ATOM      6  C   UNL     1       2.751  13.959  18.678  0.00  0.00    +0.000 A 
ATOM      7  C   UNL     1       2.213  12.716  18.296  0.00  0.00    +0.000 A 
ATOM      8  C   UNL     1       3.647  14.728  17.746  0.00  0.00    +0.000 C 
ATOM      9  C   UNL     1       4.168  16.008  18.400  0.00  0.00    +0.000 C 
ATOM     10  C   UNL     1       3.060  16.664  19.233  0.00  0.00    +0.000 C 
ATOM     11  O   UNL     1       2.714  15.769  20.314  0.00  0.00    +0.000 OA
BRANCH  10  12
ATOM     12  C   UNL     1       1.841  17.189  18.465  0.00  0.00    +0.000 A 
ATOM     13  C   UNL     1       1.995  17.838  17.228  0.00  0.00    +0.000 A 
ATOM     14  C   UNL     1       0.888  18.301  16.510  0.00  0.00    +0.000 A 
ATOM     15  C   UNL     1      -0.399  18.101  17.003  0.00  0.00    +0.000 A 
ATOM     16  C   UNL     1      -0.576  17.446  18.217  0.00  0.00    +0.000 A 
ATOM     17  C   UNL     1       0.532  16.993  18.941  0.00  0.00    +0.000 A 
ENDBRANCH  10  12
ENDBRANCH   1   2
BRANCH   1  21
ATOM     18  C   UNL     1       2.180   7.452  19.544  0.00  0.00    +0.000 A 
ATOM     19  C   UNL     1       1.537   8.014  20.629  0.00  0.00    +0.000 A 
ATOM     20  N   UNL     1       0.980   9.262  20.425  0.00  0.00    +0.000 NA
ATOM     21  C   UNL     1       1.202   9.662  19.190  0.00  0.00    +0.000 A 
ATOM     22  S   UNL     1       2.055   8.532  18.209  0.00  0.00    +0.000 S 
BRANCH  18  23
ATOM     23  C   UNL     1       2.829   6.113  19.433  0.00  0.00    +0.000 C 
BRANCH  23  26
ATOM     24  C   UNL     1       5.022   5.485  18.497  0.00  0.00    +0.000 C 
ATOM     25  O   UNL     1       5.354   4.941  19.553  0.00  0.00    +0.000 OA
ATOM     26  N   UNL     1       3.787   6.090  18.353  0.00  0.00    +0.000 N 
ATOM     27  H   UNL     1       3.572   6.522  17.461  0.00  0.00    +0.000 HD
BRANCH  24  33
ATOM     28  C   UNL     1       7.633   7.430  17.715  0.00  0.00    +0.000 C 
ATOM     29  C   UNL     1       6.960   6.335  16.981  0.00  0.00    +0.000 A 
ATOM     30  N   UNL     1       7.416   5.967  15.730  0.00  0.00    +0.000 NA
ATOM     31  C   UNL     1       6.612   4.990  15.380  0.00  0.00    +0.000 A 
ATOM     32  O   UNL     1       5.653   4.671  16.290  0.00  0.00    +0.000 OA
ATOM     33  C   UNL     1       5.876   5.546  17.334  0.00  0.00    +0.000 A 
ENDBRANCH  24  33
ENDBRANCH  23  26
ENDBRANCH  18  23
ENDBRANCH   1  21
TORSDOF 6
ENDMDL
MODEL 2
REMARK VINA RESULT:      -8.3      0.931      1.492
REMARK  Name = 
REMARK  7 active torsions:
REMARK  status: ('A' for Active; 'I' for Inactive)
REMARK    1  A    between atoms: C_1  and  C_2
REMARK    2  A    between atoms: C_6  and  C_7
REMARK    3  A    between atoms: N_9  and  C_10
REMARK    4  A    between atoms: C_10  and  C_11
REMARK    5  A    between atoms: C_14  and  O_15
REMARK    6  A    between atoms: O_15  and  C_16
REMARK    7  A    between atoms: C_24  and  C_25
REMARK                            x       y       z     vdW  Elec       q    Type
REMARK                         _______ _______ _______ _____ _____    ______ ____
ROOT
ATOM      1  O   UNL     1       1.269  10.708  18.321  0.00  0.00    +0.000 OA
ENDROOT
BRANCH   1   2
ATOM      2  C   UNL     1       1.679  11.912  18.857  0.00  0.00    +0.000 A 
ATOM      3  C   UNL     1       1.321  12.322  20.144  0.00  0.00    +0.000 A 
ATOM      4  C   UNL     1       1.713  13.571  20.617  0.00  0.00    +0.000 A 
ATOM      5  C   UNL     1       2.470  14.413  19.807  0.00  0.00    +0.000 A 
ATOM      6  C   UNL     1       2.939  13.979  18.563  0.00  0.00    +0.000 A 
ATOM      7  C   UNL     1       2.530  12.718  18.088  0.00  0.00    +0.000 A 
ATOM      8  C   UNL     1       3.800  14.877  17.717  0.00  0.00    +0.000 C 
ATOM      9  C   UNL     1       4.176  16.157  18.463  0.00  0.00    +0.000 C 
ATOM     10  C   UNL     1       2.980  16.663  19.278  0.00  0.00    +0.000 C 
ATOM     11  O   UNL     1       2.671  15.681  20.291  0.00  0.00    +0.000 OA
BRANCH  10  12
ATOM     12  C   UNL     1       1.752  17.124  18.484  0.00  0.00    +0.000 A 
ATOM     13  C   UNL     1       0.452  16.895  18.970  0.00  0.00    +0.000 A 
ATOM     14  C   UNL     1      -0.672  17.330  18.263  0.00  0.00    +0.000 A 
ATOM     15  C   UNL     1      -0.521  18.028  17.068  0.00  0.00    +0.000 A 
ATOM     16  C   UNL     1       0.755  18.281  16.576  0.00  0.00    +0.000 A 
ATOM     17  C   UNL     1       1.880  17.835  17.277  0.00  0.00    +0.000 A 
ENDBRANCH  10  12
ENDBRANCH   1   2
BRANCH   1  21
ATOM     18  C   UNL     1       2.135   7.295  19.638  0.00  0.00    +0.000 A 
ATOM     19  C   UNL     1       1.454   8.037  20.583  0.00  0.00    +0.000 A 
ATOM     20  N   UNL     1       1.077   9.310  20.198  0.00  0.00    +0.000 NA
ATOM     21  C   UNL     1       1.476   9.549  18.966  0.00  0.00    +0.000 A 
ATOM     22  S   UNL     1       2.285   8.234  18.203  0.00  0.00    +0.000 S 
BRANCH  18  23
ATOM     23  C   UNL     1       2.624   5.888  19.731  0.00  0.00    +0.000 C 
BRANCH  23  26
ATOM     24  C   UNL     1       4.218   4.779  18.211  0.00  0.00    +0.000 C 
ATOM     25  O   UNL     1       3.357   3.979  17.840  0.00  0.00    +0.000 OA
ATOM     26  N   UNL     1       3.939   5.759  19.147  0.00  0.00    +0.000 N 
ATOM     27  H   UNL     1       4.688   6.387  19.414  0.00  0.00    +0.000 HD
BRANCH  24  33
ATOM     28  C   UNL     1       5.508   5.072  15.135  0.00  0.00    +0.000 C 
ATOM     29  C   UNL     1       6.141   4.887  16.459  0.00  0.00    +0.000 A 
ATOM     30  N   UNL     1       7.516   4.807  16.557  0.00  0.00    +0.000 NA
ATOM     31  C   UNL     1       7.730   4.648  17.842  0.00  0.00    +0.000 A 
ATOM     32  O   UNL     1       6.614   4.614  18.618  0.00  0.00    +0.000 OA
ATOM     33  C   UNL     1       5.577   4.768  17.720  0.00  0.00    +0.000 A 
ENDBRANCH  24  33
ENDBRANCH  23  26
ENDBRANCH  18  23
ENDBRANCH   1  21
TORSDOF 6
ENDMDL
MODEL 3
REMARK VINA RESULT:      -8.2      1.086      1.407
REMARK  Name = 
REMARK  7 active torsions:
REMARK  status: ('A' for Active; 'I' for Inactive)
REMARK    1  A    between atoms: C_1  and  C_2
REMARK    2  A    between atoms: C_6  and  C_7
REMARK    3  A    between atoms: N_9  and  C_10
REMARK    4  A    between atoms: C_10  and  C_11
REMARK    5  A    between atoms: C_14  and  O_15
REMARK    6  A    between atoms: O_15  and  C_16
REMARK    7  A    between atoms: C_24  and  C_25
REMARK                            x       y       z     vdW  Elec       q    Type
REMARK                         _______ _______ _______ _____ _____    ______ ____
ROOT
ATOM      1  O   UNL     1       0.868  10.976  18.673  0.00  0.00    +0.000 OA
ENDROOT
BRANCH   1   2
ATOM      2  C   UNL     1       1.389  12.179  19.105  0.00  0.00    +0.000 A 
ATOM      3  C   UNL     1       1.149  12.684  20.386  0.00  0.00    +0.000 A 
ATOM      4  C   UNL     1       1.652  13.929  20.754  0.00  0.00    +0.000 A 
ATOM      5  C   UNL     1       2.400  14.672  19.844  0.00  0.00    +0.000 A 
ATOM      6  C   UNL     1       2.751  14.137  18.601  0.00  0.00    +0.000 A 
ATOM      7  C   UNL     1       2.232  12.882  18.233  0.00  0.00    +0.000 A 
ATOM      8  C   UNL     1       3.604  14.926  17.645  0.00  0.00    +0.000 C 
ATOM      9  C   UNL     1       4.112  16.219  18.284  0.00  0.00    +0.000 C 
ATOM     10  C   UNL     1       3.011  16.849  19.146  0.00  0.00    +0.000 C 
ATOM     11  O   UNL     1       2.714  15.949  20.235  0.00  0.00    +0.000 OA
BRANCH  10  12
ATOM     12  C   UNL     1       1.761  17.345  18.409  0.00  0.00    +0.000 A 
ATOM     13  C   UNL     1       1.858  17.908  17.125  0.00  0.00    +0.000 A 
ATOM     14  C   UNL     1       0.721  18.344  16.437  0.00  0.00    +0.000 A 
ATOM     15  C   UNL     1      -0.540  18.199  17.008  0.00  0.00    +0.000 A 
ATOM     16  C   UNL     1      -0.662  17.629  18.270  0.00  0.00    +0.000 A 
ATOM     17  C   UNL     1       0.476  17.205  18.964  0.00  0.00    +0.000 A 
ENDBRANCH  10  12
ENDBRANCH   1   2
BRANCH   1  21
ATOM     18  C   UNL     1       1.895   7.583  19.924  0.00  0.00    +0.000 A 
ATOM     19  C   UNL     1       1.305   8.328  20.926  0.00  0.00    +0.000 A 
ATOM     20  N   UNL     1       0.879   9.594  20.571  0.00  0.00    +0.000 NA
ATOM     21  C   UNL     1       1.150   9.825  19.303  0.00  0.00    +0.000 A 
ATOM     22  S   UNL     1       1.891   8.510  18.474  0.00  0.00    +0.000 S 
BRANCH  18  23
ATOM     23  C   UNL     1       2.405   6.181  19.978  0.00  0.00    +0.000 C 
BRANCH  23  26
ATOM     24  C   UNL     1       4.403   4.895  19.321  0.00  0.00    +0.000 C 
ATOM     25  O   UNL     1       3.828   3.827  19.543  0.00  0.00    +0.000 OA
ATOM     26  N   UNL     1       3.769   6.110  19.512  0.00  0.00    +0.000 N 
ATOM     27  H   UNL     1       4.294   6.954  19.313  0.00  0.00    +0.000 HD
BRANCH  24  33
ATOM     28  C   UNL     1       5.833   4.183  16.379  0.00  0.00    +0.000 C 
ATOM     29  C   UNL     1       6.389   4.694  17.651  0.00  0.00    +0.000 A 
ATOM     30  N   UNL     1       7.741   4.960  17.750  0.00  0.00    +0.000 NA
ATOM     31  C   UNL     1       7.886   5.389  18.982  0.00  0.00    +0.000 A 
ATOM     32  O   UNL     1       6.745   5.432  19.721  0.00  0.00    +0.000 OA
ATOM     33  C   UNL     1       5.768   4.980  18.857  0.00  0.00    +0.000 A 
ENDBRANCH  24  33
ENDBRANCH  23  26
ENDBRANCH  18  23
ENDBRANCH   1  21
TORSDOF 6
ENDMDL
MODEL 4
REMARK VINA RESULT:      -8.2      1.220      1.671
REMARK  Name = 
REMARK  7 active torsions:
REMARK  status: ('A' for Active; 'I' for Inactive)
REMARK    1  A    between atoms: C_1  and  C_2
REMARK    2  A    between atoms: C_6  and  C_7
REMARK    3  A    between atoms: N_9  and  C_10
REMARK    4  A    between atoms: C_10  and  C_11
REMARK    5  A    between atoms: C_14  and  O_15
REMARK    6  A    between atoms: O_15  and  C_16
REMARK    7  A    between atoms: C_24  and  C_25
REMARK                            x       y       z     vdW  Elec       q    Type
REMARK                         _______ _______ _______ _____ _____    ______ ____
ROOT
ATOM      1  O   UNL     1       0.401  11.153  19.024  0.00  0.00    +0.000 OA
ENDROOT
BRANCH   1   2
ATOM      2  C   UNL     1       1.018  12.342  19.353  0.00  0.00    +0.000 A 
ATOM      3  C   UNL     1       0.894  12.929  20.615  0.00  0.00    +0.000 A 
ATOM      4  C   UNL     1       1.490  14.158  20.878  0.00  0.00    +0.000 A 
ATOM      5  C   UNL     1       2.219  14.804  19.883  0.00  0.00    +0.000 A 
ATOM      6  C   UNL     1       2.456  14.183  18.652  0.00  0.00    +0.000 A 
ATOM      7  C   UNL     1       1.841  12.944  18.390  0.00  0.00    +0.000 A 
ATOM      8  C   UNL     1       3.288  14.866  17.601  0.00  0.00    +0.000 C 
ATOM      9  C   UNL     1       3.911  16.156  18.132  0.00  0.00    +0.000 C 
ATOM     10  C   UNL     1       2.908  16.899  19.023  0.00  0.00    +0.000 C 
ATOM     11  O   UNL     1       2.632  16.078  20.179  0.00  0.00    +0.000 OA
BRANCH  10  12
ATOM     12  C   UNL     1       1.643  17.431  18.339  0.00  0.00    +0.000 A 
ATOM     13  C   UNL     1       0.409  17.437  19.013  0.00  0.00    +0.000 A 
ATOM     14  C   UNL     1      -0.746  17.939  18.404  0.00  0.00    +0.000 A 
ATOM     15  C   UNL     1      -0.685  18.471  17.119  0.00  0.00    +0.000 A 
ATOM     16  C   UNL     1       0.529  18.490  16.440  0.00  0.00    +0.000 A 
ATOM     17  C   UNL     1       1.681  17.976  17.043  0.00  0.00    +0.000 A 
ENDBRANCH  10  12
ENDBRANCH   1   2
BRANCH   1  21
ATOM     18  C   UNL     1       2.176   7.839  19.028  0.00  0.00    +0.000 A 
ATOM     19  C   UNL     1       2.398   8.524  17.849  0.00  0.00    +0.000 A 
ATOM     20  N   UNL     1       1.797   9.763  17.745  0.00  0.00    +0.000 NA
ATOM     21  C   UNL     1       1.107  10.027  18.836  0.00  0.00    +0.000 A 
ATOM     22  S   UNL     1       1.189   8.809  20.051  0.00  0.00    +0.000 S 
BRANCH  18  23
ATOM     23  C   UNL     1       2.722   6.518  19.458  0.00  0.00    +0.000 C 
BRANCH  23  26
ATOM     24  C   UNL     1       4.570   4.986  18.898  0.00  0.00    +0.000 C 
ATOM     25  O   UNL     1       4.104   4.105  19.626  0.00  0.00    +0.000 OA
ATOM     26  N   UNL     1       3.947   6.213  18.758  0.00  0.00    +0.000 N 
ATOM     27  H   UNL     1       4.379   6.896  18.147  0.00  0.00    +0.000 HD
BRANCH  24  33
ATOM     28  C   UNL     1       5.221   5.089  15.615  0.00  0.00    +0.000 C 
ATOM     29  C   UNL     1       6.092   4.863  16.789  0.00  0.00    +0.000 A 
ATOM     30  N   UNL     1       7.443   4.643  16.608  0.00  0.00    +0.000 NA
ATOM     31  C   UNL     1       7.901   4.487  17.828  0.00  0.00    +0.000 A 
ATOM     32  O   UNL     1       6.970   4.581  18.815  0.00  0.00    +0.000 OA
ATOM     33  C   UNL     1       5.790   4.826  18.142  0.00  0.00    +0.000 A 
ENDBRANCH  24  33
ENDBRANCH  23  26
ENDBRANCH  18  23
ENDBRANCH   1  21
TORSDOF 6
ENDMDL
MODEL 5
REMARK VINA RESULT:      -8.1      0.758      1.138
REMARK  Name = 
REMARK  7 active torsions:
REMARK  status: ('A' for Active; 'I' for Inactive)
REMARK    1  A    between atoms: C_1  and  C_2
REMARK    2  A    between atoms: C_6  and  C_7
REMARK    3  A    between atoms: N_9  and  C_10
REMARK    4  A    between atoms: C_10  and  C_11
REMARK    5  A    between atoms: C_14  and  O_15
REMARK    6  A    between atoms: O_15  and  C_16
REMARK    7  A    between atoms: C_24  and  C_25
REMARK                            x       y       z     vdW  Elec       q    Type
REMARK                         _______ _______ _______ _____ _____    ______ ____
ROOT
ATOM      1  O   UNL     1       1.093  10.638  18.385  0.00  0.00    +0.000 OA
ENDROOT
BRANCH   1   2
ATOM      2  C   UNL     1       1.543  11.832  18.910  0.00  0.00    +0.000 A 
ATOM      3  C   UNL     1       1.196  12.268  20.191  0.00  0.00    +0.000 A 
ATOM      4  C   UNL     1       1.631  13.507  20.652  0.00  0.00    +0.000 A 
ATOM      5  C   UNL     1       2.418  14.314  19.836  0.00  0.00    +0.000 A 
ATOM      6  C   UNL     1       2.875  13.851  18.598  0.00  0.00    +0.000 A 
ATOM      7  C   UNL     1       2.424  12.601  18.135  0.00  0.00    +0.000 A 
ATOM      8  C   UNL     1       3.770  14.709  17.746  0.00  0.00    +0.000 C 
ATOM      9  C   UNL     1       4.188  15.983  18.480  0.00  0.00    +0.000 C 
ATOM     10  C   UNL     1       3.009  16.539  19.287  0.00  0.00    +0.000 C 
ATOM     11  O   UNL     1       2.663  15.578  20.308  0.00  0.00    +0.000 OA
BRANCH  10  12
ATOM     12  C   UNL     1       1.800  17.035  18.484  0.00  0.00    +0.000 A 
ATOM     13  C   UNL     1       0.490  16.787  18.929  0.00  0.00    +0.000 A 
ATOM     14  C   UNL     1      -0.618  17.253  18.215  0.00  0.00    +0.000 A 
ATOM     15  C   UNL     1      -0.438  18.000  17.054  0.00  0.00    +0.000 A 
ATOM     16  C   UNL     1       0.849  18.272  16.604  0.00  0.00    +0.000 A 
ATOM     17  C   UNL     1       1.957  17.795  17.312  0.00  0.00    +0.000 A 
ENDBRANCH  10  12
ENDBRANCH   1   2
BRANCH   1  21
ATOM     18  C   UNL     1       2.394   7.249  19.362  0.00  0.00    +0.000 A 
ATOM     19  C   UNL     1       1.669   7.821  20.388  0.00  0.00    +0.000 A 
ATOM     20  N   UNL     1       1.135   9.069  20.132  0.00  0.00    +0.000 NA
ATOM     21  C   UNL     1       1.456   9.460  18.916  0.00  0.00    +0.000 A 
ATOM     22  S   UNL     1       2.379   8.320  18.014  0.00  0.00    +0.000 S 
BRANCH  18  23
ATOM     23  C   UNL     1       3.044   5.906  19.312  0.00  0.00    +0.000 C 
BRANCH  23  26
ATOM     24  C   UNL     1       4.233   4.965  17.368  0.00  0.00    +0.000 C 
ATOM     25  O   UNL     1       3.368   4.099  17.218  0.00  0.00    +0.000 OA
ATOM     26  N   UNL     1       4.149   5.902  18.383  0.00  0.00    +0.000 N 
ATOM     27  H   UNL     1       4.890   6.589  18.456  0.00  0.00    +0.000 HD
BRANCH  24  33
ATOM     28  C   UNL     1       6.876   7.020  17.429  0.00  0.00    +0.000 C 
ATOM     29  C   UNL     1       6.503   5.916  16.518  0.00  0.00    +0.000 A 
ATOM     30  N   UNL     1       7.330   5.589  15.461  0.00  0.00    +0.000 NA
ATOM     31  C   UNL     1       6.710   4.591  14.876  0.00  0.00    +0.000 A 
ATOM     32  O   UNL     1       5.535   4.219  15.450  0.00  0.00    +0.000 OA
ATOM     33  C   UNL     1       5.396   5.081  16.520  0.00  0.00    +0.000 A 
ENDBRANCH  24  33
ENDBRANCH  23  26
ENDBRANCH  18  23
ENDBRANCH   1  21
TORSDOF 6
ENDMDL
MODEL 6
REMARK VINA RESULT:      -8.0      5.421      7.388
REMARK  Name = 
REMARK  7 active torsions:
REMARK  status: ('A' for Active; 'I' for Inactive)
REMARK    1  A    between atoms: C_1  and  C_2
REMARK    2  A    between atoms: C_6  and  C_7
REMARK    3  A    between atoms: N_9  and  C_10
REMARK    4  A    between atoms: C_10  and  C_11
REMARK    5  A    between atoms: C_14  and  O_15
REMARK    6  A    between atoms: O_15  and  C_16
REMARK    7  A    between atoms: C_24  and  C_25
REMARK                            x       y       z     vdW  Elec       q    Type
REMARK                         _______ _______ _______ _____ _____    ______ ____
ROOT
ATOM      1  O   UNL     1       8.158   9.322  17.542  0.00  0.00    +0.000 OA
ENDROOT
BRANCH   1   2
ATOM      2  C   UNL     1       8.936  10.157  18.318  0.00  0.00    +0.000 A 
ATOM      3  C   UNL     1       8.897  10.138  19.715  0.00  0.00    +0.000 A 
ATOM      4  C   UNL     1       9.660  11.040  20.450  0.00  0.00    +0.000 A 
ATOM      5  C   UNL     1      10.470  11.962  19.792  0.00  0.00    +0.000 A 
ATOM      6  C   UNL     1      10.617  11.922  18.402  0.00  0.00    +0.000 A 
ATOM      7  C   UNL     1       9.835  11.013  17.665  0.00  0.00    +0.000 A 
ATOM      8  C   UNL     1      11.535  12.888  17.704  0.00  0.00    +0.000 C 
ATOM      9  C   UNL     1      12.333  13.724  18.705  0.00  0.00    +0.000 C 
ATOM     10  C   UNL     1      11.445  14.116  19.891  0.00  0.00    +0.000 C 
ATOM     11  O   UNL     1      11.058  12.912  20.588  0.00  0.00    +0.000 OA
BRANCH  10  12
ATOM     12  C   UNL     1      10.266  15.049  19.588  0.00  0.00    +0.000 A 
ATOM     13  C   UNL     1       9.072  14.963  20.326  0.00  0.00    +0.000 A 
ATOM     14  C   UNL     1       7.999  15.823  20.070  0.00  0.00    +0.000 A 
ATOM     15  C   UNL     1       8.108  16.805  19.090  0.00  0.00    +0.000 A 
ATOM     16  C   UNL     1       9.286  16.920  18.360  0.00  0.00    +0.000 A 
ATOM     17  C   UNL     1      10.354  16.052  18.606  0.00  0.00    +0.000 A 
ENDBRANCH  10  12
ENDBRANCH   1   2
BRANCH   1  21
ATOM     18  C   UNL     1       7.135   5.746  18.089  0.00  0.00    +0.000 A 
ATOM     19  C   UNL     1       8.068   6.147  19.024  0.00  0.00    +0.000 A 
ATOM     20  N   UNL     1       8.508   7.453  18.921  0.00  0.00    +0.000 NA
ATOM     21  C   UNL     1       7.922   8.051  17.904  0.00  0.00    +0.000 A 
ATOM     22  S   UNL     1       6.785   7.076  17.054  0.00  0.00    +0.000 S 
BRANCH  18  23
ATOM     23  C   UNL     1       6.438   4.431  17.968  0.00  0.00    +0.000 C 
BRANCH  23  26
ATOM     24  C   UNL     1       4.294   3.540  18.795  0.00  0.00    +0.000 C 
ATOM     25  O   UNL     1       4.068   2.990  17.715  0.00  0.00    +0.000 OA
ATOM     26  N   UNL     1       5.446   4.275  19.005  0.00  0.00    +0.000 N 
ATOM     27  H   UNL     1       5.575   4.705  19.914  0.00  0.00    +0.000 HD
BRANCH  24  33
ATOM     28  C   UNL     1       2.183   5.774  20.125  0.00  0.00    +0.000 C 
ATOM     29  C   UNL     1       2.508   4.379  20.494  0.00  0.00    +0.000 A 
ATOM     30  N   UNL     1       1.880   3.791  21.575  0.00  0.00    +0.000 NA
ATOM     31  C   UNL     1       2.391   2.583  21.615  0.00  0.00    +0.000 A 
ATOM     32  O   UNL     1       3.312   2.309  20.653  0.00  0.00    +0.000 OA
ATOM     33  C   UNL     1       3.391   3.476  19.921  0.00  0.00    +0.000 A 
ENDBRANCH  24  33
ENDBRANCH  23  26
ENDBRANCH  18  23
ENDBRANCH   1  21
TORSDOF 6
ENDMDL
MODEL 7
REMARK VINA RESULT:      -7.9      6.236     10.733
REMARK  Name = 
REMARK  7 active torsions:
REMARK  status: ('A' for Active; 'I' for Inactive)
REMARK    1  A    between atoms: C_1  and  C_2
REMARK    2  A    between atoms: C_6  and  C_7
REMARK    3  A    between atoms: N_9  and  C_10
REMARK    4  A    between atoms: C_10  and  C_11
REMARK    5  A    between atoms: C_14  and  O_15
REMARK    6  A    between atoms: O_15  and  C_16
REMARK    7  A    between atoms: C_24  and  C_25
REMARK                            x       y       z     vdW  Elec       q    Type
REMARK                         _______ _______ _______ _____ _____    ______ ____
ROOT
ATOM      1  O   UNL     1      -5.169  11.331  17.519  0.00  0.00    +0.000 OA
ENDROOT
BRANCH   1   2
ATOM      2  C   UNL     1      -3.811  11.103  17.591  0.00  0.00    +0.000 A 
ATOM      3  C   UNL     1      -3.210   9.964  17.047  0.00  0.00    +0.000 A 
ATOM      4  C   UNL     1      -1.842   9.754  17.196  0.00  0.00    +0.000 A 
ATOM      5  C   UNL     1      -1.068  10.683  17.885  0.00  0.00    +0.000 A 
ATOM      6  C   UNL     1      -1.624  11.885  18.335  0.00  0.00    +0.000 A 
ATOM      7  C   UNL     1      -3.009  12.086  18.188  0.00  0.00    +0.000 A 
ATOM      8  C   UNL     1      -0.768  12.907  19.032  0.00  0.00    +0.000 C 
ATOM      9  C   UNL     1       0.708  12.511  19.009  0.00  0.00    +0.000 C 
ATOM     10  C   UNL     1       0.852  11.000  19.232  0.00  0.00    +0.000 C 
ATOM     11  O   UNL     1       0.232  10.316  18.121  0.00  0.00    +0.000 OA
BRANCH  10  12
ATOM     12  C   UNL     1       0.415  10.462  20.599  0.00  0.00    +0.000 A 
ATOM     13  C   UNL     1      -0.158  11.315  21.559  0.00  0.00    +0.000 A 
ATOM     14  C   UNL     1      -0.580  10.829  22.800  0.00  0.00    +0.000 A 
ATOM     15  C   UNL     1      -0.462   9.474  23.098  0.00  0.00    +0.000 A 
ATOM     16  C   UNL     1       0.086   8.609  22.157  0.00  0.00    +0.000 A 
ATOM     17  C   UNL     1       0.519   9.097  20.920  0.00  0.00    +0.000 A 
ENDBRANCH  10  12
ENDBRANCH   1   2
BRANCH   1  21
ATOM     18  C   UNL     1      -7.217  11.590  20.661  0.00  0.00    +0.000 A 
ATOM     19  C   UNL     1      -7.365  10.351  20.068  0.00  0.00    +0.000 A 
ATOM     20  N   UNL     1      -6.646  10.144  18.907  0.00  0.00    +0.000 NA
ATOM     21  C   UNL     1      -5.955  11.223  18.602  0.00  0.00    +0.000 A 
ATOM     22  S   UNL     1      -6.110  12.519  19.726  0.00  0.00    +0.000 S 
BRANCH  18  23
ATOM     23  C   UNL     1      -7.813  12.094  21.933  0.00  0.00    +0.000 C 
BRANCH  23  26
ATOM     24  C   UNL     1      -6.238  13.203  23.471  0.00  0.00    +0.000 C 
ATOM     25  O   UNL     1      -6.022  12.144  24.065  0.00  0.00    +0.000 OA
ATOM     26  N   UNL     1      -7.113  13.266  22.402  0.00  0.00    +0.000 N 
ATOM     27  H   UNL     1      -7.250  14.166  21.955  0.00  0.00    +0.000 HD
BRANCH  24  33
ATOM     28  C   UNL     1      -3.032  14.122  23.779  0.00  0.00    +0.000 C 
ATOM     29  C   UNL     1      -4.297  14.867  23.967  0.00  0.00    +0.000 A 
ATOM     30  N   UNL     1      -4.262  16.196  24.339  0.00  0.00    +0.000 NA
ATOM     31  C   UNL     1      -5.528  16.534  24.412  0.00  0.00    +0.000 A 
ATOM     32  O   UNL     1      -6.412  15.544  24.121  0.00  0.00    +0.000 OA
ATOM     33  C   UNL     1      -5.614  14.455  23.831  0.00  0.00    +0.000 A 
ENDBRANCH  24  33
ENDBRANCH  23  26
ENDBRANCH  18  23
ENDBRANCH   1  21
TORSDOF 6
ENDMDL
MODEL 8
REMARK VINA RESULT:      -7.9      4.970      6.544
REMARK  Name = 
REMARK  7 active torsions:
REMARK  status: ('A' for Active; 'I' for Inactive)
REMARK    1  A    between atoms: C_1  and  C_2
REMARK    2  A    between atoms: C_6  and  C_7
REMARK    3  A    between atoms: N_9  and  C_10
REMARK    4  A    between atoms: C_10  and  C_11
REMARK    5  A    between atoms: C_14  and  O_15
REMARK    6  A    between atoms: O_15  and  C_16
REMARK    7  A    between atoms: C_24  and  C_25
REMARK                            x       y       z     vdW  Elec       q    Type
REMARK                         _______ _______ _______ _____ _____    ______ ____
ROOT
ATOM      1  O   UNL     1      -1.030  11.878  18.446  0.00  0.00    +0.000 OA
ENDROOT
BRANCH   1   2
ATOM      2  C   UNL     1      -2.386  11.699  18.264  0.00  0.00    +0.000 A 
ATOM      3  C   UNL     1      -2.922  11.153  17.095  0.00  0.00    +0.000 A 
ATOM      4  C   UNL     1      -4.301  11.046  16.939  0.00  0.00    +0.000 A 
ATOM      5  C   UNL     1      -5.150  11.480  17.954  0.00  0.00    +0.000 A 
ATOM      6  C   UNL     1      -4.637  11.919  19.178  0.00  0.00    +0.000 A 
ATOM      7  C   UNL     1      -3.241  12.033  19.324  0.00  0.00    +0.000 A 
ATOM      8  C   UNL     1      -5.563  12.336  20.288  0.00  0.00    +0.000 C 
ATOM      9  C   UNL     1      -7.023  12.056  19.933  0.00  0.00    +0.000 C 
ATOM     10  C   UNL     1      -7.279  12.383  18.457  0.00  0.00    +0.000 C 
ATOM     11  O   UNL     1      -6.487  11.485  17.648  0.00  0.00    +0.000 OA
BRANCH  10  12
ATOM     12  C   UNL     1      -7.143  13.853  18.044  0.00  0.00    +0.000 A 
ATOM     13  C   UNL     1      -7.100  14.220  16.688  0.00  0.00    +0.000 A 
ATOM     14  C   UNL     1      -6.996  15.560  16.302  0.00  0.00    +0.000 A 
ATOM     15  C   UNL     1      -6.961  16.564  17.266  0.00  0.00    +0.000 A 
ATOM     16  C   UNL     1      -7.020  16.227  18.613  0.00  0.00    +0.000 A 
ATOM     17  C   UNL     1      -7.111  14.885  18.999  0.00  0.00    +0.000 A 
ENDBRANCH  10  12
ENDBRANCH   1   2
BRANCH   1  21
ATOM     18  C   UNL     1       0.877   9.051  20.026  0.00  0.00    +0.000 A 
ATOM     19  C   UNL     1       1.336   9.312  18.750  0.00  0.00    +0.000 A 
ATOM     20  N   UNL     1       0.708  10.343  18.078  0.00  0.00    +0.000 NA
ATOM     21  C   UNL     1      -0.237  10.867  18.832  0.00  0.00    +0.000 A 
ATOM     22  S   UNL     1      -0.379  10.166  20.398  0.00  0.00    +0.000 S 
BRANCH  18  23
ATOM     23  C   UNL     1       1.378   8.048  21.012  0.00  0.00    +0.000 C 
BRANCH  23  26
ATOM     24  C   UNL     1       2.157   5.813  20.320  0.00  0.00    +0.000 C 
ATOM     25  O   UNL     1       1.128   5.286  20.750  0.00  0.00    +0.000 OA
ATOM     26  N   UNL     1       2.361   7.178  20.411  0.00  0.00    +0.000 N 
ATOM     27  H   UNL     1       3.227   7.554  20.040  0.00  0.00    +0.000 HD
BRANCH  24  33
ATOM     28  C   UNL     1       2.552   2.557  19.647  0.00  0.00    +0.000 C 
ATOM     29  C   UNL     1       3.422   3.729  19.407  0.00  0.00    +0.000 A 
ATOM     30  N   UNL     1       4.650   3.559  18.797  0.00  0.00    +0.000 NA
ATOM     31  C   UNL     1       5.143   4.774  18.742  0.00  0.00    +0.000 A 
ATOM     32  O   UNL     1       4.351   5.748  19.264  0.00  0.00    +0.000 OA
ATOM     33  C   UNL     1       3.229   5.071  19.699  0.00  0.00    +0.000 A 
ENDBRANCH  24  33
ENDBRANCH  23  26
ENDBRANCH  18  23
ENDBRANCH   1  21
TORSDOF 6
ENDMDL
MODEL 9
REMARK VINA RESULT:      -7.9      3.146      4.444
REMARK  Name = 
REMARK  7 active torsions:
REMARK  status: ('A' for Active; 'I' for Inactive)
REMARK    1  A    between atoms: C_1  and  C_2
REMARK    2  A    between atoms: C_6  and  C_7
REMARK    3  A    between atoms: N_9  and  C_10
REMARK    4  A    between atoms: C_10  and  C_11
REMARK    5  A    between atoms: C_14  and  O_15
REMARK    6  A    between atoms: O_15  and  C_16
REMARK    7  A    between atoms: C_24  and  C_25
REMARK                            x       y       z     vdW  Elec       q    Type
REMARK                         _______ _______ _______ _____ _____    ______ ____
ROOT
ATOM      1  O   UNL     1       1.424   7.977  21.781  0.00  0.00    +0.000 OA
ENDROOT
BRANCH   1   2
ATOM      2  C   UNL     1       0.705   9.153  21.721  0.00  0.00    +0.000 A 
ATOM      3  C   UNL     1      -0.302   9.466  22.638  0.00  0.00    +0.000 A 
ATOM      4  C   UNL     1      -1.036  10.640  22.500  0.00  0.00    +0.000 A 
ATOM      5  C   UNL     1      -0.763  11.511  21.448  0.00  0.00    +0.000 A 
ATOM      6  C   UNL     1       0.316  11.278  20.589  0.00  0.00    +0.000 A 
ATOM      7  C   UNL     1       1.048  10.084  20.730  0.00  0.00    +0.000 A 
ATOM      8  C   UNL     1       0.637  12.251  19.488  0.00  0.00    +0.000 C 
ATOM      9  C   UNL     1      -0.236  13.503  19.575  0.00  0.00    +0.000 C 
ATOM     10  C   UNL     1      -1.668  13.122  19.970  0.00  0.00    +0.000 C 
ATOM     11  O   UNL     1      -1.638  12.556  21.298  0.00  0.00    +0.000 OA
BRANCH  10  12
ATOM     12  C   UNL     1      -2.455  12.272  18.965  0.00  0.00    +0.000 A 
ATOM     13  C   UNL     1      -3.815  11.985  19.174  0.00  0.00    +0.000 A 
ATOM     14  C   UNL     1      -4.546  11.229  18.253  0.00  0.00    +0.000 A 
ATOM     15  C   UNL     1      -3.938  10.767  17.088  0.00  0.00    +0.000 A 
ATOM     16  C   UNL     1      -2.599  11.055  16.851  0.00  0.00    +0.000 A 
ATOM     17  C   UNL     1      -1.864  11.800  17.779  0.00  0.00    +0.000 A 
ENDBRANCH  10  12
ENDBRANCH   1   2
BRANCH   1  21
ATOM     18  C   UNL     1       2.273   5.620  18.978  0.00  0.00    +0.000 A 
ATOM     19  C   UNL     1       2.380   6.936  18.574  0.00  0.00    +0.000 A 
ATOM     20  N   UNL     1       2.098   7.890  19.533  0.00  0.00    +0.000 NA
ATOM     21  C   UNL     1       1.766   7.309  20.668  0.00  0.00    +0.000 A 
ATOM     22  S   UNL     1       1.821   5.588  20.639  0.00  0.00    +0.000 S 
BRANCH  18  23
ATOM     23  C   UNL     1       2.557   4.377  18.201  0.00  0.00    +0.000 C 
BRANCH  23  26
ATOM     24  C   UNL     1       4.939   4.361  17.563  0.00  0.00    +0.000 C 
ATOM     25  O   UNL     1       5.268   3.953  18.679  0.00  0.00    +0.000 OA
ATOM     26  N   UNL     1       3.614   4.598  17.242  0.00  0.00    +0.000 N 
ATOM     27  H   UNL     1       3.405   4.935  16.309  0.00  0.00    +0.000 HD
BRANCH  24  33
ATOM     28  C   UNL     1       7.377   6.634  17.244  0.00  0.00    +0.000 C 
ATOM     29  C   UNL     1       6.902   5.561  16.344  0.00  0.00    +0.000 A 
ATOM     30  N   UNL     1       7.509   5.375  15.117  0.00  0.00    +0.000 NA
ATOM     31  C   UNL     1       6.856   4.365  14.594  0.00  0.00    +0.000 A 
ATOM     32  O   UNL     1       5.858   3.855  15.365  0.00  0.00    +0.000 OA
ATOM     33  C   UNL     1       5.885   4.632  16.506  0.00  0.00    +0.000 A 
ENDBRANCH  24  33
ENDBRANCH  23  26
ENDBRANCH  18  23
ENDBRANCH   1  21
TORSDOF 6
ENDMDL
