MODEL 1
REMARK VINA RESULT:      -6.8      0.000      0.000
REMARK  Name = 
REMARK  4 active torsions:
REMARK  status: ('A' for Active; 'I' for Inactive)
REMARK    1  A    between atoms: C_1  and  S_2
REMARK    2  A    between atoms: S_2  and  C_5
REMARK    3  A    between atoms: C_5  and  C_6
REMARK    4  A    between atoms: C_9  and  N_10
REMARK                            x       y       z     vdW  Elec       q    Type
REMARK                         _______ _______ _______ _____ _____    ______ ____
ROOT
ATOM      1  C   UNL     1       4.476   4.599  17.390  0.00  0.00    +0.000 A 
ATOM      2  C   UNL     1       5.151   5.511  18.207  0.00  0.00    +0.000 A 
ATOM      3  C   UNL     1       4.439   6.327  19.089  0.00  0.00    +0.000 A 
ATOM      4  C   UNL     1       3.048   6.257  19.180  0.00  0.00    +0.000 A 
ATOM      5  C   UNL     1       2.373   5.316  18.397  0.00  0.00    +0.000 A 
ATOM      6  C   UNL     1       3.089   4.510  17.510  0.00  0.00    +0.000 A 
ATOM      7  F   UNL     1       2.413   3.649  16.734  0.00  0.00    +0.000 F 
ENDROOT
BRANCH   4   8
ATOM      8  N   UNL     1       2.286   7.091  20.031  0.00  0.00    +0.000 N 
ATOM      9  C   UNL     1       1.722   8.301  19.689  0.00  0.00    +0.000 C 
ATOM     10  O   UNL     1       1.753   8.795  18.564  0.00  0.00    +0.000 OA
ATOM     11  N   UNL     1       1.083   8.965  20.712  0.00  0.00    +0.000 N 
ATOM     12  C   UNL     1       0.908   8.589  22.101  0.00  0.00    +0.000 C 
ATOM     13  C   UNL     1      -0.307   9.395  22.527  0.00  0.00    +0.000 C 
ATOM     14  C   UNL     1      -0.167  10.698  21.749  0.00  0.00    +0.000 C 
ATOM     15  C   UNL     1       0.588  10.311  20.483  0.00  0.00    +0.000 C 
ATOM     16  H   UNL     1       2.039   6.709  20.928  0.00  0.00    +0.000 HD
ENDBRANCH   4   8
BRANCH   1  17
ATOM     17  C   UNL     1       5.224   3.738  16.417  0.00  0.00    +0.000 C 
BRANCH  17  19
ATOM     18  C   UNL     1       6.188   3.854  13.824  0.00  0.00    +0.000 C 
ATOM     19  S   UNL     1       6.215   4.773  15.344  0.00  0.00    +0.000 S 
ATOM     20  O   UNL     1       7.586   4.782  15.811  0.00  0.00    +0.000 OA
ATOM     21  O   UNL     1       5.498   6.012  15.096  0.00  0.00    +0.000 OA
ENDBRANCH  17  19
ENDBRANCH   1  17
TORSDOF 3
ENDMDL
MODEL 2
REMARK VINA RESULT:      -6.5      1.443      1.793
REMARK  Name = 
REMARK  4 active torsions:
REMARK  status: ('A' for Active; 'I' for Inactive)
REMARK    1  A    between atoms: C_1  and  S_2
REMARK    2  A    between atoms: S_2  and  C_5
REMARK    3  A    between atoms: C_5  and  C_6
REMARK    4  A    between atoms: C_9  and  N_10
REMARK                            x       y       z     vdW  Elec       q    Type
REMARK                         _______ _______ _______ _____ _____    ______ ____
ROOT
ATOM      1  C   UNL     1       4.285   5.642  17.455  0.00  0.00    +0.000 A 
ATOM      2  C   UNL     1       3.879   6.947  17.160  0.00  0.00    +0.000 A 
ATOM      3  C   UNL     1       3.139   7.681  18.091  0.00  0.00    +0.000 A 
ATOM      4  C   UNL     1       2.789   7.139  19.329  0.00  0.00    +0.000 A 
ATOM      5  C   UNL     1       3.230   5.851  19.645  0.00  0.00    +0.000 A 
ATOM      6  C   UNL     1       3.961   5.119  18.706  0.00  0.00    +0.000 A 
ATOM      7  F   UNL     1       4.331   3.867  19.014  0.00  0.00    +0.000 F 
ENDROOT
BRANCH   4   8
ATOM      8  N   UNL     1       2.009   7.833  20.283  0.00  0.00    +0.000 N 
ATOM      9  C   UNL     1       1.167   8.893  20.027  0.00  0.00    +0.000 C 
ATOM     10  O   UNL     1       0.928   9.344  18.909  0.00  0.00    +0.000 OA
ATOM     11  N   UNL     1       0.565   9.451  21.133  0.00  0.00    +0.000 N 
ATOM     12  C   UNL     1       0.679   9.095  22.534  0.00  0.00    +0.000 C 
ATOM     13  C   UNL     1      -0.597   9.657  23.137  0.00  0.00    +0.000 C 
ATOM     14  C   UNL     1      -0.842  10.934  22.343  0.00  0.00    +0.000 C 
ATOM     15  C   UNL     1      -0.220  10.663  20.978  0.00  0.00    +0.000 C 
ATOM     16  H   UNL     1       1.980   7.441  21.209  0.00  0.00    +0.000 HD
ENDBRANCH   4   8
BRANCH   1  17
ATOM     17  C   UNL     1       5.053   4.832  16.454  0.00  0.00    +0.000 C 
BRANCH  17  19
ATOM     18  C   UNL     1       7.399   4.687  17.917  0.00  0.00    +0.000 C 
ATOM     19  S   UNL     1       6.755   5.388  16.418  0.00  0.00    +0.000 S 
ATOM     20  O   UNL     1       6.798   6.828  16.569  0.00  0.00    +0.000 OA
ATOM     21  O   UNL     1       7.440   4.727  15.320  0.00  0.00    +0.000 OA
ENDBRANCH  17  19
ENDBRANCH   1  17
TORSDOF 3
ENDMDL
MODEL 3
REMARK VINA RESULT:      -6.4      3.932      8.102
REMARK  Name = 
REMARK  4 active torsions:
REMARK  status: ('A' for Active; 'I' for Inactive)
REMARK    1  A    between atoms: C_1  and  S_2
REMARK    2  A    between atoms: S_2  and  C_5
REMARK    3  A    between atoms: C_5  and  C_6
REMARK    4  A    between atoms: C_9  and  N_10
REMARK                            x       y       z     vdW  Elec       q    Type
REMARK                         _______ _______ _______ _____ _____    ______ ____
ROOT
ATOM      1  C   UNL     1       0.070   9.815  20.005  0.00  0.00    +0.000 A 
ATOM      2  C   UNL     1       0.835   8.879  20.706  0.00  0.00    +0.000 A 
ATOM      3  C   UNL     1       1.822   8.142  20.047  0.00  0.00    +0.000 A 
ATOM      4  C   UNL     1       2.071   8.316  18.685  0.00  0.00    +0.000 A 
ATOM      5  C   UNL     1       1.338   9.283  17.990  0.00  0.00    +0.000 A 
ATOM      6  C   UNL     1       0.347  10.010  18.652  0.00  0.00    +0.000 A 
ATOM      7  F   UNL     1      -0.376  10.897  17.951  0.00  0.00    +0.000 F 
ENDROOT
BRANCH   4   8
ATOM      8  N   UNL     1       3.033   7.563  17.972  0.00  0.00    +0.000 N 
ATOM      9  C   UNL     1       3.061   6.192  17.850  0.00  0.00    +0.000 C 
ATOM     10  O   UNL     1       2.207   5.430  18.296  0.00  0.00    +0.000 OA
ATOM     11  N   UNL     1       4.141   5.682  17.162  0.00  0.00    +0.000 N 
ATOM     12  C   UNL     1       5.258   6.367  16.542  0.00  0.00    +0.000 C 
ATOM     13  C   UNL     1       5.748   5.365  15.511  0.00  0.00    +0.000 C 
ATOM     14  C   UNL     1       5.518   4.015  16.179  0.00  0.00    +0.000 C 
ATOM     15  C   UNL     1       4.333   4.243  17.110  0.00  0.00    +0.000 C 
ATOM     16  H   UNL     1       3.684   8.086  17.411  0.00  0.00    +0.000 HD
ENDBRANCH   4   8
BRANCH   1  17
ATOM     17  C   UNL     1      -1.013  10.593  20.692  0.00  0.00    +0.000 C 
BRANCH  17  19
ATOM     18  C   UNL     1      -1.480  12.876  22.186  0.00  0.00    +0.000 C 
ATOM     19  S   UNL     1      -0.301  11.558  22.021  0.00  0.00    +0.000 S 
ATOM     20  O   UNL     1       0.943  12.152  21.577  0.00  0.00    +0.000 OA
ATOM     21  O   UNL     1      -0.367  10.783  23.249  0.00  0.00    +0.000 OA
ENDBRANCH  17  19
ENDBRANCH   1  17
TORSDOF 3
ENDMDL
MODEL 4
REMARK VINA RESULT:      -6.4      1.335      1.707
REMARK  Name = 
REMARK  4 active torsions:
REMARK  status: ('A' for Active; 'I' for Inactive)
REMARK    1  A    between atoms: C_1  and  S_2
REMARK    2  A    between atoms: S_2  and  C_5
REMARK    3  A    between atoms: C_5  and  C_6
REMARK    4  A    between atoms: C_9  and  N_10
REMARK                            x       y       z     vdW  Elec       q    Type
REMARK                         _______ _______ _______ _____ _____    ______ ____
ROOT
ATOM      1  C   UNL     1       5.087   4.706  16.961  0.00  0.00    +0.000 A 
ATOM      2  C   UNL     1       3.728   4.381  17.025  0.00  0.00    +0.000 A 
ATOM      3  C   UNL     1       2.868   5.113  17.847  0.00  0.00    +0.000 A 
ATOM      4  C   UNL     1       3.334   6.177  18.621  0.00  0.00    +0.000 A 
ATOM      5  C   UNL     1       4.682   6.533  18.526  0.00  0.00    +0.000 A 
ATOM      6  C   UNL     1       5.539   5.792  17.710  0.00  0.00    +0.000 A 
ATOM      7  F   UNL     1       6.839   6.123  17.674  0.00  0.00    +0.000 F 
ENDROOT
BRANCH   4   8
ATOM      8  N   UNL     1       2.504   6.918  19.496  0.00  0.00    +0.000 N 
ATOM      9  C   UNL     1       1.937   8.144  19.230  0.00  0.00    +0.000 C 
ATOM     10  O   UNL     1       2.025   8.741  18.159  0.00  0.00    +0.000 OA
ATOM     11  N   UNL     1       1.223   8.702  20.268  0.00  0.00    +0.000 N 
ATOM     12  C   UNL     1       0.972   8.197  21.604  0.00  0.00    +0.000 C 
ATOM     13  C   UNL     1      -0.283   8.942  22.024  0.00  0.00    +0.000 C 
ATOM     14  C   UNL     1      -0.124  10.313  21.378  0.00  0.00    +0.000 C 
ATOM     15  C   UNL     1       0.715  10.056  20.132  0.00  0.00    +0.000 C 
ATOM     16  H   UNL     1       2.211   6.451  20.337  0.00  0.00    +0.000 HD
ENDBRANCH   4   8
BRANCH   1  17
ATOM     17  C   UNL     1       6.027   3.912  16.105  0.00  0.00    +0.000 C 
BRANCH  17  19
ATOM     18  C   UNL     1       6.201   3.691  13.351  0.00  0.00    +0.000 C 
ATOM     19  S   UNL     1       6.465   4.867  14.656  0.00  0.00    +0.000 S 
ATOM     20  O   UNL     1       7.883   5.163  14.680  0.00  0.00    +0.000 OA
ATOM     21  O   UNL     1       5.481   5.921  14.475  0.00  0.00    +0.000 OA
ENDBRANCH  17  19
ENDBRANCH   1  17
TORSDOF 3
ENDMDL
MODEL 5
REMARK VINA RESULT:      -6.4      1.721      2.076
REMARK  Name = 
REMARK  4 active torsions:
REMARK  status: ('A' for Active; 'I' for Inactive)
REMARK    1  A    between atoms: C_1  and  S_2
REMARK    2  A    between atoms: S_2  and  C_5
REMARK    3  A    between atoms: C_5  and  C_6
REMARK    4  A    between atoms: C_9  and  N_10
REMARK                            x       y       z     vdW  Elec       q    Type
REMARK                         _______ _______ _______ _____ _____    ______ ____
ROOT
ATOM      1  C   UNL     1       4.321   5.498  17.761  0.00  0.00    +0.000 A 
ATOM      2  C   UNL     1       3.958   4.953  18.996  0.00  0.00    +0.000 A 
ATOM      3  C   UNL     1       3.165   5.688  19.882  0.00  0.00    +0.000 A 
ATOM      4  C   UNL     1       2.719   6.971  19.564  0.00  0.00    +0.000 A 
ATOM      5  C   UNL     1       3.044   7.501  18.312  0.00  0.00    +0.000 A 
ATOM      6  C   UNL     1       3.843   6.767  17.435  0.00  0.00    +0.000 A 
ATOM      7  F   UNL     1       4.182   7.318  16.259  0.00  0.00    +0.000 F 
ENDROOT
BRANCH   4   8
ATOM      8  N   UNL     1       1.949   7.763  20.448  0.00  0.00    +0.000 N 
ATOM      9  C   UNL     1       1.227   8.886  20.111  0.00  0.00    +0.000 C 
ATOM     10  O   UNL     1       1.102   9.322  18.969  0.00  0.00    +0.000 OA
ATOM     11  N   UNL     1       0.611   9.530  21.162  0.00  0.00    +0.000 N 
ATOM     12  C   UNL     1       0.603   9.210  22.575  0.00  0.00    +0.000 C 
ATOM     13  C   UNL     1      -0.650   9.903  23.079  0.00  0.00    +0.000 C 
ATOM     14  C   UNL     1      -0.726  11.172  22.239  0.00  0.00    +0.000 C 
ATOM     15  C   UNL     1      -0.047  10.803  20.924  0.00  0.00    +0.000 C 
ATOM     16  H   UNL     1       1.826   7.403  21.380  0.00  0.00    +0.000 HD
ENDBRANCH   4   8
BRANCH   1  17
ATOM     17  C   UNL     1       5.195   4.733  16.812  0.00  0.00    +0.000 C 
BRANCH  17  19
ATOM     18  C   UNL     1       7.142   6.603  17.429  0.00  0.00    +0.000 C 
ATOM     19  S   UNL     1       6.899   4.845  17.349  0.00  0.00    +0.000 S 
ATOM     20  O   UNL     1       7.770   4.342  16.306  0.00  0.00    +0.000 OA
ATOM     21  O   UNL     1       6.994   4.348  18.711  0.00  0.00    +0.000 OA
ENDBRANCH  17  19
ENDBRANCH   1  17
TORSDOF 3
ENDMDL
MODEL 6
REMARK VINA RESULT:      -6.4      0.880      1.026
REMARK  Name = 
REMARK  4 active torsions:
REMARK  status: ('A' for Active; 'I' for Inactive)
REMARK    1  A    between atoms: C_1  and  S_2
REMARK    2  A    between atoms: S_2  and  C_5
REMARK    3  A    between atoms: C_5  and  C_6
REMARK    4  A    between atoms: C_9  and  N_10
REMARK                            x       y       z     vdW  Elec       q    Type
REMARK                         _______ _______ _______ _____ _____    ______ ____
ROOT
ATOM      1  C   UNL     1       4.517   4.280  17.576  0.00  0.00    +0.000 A 
ATOM      2  C   UNL     1       5.196   5.094  18.487  0.00  0.00    +0.000 A 
ATOM      3  C   UNL     1       4.487   5.968  19.315  0.00  0.00    +0.000 A 
ATOM      4  C   UNL     1       3.095   6.053  19.257  0.00  0.00    +0.000 A 
ATOM      5  C   UNL     1       2.409   5.209  18.379  0.00  0.00    +0.000 A 
ATOM      6  C   UNL     1       3.124   4.345  17.548  0.00  0.00    +0.000 A 
ATOM      7  F   UNL     1       2.445   3.581  16.678  0.00  0.00    +0.000 F 
ENDROOT
BRANCH   4   8
ATOM      8  N   UNL     1       2.342   6.952  20.050  0.00  0.00    +0.000 N 
ATOM      9  C   UNL     1       1.817   8.155  19.634  0.00  0.00    +0.000 C 
ATOM     10  O   UNL     1       1.878   8.587  18.485  0.00  0.00    +0.000 OA
ATOM     11  N   UNL     1       1.178   8.889  20.609  0.00  0.00    +0.000 N 
ATOM     12  C   UNL     1       0.971   8.593  22.013  0.00  0.00    +0.000 C 
ATOM     13  C   UNL     1      -0.228   9.452  22.373  0.00  0.00    +0.000 C 
ATOM     14  C   UNL     1      -0.041  10.708  21.529  0.00  0.00    +0.000 C 
ATOM     15  C   UNL     1       0.724  10.234  20.299  0.00  0.00    +0.000 C 
ATOM     16  H   UNL     1       2.070   6.625  20.961  0.00  0.00    +0.000 HD
ENDBRANCH   4   8
BRANCH   1  17
ATOM     17  C   UNL     1       5.266   3.359  16.661  0.00  0.00    +0.000 C 
BRANCH  17  19
ATOM     18  C   UNL     1       5.375   5.829  15.416  0.00  0.00    +0.000 C 
ATOM     19  S   UNL     1       6.303   4.321  15.563  0.00  0.00    +0.000 S 
ATOM     20  O   UNL     1       6.325   3.705  14.253  0.00  0.00    +0.000 OA
ATOM     21  O   UNL     1       7.535   4.655  16.257  0.00  0.00    +0.000 OA
ENDBRANCH  17  19
ENDBRANCH   1  17
TORSDOF 3
ENDMDL
MODEL 7
REMARK VINA RESULT:      -6.4      3.860      7.967
REMARK  Name = 
REMARK  4 active torsions:
REMARK  status: ('A' for Active; 'I' for Inactive)
REMARK    1  A    between atoms: C_1  and  S_2
REMARK    2  A    between atoms: S_2  and  C_5
REMARK    3  A    between atoms: C_5  and  C_6
REMARK    4  A    between atoms: C_9  and  N_10
REMARK                            x       y       z     vdW  Elec       q    Type
REMARK                         _______ _______ _______ _____ _____    ______ ____
ROOT
ATOM      1  C   UNL     1       0.283   9.833  20.046  0.00  0.00    +0.000 A 
ATOM      2  C   UNL     1       0.453  10.044  18.674  0.00  0.00    +0.000 A 
ATOM      3  C   UNL     1       1.369   9.274  17.953  0.00  0.00    +0.000 A 
ATOM      4  C   UNL     1       2.131   8.283  18.572  0.00  0.00    +0.000 A 
ATOM      5  C   UNL     1       1.932   8.039  19.934  0.00  0.00    +0.000 A 
ATOM      6  C   UNL     1       1.022   8.818  20.652  0.00  0.00    +0.000 A 
ATOM      7  F   UNL     1       0.885   8.598  21.969  0.00  0.00    +0.000 F 
ENDROOT
BRANCH   4   8
ATOM      8  N   UNL     1       3.096   7.508  17.887  0.00  0.00    +0.000 N 
ATOM      9  C   UNL     1       3.079   6.139  17.738  0.00  0.00    +0.000 C 
ATOM     10  O   UNL     1       2.179   5.401  18.132  0.00  0.00    +0.000 OA
ATOM     11  N   UNL     1       4.168   5.603  17.087  0.00  0.00    +0.000 N 
ATOM     12  C   UNL     1       5.336   6.256  16.530  0.00  0.00    +0.000 C 
ATOM     13  C   UNL     1       5.834   5.256  15.501  0.00  0.00    +0.000 C 
ATOM     14  C   UNL     1       5.526   3.904  16.131  0.00  0.00    +0.000 C 
ATOM     15  C   UNL     1       4.310   4.159  17.014  0.00  0.00    +0.000 C 
ATOM     16  H   UNL     1       3.789   8.016  17.364  0.00  0.00    +0.000 HD
ENDBRANCH   4   8
BRANCH   1  17
ATOM     17  C   UNL     1      -0.675  10.671  20.839  0.00  0.00    +0.000 C 
BRANCH  17  19
ATOM     18  C   UNL     1      -0.528  13.335  20.097  0.00  0.00    +0.000 C 
ATOM     19  S   UNL     1       0.121  12.206  21.305  0.00  0.00    +0.000 S 
ATOM     20  O   UNL     1       1.546  12.104  21.070  0.00  0.00    +0.000 OA
ATOM     21  O   UNL     1      -0.398  12.629  22.595  0.00  0.00    +0.000 OA
ENDBRANCH  17  19
ENDBRANCH   1  17
TORSDOF 3
ENDMDL
MODEL 8
REMARK VINA RESULT:      -6.4      4.450      8.091
REMARK  Name = 
REMARK  4 active torsions:
REMARK  status: ('A' for Active; 'I' for Inactive)
REMARK    1  A    between atoms: C_1  and  S_2
REMARK    2  A    between atoms: S_2  and  C_5
REMARK    3  A    between atoms: C_5  and  C_6
REMARK    4  A    between atoms: C_9  and  N_10
REMARK                            x       y       z     vdW  Elec       q    Type
REMARK                         _______ _______ _______ _____ _____    ______ ____
ROOT
ATOM      1  C   UNL     1      -0.069  10.241  20.544  0.00  0.00    +0.000 A 
ATOM      2  C   UNL     1       0.242   9.388  21.607  0.00  0.00    +0.000 A 
ATOM      3  C   UNL     1       1.108   8.309  21.413  0.00  0.00    +0.000 A 
ATOM      4  C   UNL     1       1.681   8.053  20.167  0.00  0.00    +0.000 A 
ATOM      5  C   UNL     1       1.408   8.929  19.112  0.00  0.00    +0.000 A 
ATOM      6  C   UNL     1       0.534  10.000  19.310  0.00  0.00    +0.000 A 
ATOM      7  F   UNL     1       0.249  10.798  18.269  0.00  0.00    +0.000 F 
ENDROOT
BRANCH   4   8
ATOM      8  N   UNL     1       2.531   6.950  19.918  0.00  0.00    +0.000 N 
ATOM      9  C   UNL     1       2.236   5.627  20.164  0.00  0.00    +0.000 C 
ATOM     10  O   UNL     1       1.155   5.215  20.579  0.00  0.00    +0.000 OA
ATOM     11  N   UNL     1       3.254   4.736  19.903  0.00  0.00    +0.000 N 
ATOM     12  C   UNL     1       4.595   4.973  19.408  0.00  0.00    +0.000 C 
ATOM     13  C   UNL     1       4.986   3.631  18.815  0.00  0.00    +0.000 C 
ATOM     14  C   UNL     1       4.316   2.618  19.736  0.00  0.00    +0.000 C 
ATOM     15  C   UNL     1       3.086   3.341  20.271  0.00  0.00    +0.000 C 
ATOM     16  H   UNL     1       3.378   7.142  19.410  0.00  0.00    +0.000 HD
ENDBRANCH   4   8
BRANCH   1  17
ATOM     17  C   UNL     1      -1.019  11.386  20.730  0.00  0.00    +0.000 C 
BRANCH  17  19
ATOM     18  C   UNL     1      -1.111  14.098  21.280  0.00  0.00    +0.000 C 
ATOM     19  S   UNL     1      -0.266  12.619  21.787  0.00  0.00    +0.000 S 
ATOM     20  O   UNL     1       1.127  12.781  21.427  0.00  0.00    +0.000 OA
ATOM     21  O   UNL     1      -0.662  12.362  23.161  0.00  0.00    +0.000 OA
ENDBRANCH  17  19
ENDBRANCH   1  17
TORSDOF 3
ENDMDL
MODEL 9
REMARK VINA RESULT:      -6.3      1.547      1.728
REMARK  Name = 
REMARK  4 active torsions:
REMARK  status: ('A' for Active; 'I' for Inactive)
REMARK    1  A    between atoms: C_1  and  S_2
REMARK    2  A    between atoms: S_2  and  C_5
REMARK    3  A    between atoms: C_5  and  C_6
REMARK    4  A    between atoms: C_9  and  N_10
REMARK                            x       y       z     vdW  Elec       q    Type
REMARK                         _______ _______ _______ _____ _____    ______ ____
ROOT
ATOM      1  C   UNL     1       3.869   5.553  17.809  0.00  0.00    +0.000 A 
ATOM      2  C   UNL     1       3.392   6.800  17.393  0.00  0.00    +0.000 A 
ATOM      3  C   UNL     1       2.681   7.612  18.281  0.00  0.00    +0.000 A 
ATOM      4  C   UNL     1       2.428   7.206  19.592  0.00  0.00    +0.000 A 
ATOM      5  C   UNL     1       2.941   5.980  20.024  0.00  0.00    +0.000 A 
ATOM      6  C   UNL     1       3.643   5.169  19.130  0.00  0.00    +0.000 A 
ATOM      7  F   UNL     1       4.083   3.975  19.555  0.00  0.00    +0.000 F 
ENDROOT
BRANCH   4   8
ATOM      8  N   UNL     1       1.679   7.980  20.509  0.00  0.00    +0.000 N 
ATOM      9  C   UNL     1       1.058   9.180  20.241  0.00  0.00    +0.000 C 
ATOM     10  O   UNL     1       1.017   9.716  19.136  0.00  0.00    +0.000 OA
ATOM     11  N   UNL     1       0.445   9.782  21.317  0.00  0.00    +0.000 N 
ATOM     12  C   UNL     1       0.350   9.349  22.698  0.00  0.00    +0.000 C 
ATOM     13  C   UNL     1      -0.870  10.094  23.210  0.00  0.00    +0.000 C 
ATOM     14  C   UNL     1      -0.814  11.429  22.477  0.00  0.00    +0.000 C 
ATOM     15  C   UNL     1      -0.107  11.117  21.164  0.00  0.00    +0.000 C 
ATOM     16  H   UNL     1       1.488   7.556  21.402  0.00  0.00    +0.000 HD
ENDBRANCH   4   8
BRANCH   1  17
ATOM     17  C   UNL     1       4.609   4.658  16.859  0.00  0.00    +0.000 C 
BRANCH  17  19
ATOM     18  C   UNL     1       6.973   4.136  15.517  0.00  0.00    +0.000 C 
ATOM     19  S   UNL     1       6.355   5.052  16.907  0.00  0.00    +0.000 S 
ATOM     20  O   UNL     1       6.950   4.476  18.095  0.00  0.00    +0.000 OA
ATOM     21  O   UNL     1       6.525   6.460  16.588  0.00  0.00    +0.000 OA
ENDBRANCH  17  19
ENDBRANCH   1  17
TORSDOF 3
ENDMDL
