MODEL 1
REMARK VINA RESULT:      -7.5      0.000      0.000
REMARK  Name = 
REMARK  5 active torsions:
REMARK  status: ('A' for Active; 'I' for Inactive)
REMARK    1  A    between atoms: C_1  and  C_2
REMARK    2  A    between atoms: C_4  and  S_5
REMARK    3  A    between atoms: S_5  and  C_6
REMARK    4  A    between atoms: C_6  and  C_7
REMARK    5  A    between atoms: C_19  and  C_20
REMARK                            x       y       z     vdW  Elec       q    Type
REMARK                         _______ _______ _______ _____ _____    ______ ____
ROOT
ATOM      1  C   UNL     1       7.807   6.903  17.740  0.00  0.00    +0.000 C 
ATOM      2  C   UNL     1       7.089   5.907  16.880  0.00  0.00    +0.000 A 
ATOM      3  C   UNL     1       6.103   5.077  17.389  0.00  0.00    +0.000 A 
ATOM      4  C   UNL     1       5.464   4.185  16.528  0.00  0.00    +0.000 A 
ATOM      5  C   UNL     1       5.853   4.143  15.149  0.00  0.00    +0.000 A 
ATOM      6  C   UNL     1       5.276   3.260  14.198  0.00  0.00    +0.000 A 
ATOM      7  C   UNL     1       5.663   3.246  12.863  0.00  0.00    +0.000 A 
ATOM      8  C   UNL     1       6.647   4.118  12.440  0.00  0.00    +0.000 A 
ATOM      9  C   UNL     1       7.249   5.002  13.351  0.00  0.00    +0.000 A 
ATOM     10  C   UNL     1       6.870   5.030  14.710  0.00  0.00    +0.000 A 
ATOM     11  N   UNL     1       7.457   5.885  15.582  0.00  0.00    +0.000 NA
ENDROOT
BRANCH   9  12
ATOM     12  C   UNL     1       8.304   5.896  12.769  0.00  0.00    +0.000 C 
ATOM     13  N   UNL     1       9.481   6.039  13.440  0.00  0.00    +0.000 N 
ATOM     14  O   UNL     1       8.129   6.497  11.712  0.00  0.00    +0.000 OA
ATOM     15  H   UNL     1       9.631   5.553  14.321  0.00  0.00    +0.000 HD
ATOM     16  H   UNL     1      10.194   6.646  13.065  0.00  0.00    +0.000 HD
ENDBRANCH   9  12
BRANCH   4  17
ATOM     17  S   UNL     1       4.151   3.068  17.112  0.00  0.00    +0.000 S 
BRANCH  17  18
ATOM     18  C   UNL     1       2.587   4.012  17.008  0.00  0.00    +0.000 C 
BRANCH  18  19
ATOM     19  C   UNL     1       2.201   4.584  18.361  0.00  0.00    +0.000 A 
ATOM     20  C   UNL     1       2.532   5.904  18.729  0.00  0.00    +0.000 A 
ATOM     21 CL   UNL     1       3.384   6.969  17.663  0.00  0.00    +0.000 Cl
ATOM     22  C   UNL     1       2.181   6.424  19.984  0.00  0.00    +0.000 A 
ATOM     23  C   UNL     1       1.495   5.639  20.904  0.00  0.00    +0.000 A 
ATOM     24  C   UNL     1       1.165   4.330  20.570  0.00  0.00    +0.000 A 
ATOM     25  C   UNL     1       1.517   3.805  19.319  0.00  0.00    +0.000 A 
ATOM     26 CL   UNL     1       1.067   2.162  19.015  0.00  0.00    +0.000 Cl
ENDBRANCH  18  19
ENDBRANCH  17  18
ENDBRANCH   4  17
TORSDOF 4
ENDMDL
MODEL 2
REMARK VINA RESULT:      -7.5      0.046      1.868
REMARK  Name = 
REMARK  5 active torsions:
REMARK  status: ('A' for Active; 'I' for Inactive)
REMARK    1  A    between atoms: C_1  and  C_2
REMARK    2  A    between atoms: C_4  and  S_5
REMARK    3  A    between atoms: S_5  and  C_6
REMARK    4  A    between atoms: C_6  and  C_7
REMARK    5  A    between atoms: C_19  and  C_20
REMARK                            x       y       z     vdW  Elec       q    Type
REMARK                         _______ _______ _______ _____ _____    ______ ____
ROOT
ATOM      1  C   UNL     1       7.831   6.827  17.760  0.00  0.00    +0.000 C 
ATOM      2  C   UNL     1       7.104   5.854  16.881  0.00  0.00    +0.000 A 
ATOM      3  C   UNL     1       6.109   5.026  17.373  0.00  0.00    +0.000 A 
ATOM      4  C   UNL     1       5.462   4.155  16.496  0.00  0.00    +0.000 A 
ATOM      5  C   UNL     1       5.855   4.134  15.118  0.00  0.00    +0.000 A 
ATOM      6  C   UNL     1       5.270   3.273  14.150  0.00  0.00    +0.000 A 
ATOM      7  C   UNL     1       5.661   3.277  12.816  0.00  0.00    +0.000 A 
ATOM      8  C   UNL     1       6.655   4.147  12.410  0.00  0.00    +0.000 A 
ATOM      9  C   UNL     1       7.263   5.009  13.337  0.00  0.00    +0.000 A 
ATOM     10  C   UNL     1       6.881   5.017  14.696  0.00  0.00    +0.000 A 
ATOM     11  N   UNL     1       7.476   5.851  15.584  0.00  0.00    +0.000 NA
ENDROOT
BRANCH   9  12
ATOM     12  C   UNL     1       8.328   5.902  12.773  0.00  0.00    +0.000 C 
ATOM     13  N   UNL     1       9.495   6.041  13.462  0.00  0.00    +0.000 N 
ATOM     14  O   UNL     1       8.171   6.504  11.715  0.00  0.00    +0.000 OA
ATOM     15  H   UNL     1       9.631   5.554  14.345  0.00  0.00    +0.000 HD
ATOM     16  H   UNL     1      10.216   6.648  13.099  0.00  0.00    +0.000 HD
ENDBRANCH   9  12
BRANCH   4  17
ATOM     17  S   UNL     1       4.137   3.042  17.058  0.00  0.00    +0.000 S 
BRANCH  17  18
ATOM     18  C   UNL     1       2.585   4.007  16.978  0.00  0.00    +0.000 C 
BRANCH  18  19
ATOM     19  C   UNL     1       2.217   4.567  18.341  0.00  0.00    +0.000 A 
ATOM     20  C   UNL     1       1.499   3.805  19.285  0.00  0.00    +0.000 A 
ATOM     21 CL   UNL     1       1.001   2.178  18.966  0.00  0.00    +0.000 Cl
ATOM     22  C   UNL     1       1.153   4.330  20.539  0.00  0.00    +0.000 A 
ATOM     23  C   UNL     1       1.511   5.629  20.881  0.00  0.00    +0.000 A 
ATOM     24  C   UNL     1       2.211   6.406  19.965  0.00  0.00    +0.000 A 
ATOM     25  C   UNL     1       2.555   5.887  18.708  0.00  0.00    +0.000 A 
ATOM     26 CL   UNL     1       3.415   6.945  17.643  0.00  0.00    +0.000 Cl
ENDBRANCH  18  19
ENDBRANCH  17  18
ENDBRANCH   4  17
TORSDOF 4
ENDMDL
MODEL 3
REMARK VINA RESULT:      -7.2      4.717      7.060
REMARK  Name = 
REMARK  5 active torsions:
REMARK  status: ('A' for Active; 'I' for Inactive)
REMARK    1  A    between atoms: C_1  and  C_2
REMARK    2  A    between atoms: C_4  and  S_5
REMARK    3  A    between atoms: S_5  and  C_6
REMARK    4  A    between atoms: C_6  and  C_7
REMARK    5  A    between atoms: C_19  and  C_20
REMARK                            x       y       z     vdW  Elec       q    Type
REMARK                         _______ _______ _______ _____ _____    ______ ____
ROOT
ATOM      1  C   UNL     1       4.967   6.662  16.246  0.00  0.00    +0.000 C 
ATOM      2  C   UNL     1       4.036   6.459  17.405  0.00  0.00    +0.000 A 
ATOM      3  C   UNL     1       3.286   7.498  17.930  0.00  0.00    +0.000 A 
ATOM      4  C   UNL     1       2.427   7.235  18.998  0.00  0.00    +0.000 A 
ATOM      5  C   UNL     1       2.358   5.904  19.527  0.00  0.00    +0.000 A 
ATOM      6  C   UNL     1       1.529   5.538  20.621  0.00  0.00    +0.000 A 
ATOM      7  C   UNL     1       1.471   4.238  21.110  0.00  0.00    +0.000 A 
ATOM      8  C   UNL     1       2.246   3.262  20.515  0.00  0.00    +0.000 A 
ATOM      9  C   UNL     1       3.085   3.584  19.435  0.00  0.00    +0.000 A 
ATOM     10  C   UNL     1       3.159   4.898  18.927  0.00  0.00    +0.000 A 
ATOM     11  N   UNL     1       3.972   5.200  17.886  0.00  0.00    +0.000 NA
ENDROOT
BRANCH   9  12
ATOM     12  C   UNL     1       3.876   2.437  18.879  0.00  0.00    +0.000 C 
ATOM     13  N   UNL     1       4.948   1.981  19.587  0.00  0.00    +0.000 N 
ATOM     14  O   UNL     1       3.582   1.908  17.811  0.00  0.00    +0.000 OA
ATOM     15  H   UNL     1       5.205   2.419  20.468  0.00  0.00    +0.000 HD
ATOM     16  H   UNL     1       5.495   1.217  19.218  0.00  0.00    +0.000 HD
ENDBRANCH   9  12
BRANCH   4  17
ATOM     17  S   UNL     1       1.397   8.538  19.740  0.00  0.00    +0.000 S 
BRANCH  17  18
ATOM     18  C   UNL     1       1.145   9.799  18.439  0.00  0.00    +0.000 C 
BRANCH  18  19
ATOM     19  C   UNL     1       0.017  10.747  18.806  0.00  0.00    +0.000 A 
ATOM     20  C   UNL     1      -1.235  10.695  18.159  0.00  0.00    +0.000 A 
ATOM     21 CL   UNL     1      -1.578   9.541  16.916  0.00  0.00    +0.000 Cl
ATOM     22  C   UNL     1      -2.271  11.579  18.495  0.00  0.00    +0.000 A 
ATOM     23  C   UNL     1      -2.083  12.540  19.483  0.00  0.00    +0.000 A 
ATOM     24  C   UNL     1      -0.855  12.619  20.131  0.00  0.00    +0.000 A 
ATOM     25  C   UNL     1       0.185  11.740  19.795  0.00  0.00    +0.000 A 
ATOM     26 CL   UNL     1       1.673  11.938  20.656  0.00  0.00    +0.000 Cl
ENDBRANCH  18  19
ENDBRANCH  17  18
ENDBRANCH   4  17
TORSDOF 4
ENDMDL
MODEL 4
REMARK VINA RESULT:      -7.2      4.720      6.925
REMARK  Name = 
REMARK  5 active torsions:
REMARK  status: ('A' for Active; 'I' for Inactive)
REMARK    1  A    between atoms: C_1  and  C_2
REMARK    2  A    between atoms: C_4  and  S_5
REMARK    3  A    between atoms: S_5  and  C_6
REMARK    4  A    between atoms: C_6  and  C_7
REMARK    5  A    between atoms: C_19  and  C_20
REMARK                            x       y       z     vdW  Elec       q    Type
REMARK                         _______ _______ _______ _____ _____    ______ ____
ROOT
ATOM      1  C   UNL     1       4.962   6.685  16.177  0.00  0.00    +0.000 C 
ATOM      2  C   UNL     1       4.055   6.498  17.357  0.00  0.00    +0.000 A 
ATOM      3  C   UNL     1       3.301   7.541  17.872  0.00  0.00    +0.000 A 
ATOM      4  C   UNL     1       2.466   7.294  18.961  0.00  0.00    +0.000 A 
ATOM      5  C   UNL     1       2.422   5.976  19.523  0.00  0.00    +0.000 A 
ATOM      6  C   UNL     1       1.618   5.627  20.641  0.00  0.00    +0.000 A 
ATOM      7  C   UNL     1       1.585   4.339  21.162  0.00  0.00    +0.000 A 
ATOM      8  C   UNL     1       2.362   3.358  20.577  0.00  0.00    +0.000 A 
ATOM      9  C   UNL     1       3.176   3.663  19.474  0.00  0.00    +0.000 A 
ATOM     10  C   UNL     1       3.224   4.965  18.933  0.00  0.00    +0.000 A 
ATOM     11  N   UNL     1       4.015   5.252  17.870  0.00  0.00    +0.000 NA
ENDROOT
BRANCH   9  12
ATOM     12  C   UNL     1       3.972   2.512  18.932  0.00  0.00    +0.000 C 
ATOM     13  N   UNL     1       5.047   2.071  19.642  0.00  0.00    +0.000 N 
ATOM     14  O   UNL     1       3.677   1.968  17.871  0.00  0.00    +0.000 OA
ATOM     15  H   UNL     1       5.304   2.521  20.517  0.00  0.00    +0.000 HD
ATOM     16  H   UNL     1       5.597   1.305  19.283  0.00  0.00    +0.000 HD
ENDBRANCH   9  12
BRANCH   4  17
ATOM     17  S   UNL     1       1.433   8.602  19.690  0.00  0.00    +0.000 S 
BRANCH  17  18
ATOM     18  C   UNL     1       1.013   9.748  18.327  0.00  0.00    +0.000 C 
BRANCH  18  19
ATOM     19  C   UNL     1      -0.117  10.681  18.724  0.00  0.00    +0.000 A 
ATOM     20  C   UNL     1       0.029  11.621  19.765  0.00  0.00    +0.000 A 
ATOM     21 CL   UNL     1       1.506  11.788  20.651  0.00  0.00    +0.000 Cl
ATOM     22  C   UNL     1      -1.022  12.474  20.133  0.00  0.00    +0.000 A 
ATOM     23  C   UNL     1      -2.246  12.409  19.475  0.00  0.00    +0.000 A 
ATOM     24  C   UNL     1      -2.419  11.485  18.451  0.00  0.00    +0.000 A 
ATOM     25  C   UNL     1      -1.373  10.627  18.082  0.00  0.00    +0.000 A 
ATOM     26 CL   UNL     1      -1.704   9.509  16.803  0.00  0.00    +0.000 Cl
ENDBRANCH  18  19
ENDBRANCH  17  18
ENDBRANCH   4  17
TORSDOF 4
ENDMDL
MODEL 5
REMARK VINA RESULT:      -7.0      4.344      6.453
REMARK  Name = 
REMARK  5 active torsions:
REMARK  status: ('A' for Active; 'I' for Inactive)
REMARK    1  A    between atoms: C_1  and  C_2
REMARK    2  A    between atoms: C_4  and  S_5
REMARK    3  A    between atoms: S_5  and  C_6
REMARK    4  A    between atoms: C_6  and  C_7
REMARK    5  A    between atoms: C_19  and  C_20
REMARK                            x       y       z     vdW  Elec       q    Type
REMARK                         _______ _______ _______ _____ _____    ______ ____
ROOT
ATOM      1  C   UNL     1       6.332   5.585  16.696  0.00  0.00    +0.000 C 
ATOM      2  C   UNL     1       5.037   5.564  17.451  0.00  0.00    +0.000 A 
ATOM      3  C   UNL     1       4.154   6.632  17.418  0.00  0.00    +0.000 A 
ATOM      4  C   UNL     1       2.959   6.540  18.131  0.00  0.00    +0.000 A 
ATOM      5  C   UNL     1       2.686   5.352  18.885  0.00  0.00    +0.000 A 
ATOM      6  C   UNL     1       1.506   5.168  19.657  0.00  0.00    +0.000 A 
ATOM      7  C   UNL     1       1.259   4.003  20.372  0.00  0.00    +0.000 A 
ATOM      8  C   UNL     1       2.191   2.983  20.338  0.00  0.00    +0.000 A 
ATOM      9  C   UNL     1       3.373   3.128  19.593  0.00  0.00    +0.000 A 
ATOM     10  C   UNL     1       3.642   4.305  18.862  0.00  0.00    +0.000 A 
ATOM     11  N   UNL     1       4.786   4.437  18.149  0.00  0.00    +0.000 NA
ENDROOT
BRANCH   9  12
ATOM     12  C   UNL     1       4.303   1.952  19.639  0.00  0.00    +0.000 C 
ATOM     13  N   UNL     1       4.262   1.050  18.619  0.00  0.00    +0.000 N 
ATOM     14  O   UNL     1       5.089   1.788  20.566  0.00  0.00    +0.000 OA
ATOM     15  H   UNL     1       3.607   1.172  17.851  0.00  0.00    +0.000 HD
ATOM     16  H   UNL     1       4.875   0.248  18.643  0.00  0.00    +0.000 HD
ENDBRANCH   9  12
BRANCH   4  17
ATOM     17  S   UNL     1       1.740   7.891  18.131  0.00  0.00    +0.000 S 
BRANCH  17  18
ATOM     18  C   UNL     1       1.858   8.691  19.771  0.00  0.00    +0.000 C 
BRANCH  18  19
ATOM     19  C   UNL     1       0.927   9.888  19.866  0.00  0.00    +0.000 A 
ATOM     20  C   UNL     1       1.130  11.048  19.090  0.00  0.00    +0.000 A 
ATOM     21 CL   UNL     1       2.440  11.185  17.968  0.00  0.00    +0.000 Cl
ATOM     22  C   UNL     1       0.272  12.153  19.189  0.00  0.00    +0.000 A 
ATOM     23  C   UNL     1      -0.807  12.131  20.066  0.00  0.00    +0.000 A 
ATOM     24  C   UNL     1      -1.024  11.003  20.849  0.00  0.00    +0.000 A 
ATOM     25  C   UNL     1      -0.167   9.897  20.757  0.00  0.00    +0.000 A 
ATOM     26 CL   UNL     1      -0.525   8.554  21.787  0.00  0.00    +0.000 Cl
ENDBRANCH  18  19
ENDBRANCH  17  18
ENDBRANCH   4  17
TORSDOF 4
ENDMDL
MODEL 6
REMARK VINA RESULT:      -7.0      4.378      6.737
REMARK  Name = 
REMARK  5 active torsions:
REMARK  status: ('A' for Active; 'I' for Inactive)
REMARK    1  A    between atoms: C_1  and  C_2
REMARK    2  A    between atoms: C_4  and  S_5
REMARK    3  A    between atoms: S_5  and  C_6
REMARK    4  A    between atoms: C_6  and  C_7
REMARK    5  A    between atoms: C_19  and  C_20
REMARK                            x       y       z     vdW  Elec       q    Type
REMARK                         _______ _______ _______ _____ _____    ______ ____
ROOT
ATOM      1  C   UNL     1       6.487   5.478  16.992  0.00  0.00    +0.000 C 
ATOM      2  C   UNL     1       5.167   5.481  17.704  0.00  0.00    +0.000 A 
ATOM      3  C   UNL     1       4.281   6.541  17.597  0.00  0.00    +0.000 A 
ATOM      4  C   UNL     1       3.063   6.470  18.272  0.00  0.00    +0.000 A 
ATOM      5  C   UNL     1       2.770   5.313  19.067  0.00  0.00    +0.000 A 
ATOM      6  C   UNL     1       1.567   5.154  19.805  0.00  0.00    +0.000 A 
ATOM      7  C   UNL     1       1.301   4.018  20.560  0.00  0.00    +0.000 A 
ATOM      8  C   UNL     1       2.238   3.004  20.600  0.00  0.00    +0.000 A 
ATOM      9  C   UNL     1       3.444   3.125  19.890  0.00  0.00    +0.000 A 
ATOM     10  C   UNL     1       3.732   4.272  19.120  0.00  0.00    +0.000 A 
ATOM     11  N   UNL     1       4.899   4.382  18.440  0.00  0.00    +0.000 NA
ENDROOT
BRANCH   9  12
ATOM     12  C   UNL     1       4.378   1.958  20.015  0.00  0.00    +0.000 C 
ATOM     13  N   UNL     1       4.421   1.045  19.004  0.00  0.00    +0.000 N 
ATOM     14  O   UNL     1       5.096   1.810  21.000  0.00  0.00    +0.000 OA
ATOM     15  H   UNL     1       3.823   1.155  18.189  0.00  0.00    +0.000 HD
ATOM     16  H   UNL     1       5.036   0.249  19.082  0.00  0.00    +0.000 HD
ENDBRANCH   9  12
BRANCH   4  17
ATOM     17  S   UNL     1       1.837   7.812  18.176  0.00  0.00    +0.000 S 
BRANCH  17  18
ATOM     18  C   UNL     1       1.970   8.746  19.743  0.00  0.00    +0.000 C 
BRANCH  18  19
ATOM     19  C   UNL     1       0.959   9.878  19.794  0.00  0.00    +0.000 A 
ATOM     20  C   UNL     1      -0.178   9.818  20.626  0.00  0.00    +0.000 A 
ATOM     21 CL   UNL     1      -0.493   8.464  21.656  0.00  0.00    +0.000 Cl
ATOM     22  C   UNL     1      -1.114  10.863  20.662  0.00  0.00    +0.000 A 
ATOM     23  C   UNL     1      -0.941  11.991  19.868  0.00  0.00    +0.000 A 
ATOM     24  C   UNL     1       0.167  12.071  19.031  0.00  0.00    +0.000 A 
ATOM     25  C   UNL     1       1.103  11.027  18.988  0.00  0.00    +0.000 A 
ATOM     26 CL   UNL     1       2.436  11.227  17.903  0.00  0.00    +0.000 Cl
ENDBRANCH  18  19
ENDBRANCH  17  18
ENDBRANCH   4  17
TORSDOF 4
ENDMDL
MODEL 7
REMARK VINA RESULT:      -6.8      4.350      7.218
REMARK  Name = 
REMARK  5 active torsions:
REMARK  status: ('A' for Active; 'I' for Inactive)
REMARK    1  A    between atoms: C_1  and  C_2
REMARK    2  A    between atoms: C_4  and  S_5
REMARK    3  A    between atoms: S_5  and  C_6
REMARK    4  A    between atoms: C_6  and  C_7
REMARK    5  A    between atoms: C_19  and  C_20
REMARK                            x       y       z     vdW  Elec       q    Type
REMARK                         _______ _______ _______ _____ _____    ______ ____
ROOT
ATOM      1  C   UNL     1       1.210   3.004  21.714  0.00  0.00    +0.000 C 
ATOM      2  C   UNL     1       1.645   3.895  20.589  0.00  0.00    +0.000 A 
ATOM      3  C   UNL     1       2.159   3.384  19.409  0.00  0.00    +0.000 A 
ATOM      4  C   UNL     1       2.529   4.269  18.397  0.00  0.00    +0.000 A 
ATOM      5  C   UNL     1       2.378   5.679  18.612  0.00  0.00    +0.000 A 
ATOM      6  C   UNL     1       2.741   6.661  17.651  0.00  0.00    +0.000 A 
ATOM      7  C   UNL     1       2.576   8.022  17.879  0.00  0.00    +0.000 A 
ATOM      8  C   UNL     1       2.042   8.442  19.083  0.00  0.00    +0.000 A 
ATOM      9  C   UNL     1       1.678   7.503  20.062  0.00  0.00    +0.000 A 
ATOM     10  C   UNL     1       1.840   6.117  19.849  0.00  0.00    +0.000 A 
ATOM     11  N   UNL     1       1.488   5.218  20.800  0.00  0.00    +0.000 NA
ENDROOT
BRANCH   9  12
ATOM     12  C   UNL     1       1.113   8.084  21.324  0.00  0.00    +0.000 C 
ATOM     13  N   UNL     1       1.962   8.696  22.197  0.00  0.00    +0.000 N 
ATOM     14  O   UNL     1      -0.085   8.020  21.583  0.00  0.00    +0.000 OA
ATOM     15  H   UNL     1       2.957   8.745  21.995  0.00  0.00    +0.000 HD
ATOM     16  H   UNL     1       1.596   9.081  23.055  0.00  0.00    +0.000 HD
ENDBRANCH   9  12
BRANCH   4  17
ATOM     17  S   UNL     1       3.202   3.682  16.811  0.00  0.00    +0.000 S 
BRANCH  17  18
ATOM     18  C   UNL     1       4.958   3.273  17.117  0.00  0.00    +0.000 C 
BRANCH  18  19
ATOM     19  C   UNL     1       5.825   4.520  17.087  0.00  0.00    +0.000 A 
ATOM     20  C   UNL     1       6.368   5.016  15.884  0.00  0.00    +0.000 A 
ATOM     21 CL   UNL     1       6.076   4.251  14.360  0.00  0.00    +0.000 Cl
ATOM     22  C   UNL     1       7.176   6.163  15.864  0.00  0.00    +0.000 A 
ATOM     23  C   UNL     1       7.464   6.842  17.043  0.00  0.00    +0.000 A 
ATOM     24  C   UNL     1       6.948   6.368  18.245  0.00  0.00    +0.000 A 
ATOM     25  C   UNL     1       6.144   5.220  18.270  0.00  0.00    +0.000 A 
ATOM     26 CL   UNL     1       5.566   4.714  19.821  0.00  0.00    +0.000 Cl
ENDBRANCH  18  19
ENDBRANCH  17  18
ENDBRANCH   4  17
TORSDOF 4
ENDMDL
MODEL 8
REMARK VINA RESULT:      -6.8      4.507      6.880
REMARK  Name = 
REMARK  5 active torsions:
REMARK  status: ('A' for Active; 'I' for Inactive)
REMARK    1  A    between atoms: C_1  and  C_2
REMARK    2  A    between atoms: C_4  and  S_5
REMARK    3  A    between atoms: S_5  and  C_6
REMARK    4  A    between atoms: C_6  and  C_7
REMARK    5  A    between atoms: C_19  and  C_20
REMARK                            x       y       z     vdW  Elec       q    Type
REMARK                         _______ _______ _______ _____ _____    ______ ____
ROOT
ATOM      1  C   UNL     1       4.325   6.898  16.649  0.00  0.00    +0.000 C 
ATOM      2  C   UNL     1       3.561   6.408  17.843  0.00  0.00    +0.000 A 
ATOM      3  C   UNL     1       3.090   7.276  18.815  0.00  0.00    +0.000 A 
ATOM      4  C   UNL     1       2.372   6.755  19.891  0.00  0.00    +0.000 A 
ATOM      5  C   UNL     1       2.154   5.340  19.966  0.00  0.00    +0.000 A 
ATOM      6  C   UNL     1       1.451   4.711  21.029  0.00  0.00    +0.000 A 
ATOM      7  C   UNL     1       1.244   3.337  21.074  0.00  0.00    +0.000 A 
ATOM      8  C   UNL     1       1.739   2.549  20.053  0.00  0.00    +0.000 A 
ATOM      9  C   UNL     1       2.446   3.131  18.988  0.00  0.00    +0.000 A 
ATOM     10  C   UNL     1       2.668   4.523  18.926  0.00  0.00    +0.000 A 
ATOM     11  N   UNL     1       3.354   5.077  17.896  0.00  0.00    +0.000 NA
ENDROOT
BRANCH   9  12
ATOM     12  C   UNL     1       2.933   2.169  17.945  0.00  0.00    +0.000 C 
ATOM     13  N   UNL     1       4.041   1.424  18.212  0.00  0.00    +0.000 N 
ATOM     14  O   UNL     1       2.360   2.043  16.867  0.00  0.00    +0.000 OA
ATOM     15  H   UNL     1       4.528   1.528  19.099  0.00  0.00    +0.000 HD
ATOM     16  H   UNL     1       4.386   0.781  17.514  0.00  0.00    +0.000 HD
ENDBRANCH   9  12
BRANCH   4  17
ATOM     17  S   UNL     1       1.708   7.824  21.205  0.00  0.00    +0.000 S 
BRANCH  17  18
ATOM     18  C   UNL     1       0.041   8.340  20.658  0.00  0.00    +0.000 C 
BRANCH  18  19
ATOM     19  C   UNL     1      -0.056   9.851  20.545  0.00  0.00    +0.000 A 
ATOM     20  C   UNL     1       0.176  10.519  19.325  0.00  0.00    +0.000 A 
ATOM     21 CL   UNL     1       0.571   9.667  17.871  0.00  0.00    +0.000 Cl
ATOM     22  C   UNL     1       0.094  11.917  19.228  0.00  0.00    +0.000 A 
ATOM     23  C   UNL     1      -0.218  12.682  20.346  0.00  0.00    +0.000 A 
ATOM     24  C   UNL     1      -0.442  12.049  21.564  0.00  0.00    +0.000 A 
ATOM     25  C   UNL     1      -0.357  10.653  21.666  0.00  0.00    +0.000 A 
ATOM     26 CL   UNL     1      -0.643   9.974  23.232  0.00  0.00    +0.000 Cl
ENDBRANCH  18  19
ENDBRANCH  17  18
ENDBRANCH   4  17
TORSDOF 4
ENDMDL
MODEL 9
REMARK VINA RESULT:      -6.8      4.499      6.784
REMARK  Name = 
REMARK  5 active torsions:
REMARK  status: ('A' for Active; 'I' for Inactive)
REMARK    1  A    between atoms: C_1  and  C_2
REMARK    2  A    between atoms: C_4  and  S_5
REMARK    3  A    between atoms: S_5  and  C_6
REMARK    4  A    between atoms: C_6  and  C_7
REMARK    5  A    between atoms: C_19  and  C_20
REMARK                            x       y       z     vdW  Elec       q    Type
REMARK                         _______ _______ _______ _____ _____    ______ ____
ROOT
ATOM      1  C   UNL     1       4.780   6.441  16.398  0.00  0.00    +0.000 C 
ATOM      2  C   UNL     1       3.877   6.115  17.549  0.00  0.00    +0.000 A 
ATOM      3  C   UNL     1       3.381   7.098  18.391  0.00  0.00    +0.000 A 
ATOM      4  C   UNL     1       2.531   6.726  19.433  0.00  0.00    +0.000 A 
ATOM      5  C   UNL     1       2.208   5.340  19.610  0.00  0.00    +0.000 A 
ATOM      6  C   UNL     1       1.367   4.859  20.649  0.00  0.00    +0.000 A 
ATOM      7  C   UNL     1       1.060   3.511  20.794  0.00  0.00    +0.000 A 
ATOM      8  C   UNL     1       1.590   2.601  19.900  0.00  0.00    +0.000 A 
ATOM      9  C   UNL     1       2.432   3.036  18.863  0.00  0.00    +0.000 A 
ATOM     10  C   UNL     1       2.757   4.399  18.701  0.00  0.00    +0.000 A 
ATOM     11  N   UNL     1       3.572   4.810  17.699  0.00  0.00    +0.000 NA
ENDROOT
BRANCH   9  12
ATOM     12  C   UNL     1       2.944   1.952  17.961  0.00  0.00    +0.000 C 
ATOM     13  N   UNL     1       3.849   1.063  18.458  0.00  0.00    +0.000 N 
ATOM     14  O   UNL     1       2.568   1.851  16.797  0.00  0.00    +0.000 OA
ATOM     15  H   UNL     1       4.174   1.145  19.419  0.00  0.00    +0.000 HD
ATOM     16  H   UNL     1       4.210   0.336  17.858  0.00  0.00    +0.000 HD
ENDBRANCH   9  12
BRANCH   4  17
ATOM     17  S   UNL     1       1.827   7.953  20.576  0.00  0.00    +0.000 S 
BRANCH  17  18
ATOM     18  C   UNL     1       0.985   9.202  19.538  0.00  0.00    +0.000 C 
BRANCH  18  19
ATOM     19  C   UNL     1       0.548  10.398  20.365  0.00  0.00    +0.000 A 
ATOM     20  C   UNL     1       0.900  11.716  20.005  0.00  0.00    +0.000 A 
ATOM     21 CL   UNL     1       1.838  12.063  18.593  0.00  0.00    +0.000 Cl
ATOM     22  C   UNL     1       0.502  12.817  20.778  0.00  0.00    +0.000 A 
ATOM     23  C   UNL     1      -0.254  12.631  21.931  0.00  0.00    +0.000 A 
ATOM     24  C   UNL     1      -0.607  11.342  22.313  0.00  0.00    +0.000 A 
ATOM     25  C   UNL     1      -0.207  10.238  21.546  0.00  0.00    +0.000 A 
ATOM     26 CL   UNL     1      -0.692   8.680  22.122  0.00  0.00    +0.000 Cl
ENDBRANCH  18  19
ENDBRANCH  17  18
ENDBRANCH   4  17
TORSDOF 4
ENDMDL
