MODEL 1
REMARK VINA RESULT:      -7.8      0.000      0.000
REMARK  Name = 
REMARK  10 active torsions:
REMARK  status: ('A' for Active; 'I' for Inactive)
REMARK    1  A    between atoms: C_1  and  O_2
REMARK    2  A    between atoms: O_2  and  C_3
REMARK    3  A    between atoms: C_7  and  C_8
REMARK    4  A    between atoms: C_8  and  S_9
REMARK    5  A    between atoms: S_9  and  C_10
REMARK    6  A    between atoms: C_15  and  C_16
REMARK    7  A    between atoms: C_22  and  C_23
REMARK    8  A    between atoms: N_25  and  C_26
REMARK    9  A    between atoms: C_31  and  C_32
REMARK   10  A    between atoms: C_33  and  C_34
REMARK                            x       y       z     vdW  Elec       q    Type
REMARK                         _______ _______ _______ _____ _____    ______ ____
ROOT
ATOM      1  C   UNL     1       2.220   8.523  18.511  0.00  0.00    +0.000 A 
ATOM      2  N   UNL     1       1.954   7.888  19.702  0.00  0.00    +0.000 NA
ATOM      3  C   UNL     1       1.198   8.747  20.336  0.00  0.00    +0.000 A 
ATOM      4  N   UNL     1       0.995   9.841  19.549  0.00  0.00    +0.000 N 
ATOM      5  N   UNL     1       1.624   9.711  18.356  0.00  0.00    +0.000 NA
ATOM      6  C   UNL     1       0.163  10.985  19.946  0.00  0.00    +0.000 C 
ATOM      7  C   UNL     1      -0.346  10.863  21.411  0.00  0.00    +0.000 C 
ATOM      8  C   UNL     1      -0.102   9.735  22.129  0.00  0.00    +0.000 C 
ATOM      9  C   UNL     1      -0.608   9.413  23.513  0.00  0.00    +0.000 C 
ATOM     10  N   UNL     1       0.650   8.706  21.563  0.00  0.00    +0.000 N 
ATOM     11  H   UNL     1       0.750   7.845  22.097  0.00  0.00    +0.000 HD
ENDROOT
BRANCH   6  12
ATOM     12  C   UNL     1       0.913  12.272  19.650  0.00  0.00    +0.000 A 
ATOM     13  C   UNL     1       0.549  13.155  18.629  0.00  0.00    +0.000 A 
ATOM     14  C   UNL     1       1.293  14.312  18.419  0.00  0.00    +0.000 A 
ATOM     15  C   UNL     1       2.368  14.563  19.257  0.00  0.00    +0.000 A 
ATOM     16  N   UNL     1       2.736  13.754  20.269  0.00  0.00    +0.000 NA
ATOM     17  C   UNL     1       2.004  12.631  20.445  0.00  0.00    +0.000 A 
ENDBRANCH   6  12
BRANCH   7  18
ATOM     18  C   UNL     1      -1.244  12.015  21.767  0.00  0.00    +0.000 C 
ATOM     19  O   UNL     1      -2.056  12.343  20.907  0.00  0.00    +0.000 OA
ATOM     20  N   UNL     1      -1.027  12.670  22.969  0.00  0.00    +0.000 N 
ATOM     21  H   UNL     1      -0.279  12.334  23.560  0.00  0.00    +0.000 HD
BRANCH  20  22
ATOM     22  C   UNL     1      -1.689  13.857  23.417  0.00  0.00    +0.000 A 
ATOM     23  C   UNL     1      -1.085  15.122  23.304  0.00  0.00    +0.000 A 
ATOM     24  C   UNL     1      -1.686  16.280  23.811  0.00  0.00    +0.000 A 
ATOM     25  C   UNL     1      -2.926  16.210  24.420  0.00  0.00    +0.000 A 
ATOM     26  C   UNL     1      -3.570  14.978  24.507  0.00  0.00    +0.000 A 
ATOM     27  C   UNL     1      -2.966  13.791  24.022  0.00  0.00    +0.000 A 
ATOM     28  C   UNL     1      -3.777  12.530  24.147  0.00  0.00    +0.000 C 
ENDBRANCH  20  22
ENDBRANCH   7  18
BRANCH   1  29
ATOM     29  S   UNL     1       3.221   7.779  17.289  0.00  0.00    +0.000 S 
BRANCH  29  30
ATOM     30  C   UNL     1       3.443   6.107  17.958  0.00  0.00    +0.000 C 
BRANCH  30  35
ATOM     31  C   UNL     1       6.850   4.961  16.617  0.00  0.00    +0.000 A 
ATOM     32  C   UNL     1       7.577   4.852  17.802  0.00  0.00    +0.000 A 
ATOM     33  C   UNL     1       6.981   5.152  19.030  0.00  0.00    +0.000 A 
ATOM     34  C   UNL     1       5.650   5.558  19.076  0.00  0.00    +0.000 A 
ATOM     35  C   UNL     1       4.891   5.673  17.901  0.00  0.00    +0.000 A 
ATOM     36  C   UNL     1       5.513   5.378  16.667  0.00  0.00    +0.000 A 
BRANCH  31  38
ATOM     37  C   UNL     1       6.896   4.811  14.241  0.00  0.00    +0.000 C 
ATOM     38  O   UNL     1       7.549   4.630  15.491  0.00  0.00    +0.000 OA
ENDBRANCH  31  38
ENDBRANCH  30  35
ENDBRANCH  29  30
ENDBRANCH   1  29
TORSDOF 7
ENDMDL
MODEL 2
REMARK VINA RESULT:      -7.6      0.516      1.246
REMARK  Name = 
REMARK  10 active torsions:
REMARK  status: ('A' for Active; 'I' for Inactive)
REMARK    1  A    between atoms: C_1  and  O_2
REMARK    2  A    between atoms: O_2  and  C_3
REMARK    3  A    between atoms: C_7  and  C_8
REMARK    4  A    between atoms: C_8  and  S_9
REMARK    5  A    between atoms: S_9  and  C_10
REMARK    6  A    between atoms: C_15  and  C_16
REMARK    7  A    between atoms: C_22  and  C_23
REMARK    8  A    between atoms: N_25  and  C_26
REMARK    9  A    between atoms: C_31  and  C_32
REMARK   10  A    between atoms: C_33  and  C_34
REMARK                            x       y       z     vdW  Elec       q    Type
REMARK                         _______ _______ _______ _____ _____    ______ ____
ROOT
ATOM      1  C   UNL     1       2.165   8.635  18.537  0.00  0.00    +0.000 A 
ATOM      2  N   UNL     1       1.868   8.016  19.729  0.00  0.00    +0.000 NA
ATOM      3  C   UNL     1       1.127   8.899  20.348  0.00  0.00    +0.000 A 
ATOM      4  N   UNL     1       0.963   9.992  19.551  0.00  0.00    +0.000 N 
ATOM      5  N   UNL     1       1.602   9.838  18.366  0.00  0.00    +0.000 NA
ATOM      6  C   UNL     1       0.156  11.161  19.931  0.00  0.00    +0.000 C 
ATOM      7  C   UNL     1      -0.373  11.062  21.390  0.00  0.00    +0.000 C 
ATOM      8  C   UNL     1      -0.168   9.933  22.119  0.00  0.00    +0.000 C 
ATOM      9  C   UNL     1      -0.699   9.634  23.498  0.00  0.00    +0.000 C 
ATOM     10  N   UNL     1       0.563   8.880  21.568  0.00  0.00    +0.000 N 
ATOM     11  H   UNL     1       0.635   8.021  22.110  0.00  0.00    +0.000 HD
ENDROOT
BRANCH   6  12
ATOM     12  C   UNL     1       0.943  12.426  19.635  0.00  0.00    +0.000 A 
ATOM     13  C   UNL     1       0.591  13.331  18.630  0.00  0.00    +0.000 A 
ATOM     14  C   UNL     1       1.370  14.465  18.419  0.00  0.00    +0.000 A 
ATOM     15  C   UNL     1       2.466  14.671  19.241  0.00  0.00    +0.000 A 
ATOM     16  N   UNL     1       2.824  13.839  20.238  0.00  0.00    +0.000 NA
ATOM     17  C   UNL     1       2.058  12.739  20.415  0.00  0.00    +0.000 A 
ENDBRANCH   6  12
BRANCH   7  18
ATOM     18  C   UNL     1      -1.245  12.240  21.728  0.00  0.00    +0.000 C 
ATOM     19  O   UNL     1      -2.120  12.507  20.909  0.00  0.00    +0.000 OA
ATOM     20  N   UNL     1      -0.941  12.979  22.859  0.00  0.00    +0.000 N 
ATOM     21  H   UNL     1      -0.150  12.685  23.416  0.00  0.00    +0.000 HD
BRANCH  20  22
ATOM     22  C   UNL     1      -1.571  14.198  23.269  0.00  0.00    +0.000 A 
ATOM     23  C   UNL     1      -2.603  14.206  24.223  0.00  0.00    +0.000 A 
ATOM     24  C   UNL     1      -3.282  15.380  24.572  0.00  0.00    +0.000 A 
ATOM     25  C   UNL     1      -2.926  16.586  23.997  0.00  0.00    +0.000 A 
ATOM     26  C   UNL     1      -1.877  16.617  23.081  0.00  0.00    +0.000 A 
ATOM     27  C   UNL     1      -1.195  15.435  22.696  0.00  0.00    +0.000 A 
ATOM     28  C   UNL     1      -0.060  15.606  21.723  0.00  0.00    +0.000 C 
ENDBRANCH  20  22
ENDBRANCH   7  18
BRANCH   1  29
ATOM     29  S   UNL     1       3.160   7.857  17.332  0.00  0.00    +0.000 S 
BRANCH  29  30
ATOM     30  C   UNL     1       3.506   6.256  18.113  0.00  0.00    +0.000 C 
BRANCH  30  35
ATOM     31  C   UNL     1       6.714   5.369  16.207  0.00  0.00    +0.000 A 
ATOM     32  C   UNL     1       7.509   4.878  17.242  0.00  0.00    +0.000 A 
ATOM     33  C   UNL     1       7.024   4.838  18.551  0.00  0.00    +0.000 A 
ATOM     34  C   UNL     1       5.734   5.284  18.829  0.00  0.00    +0.000 A 
ATOM     35  C   UNL     1       4.909   5.780  17.808  0.00  0.00    +0.000 A 
ATOM     36  C   UNL     1       5.420   5.826  16.491  0.00  0.00    +0.000 A 
BRANCH  31  38
ATOM     37  C   UNL     1       6.760   4.462  14.006  0.00  0.00    +0.000 C 
ATOM     38  O   UNL     1       7.308   5.345  14.976  0.00  0.00    +0.000 OA
ENDBRANCH  31  38
ENDBRANCH  30  35
ENDBRANCH  29  30
ENDBRANCH   1  29
TORSDOF 7
ENDMDL
MODEL 3
REMARK VINA RESULT:      -7.5      2.888      4.215
REMARK  Name = 
REMARK  10 active torsions:
REMARK  status: ('A' for Active; 'I' for Inactive)
REMARK    1  A    between atoms: C_1  and  O_2
REMARK    2  A    between atoms: O_2  and  C_3
REMARK    3  A    between atoms: C_7  and  C_8
REMARK    4  A    between atoms: C_8  and  S_9
REMARK    5  A    between atoms: S_9  and  C_10
REMARK    6  A    between atoms: C_15  and  C_16
REMARK    7  A    between atoms: C_22  and  C_23
REMARK    8  A    between atoms: N_25  and  C_26
REMARK    9  A    between atoms: C_31  and  C_32
REMARK   10  A    between atoms: C_33  and  C_34
REMARK                            x       y       z     vdW  Elec       q    Type
REMARK                         _______ _______ _______ _____ _____    ______ ____
ROOT
ATOM      1  C   UNL     1       1.089  10.223  18.560  0.00  0.00    +0.000 A 
ATOM      2  N   UNL     1       1.583  11.327  19.215  0.00  0.00    +0.000 NA
ATOM      3  C   UNL     1       0.505  11.921  19.655  0.00  0.00    +0.000 A 
ATOM      4  N   UNL     1      -0.591  11.192  19.303  0.00  0.00    +0.000 N 
ATOM      5  N   UNL     1      -0.241  10.078  18.616  0.00  0.00    +0.000 NA
ATOM      6  C   UNL     1      -1.966  11.562  19.669  0.00  0.00    +0.000 C 
ATOM      7  C   UNL     1      -2.034  12.943  20.383  0.00  0.00    +0.000 C 
ATOM      8  C   UNL     1      -0.892  13.607  20.700  0.00  0.00    +0.000 C 
ATOM      9  C   UNL     1      -0.776  14.893  21.478  0.00  0.00    +0.000 C 
ATOM     10  N   UNL     1       0.343  13.067  20.340  0.00  0.00    +0.000 N 
ATOM     11  H   UNL     1       1.181  13.550  20.659  0.00  0.00    +0.000 HD
ENDROOT
BRANCH   6  12
ATOM     12  C   UNL     1      -2.855  11.448  18.442  0.00  0.00    +0.000 A 
ATOM     13  C   UNL     1      -4.247  11.351  18.511  0.00  0.00    +0.000 A 
ATOM     14  C   UNL     1      -4.990  11.244  17.338  0.00  0.00    +0.000 A 
ATOM     15  C   UNL     1      -4.314  11.263  16.129  0.00  0.00    +0.000 A 
ATOM     16  N   UNL     1      -2.977  11.383  16.017  0.00  0.00    +0.000 NA
ATOM     17  C   UNL     1      -2.278  11.474  17.171  0.00  0.00    +0.000 A 
ENDBRANCH   6  12
BRANCH   7  18
ATOM     18  C   UNL     1      -3.442  13.265  20.799  0.00  0.00    +0.000 C 
ATOM     19  O   UNL     1      -3.878  14.345  20.410  0.00  0.00    +0.000 OA
ATOM     20  N   UNL     1      -4.092  12.389  21.654  0.00  0.00    +0.000 N 
ATOM     21  H   UNL     1      -3.591  11.563  21.951  0.00  0.00    +0.000 HD
BRANCH  20  22
ATOM     22  C   UNL     1      -5.375  12.591  22.257  0.00  0.00    +0.000 A 
ATOM     23  C   UNL     1      -6.554  12.587  21.491  0.00  0.00    +0.000 A 
ATOM     24  C   UNL     1      -7.806  12.862  22.055  0.00  0.00    +0.000 A 
ATOM     25  C   UNL     1      -7.916  13.120  23.409  0.00  0.00    +0.000 A 
ATOM     26  C   UNL     1      -6.772  13.088  24.202  0.00  0.00    +0.000 A 
ATOM     27  C   UNL     1      -5.492  12.835  23.645  0.00  0.00    +0.000 A 
ATOM     28  C   UNL     1      -4.340  12.795  24.610  0.00  0.00    +0.000 C 
ENDBRANCH  20  22
ENDBRANCH   7  18
BRANCH   1  29
ATOM     29  S   UNL     1       2.150   9.084  17.770  0.00  0.00    +0.000 S 
BRANCH  29  30
ATOM     30  C   UNL     1       2.203   7.728  18.975  0.00  0.00    +0.000 C 
BRANCH  30  35
ATOM     31  C   UNL     1       4.448   5.331  16.993  0.00  0.00    +0.000 A 
ATOM     32  C   UNL     1       3.803   4.116  17.221  0.00  0.00    +0.000 A 
ATOM     33  C   UNL     1       2.655   4.060  18.015  0.00  0.00    +0.000 A 
ATOM     34  C   UNL     1       2.143   5.226  18.580  0.00  0.00    +0.000 A 
ATOM     35  C   UNL     1       2.768   6.464  18.366  0.00  0.00    +0.000 A 
ATOM     36  C   UNL     1       3.935   6.500  17.570  0.00  0.00    +0.000 A 
BRANCH  31  38
ATOM     37  C   UNL     1       5.993   3.943  15.829  0.00  0.00    +0.000 C 
ATOM     38  O   UNL     1       5.553   5.245  16.194  0.00  0.00    +0.000 OA
ENDBRANCH  31  38
ENDBRANCH  30  35
ENDBRANCH  29  30
ENDBRANCH   1  29
TORSDOF 7
ENDMDL
MODEL 4
REMARK VINA RESULT:      -7.4      2.033      2.845
REMARK  Name = 
REMARK  10 active torsions:
REMARK  status: ('A' for Active; 'I' for Inactive)
REMARK    1  A    between atoms: C_1  and  O_2
REMARK    2  A    between atoms: O_2  and  C_3
REMARK    3  A    between atoms: C_7  and  C_8
REMARK    4  A    between atoms: C_8  and  S_9
REMARK    5  A    between atoms: S_9  and  C_10
REMARK    6  A    between atoms: C_15  and  C_16
REMARK    7  A    between atoms: C_22  and  C_23
REMARK    8  A    between atoms: N_25  and  C_26
REMARK    9  A    between atoms: C_31  and  C_32
REMARK   10  A    between atoms: C_33  and  C_34
REMARK                            x       y       z     vdW  Elec       q    Type
REMARK                         _______ _______ _______ _____ _____    ______ ____
ROOT
ATOM      1  C   UNL     1       2.353   8.278  18.583  0.00  0.00    +0.000 A 
ATOM      2  N   UNL     1       2.024   7.670  19.773  0.00  0.00    +0.000 NA
ATOM      3  C   UNL     1       1.280   8.565  20.369  0.00  0.00    +0.000 A 
ATOM      4  N   UNL     1       1.145   9.655  19.563  0.00  0.00    +0.000 N 
ATOM      5  N   UNL     1       1.808   9.485  18.393  0.00  0.00    +0.000 NA
ATOM      6  C   UNL     1       0.343  10.834  19.917  0.00  0.00    +0.000 C 
ATOM      7  C   UNL     1      -0.219  10.751  21.365  0.00  0.00    +0.000 C 
ATOM      8  C   UNL     1      -0.042   9.625  22.105  0.00  0.00    +0.000 C 
ATOM      9  C   UNL     1      -0.606   9.341  23.475  0.00  0.00    +0.000 C 
ATOM     10  N   UNL     1       0.690   8.560  21.577  0.00  0.00    +0.000 N 
ATOM     11  H   UNL     1       0.740   7.704  22.126  0.00  0.00    +0.000 HD
ENDROOT
BRANCH   6  12
ATOM     12  C   UNL     1       1.150  12.088  19.630  0.00  0.00    +0.000 A 
ATOM     13  C   UNL     1       2.108  12.601  20.510  0.00  0.00    +0.000 A 
ATOM     14  C   UNL     1       2.802  13.760  20.174  0.00  0.00    +0.000 A 
ATOM     15  C   UNL     1       2.532  14.357  18.954  0.00  0.00    +0.000 A 
ATOM     16  N   UNL     1       1.638  13.882  18.066  0.00  0.00    +0.000 NA
ATOM     17  C   UNL     1       0.969  12.761  18.420  0.00  0.00    +0.000 A 
ENDBRANCH   6  12
BRANCH   7  18
ATOM     18  C   UNL     1      -1.085  11.940  21.676  0.00  0.00    +0.000 C 
ATOM     19  O   UNL     1      -1.852  12.289  20.783  0.00  0.00    +0.000 OA
ATOM     20  N   UNL     1      -0.888  12.599  22.878  0.00  0.00    +0.000 N 
ATOM     21  H   UNL     1      -0.176  12.243  23.500  0.00  0.00    +0.000 HD
BRANCH  20  22
ATOM     22  C   UNL     1      -1.520  13.816  23.290  0.00  0.00    +0.000 A 
ATOM     23  C   UNL     1      -0.872  15.058  23.168  0.00  0.00    +0.000 A 
ATOM     24  C   UNL     1      -1.445  16.245  23.640  0.00  0.00    +0.000 A 
ATOM     25  C   UNL     1      -2.700  16.227  24.222  0.00  0.00    +0.000 A 
ATOM     26  C   UNL     1      -3.387  15.019  24.317  0.00  0.00    +0.000 A 
ATOM     27  C   UNL     1      -2.811  13.803  23.867  0.00  0.00    +0.000 A 
ATOM     28  C   UNL     1      -3.666  12.572  23.997  0.00  0.00    +0.000 C 
ENDBRANCH  20  22
ENDBRANCH   7  18
BRANCH   1  29
ATOM     29  S   UNL     1       3.366   7.481  17.406  0.00  0.00    +0.000 S 
BRANCH  29  30
ATOM     30  C   UNL     1       4.264   6.286  18.435  0.00  0.00    +0.000 C 
BRANCH  30  35
ATOM     31  C   UNL     1       2.655   3.000  19.588  0.00  0.00    +0.000 A 
ATOM     32  C   UNL     1       2.394   2.389  18.362  0.00  0.00    +0.000 A 
ATOM     33  C   UNL     1       2.724   3.031  17.165  0.00  0.00    +0.000 A 
ATOM     34  C   UNL     1       3.325   4.287  17.193  0.00  0.00    +0.000 A 
ATOM     35  C   UNL     1       3.604   4.925  18.411  0.00  0.00    +0.000 A 
ATOM     36  C   UNL     1       3.252   4.268  19.611  0.00  0.00    +0.000 A 
BRANCH  31  38
ATOM     37  C   UNL     1       1.453   2.890  21.641  0.00  0.00    +0.000 C 
ATOM     38  O   UNL     1       2.290   2.261  20.678  0.00  0.00    +0.000 OA
ENDBRANCH  31  38
ENDBRANCH  30  35
ENDBRANCH  29  30
ENDBRANCH   1  29
TORSDOF 7
ENDMDL
MODEL 5
REMARK VINA RESULT:      -7.4      1.421      1.850
REMARK  Name = 
REMARK  10 active torsions:
REMARK  status: ('A' for Active; 'I' for Inactive)
REMARK    1  A    between atoms: C_1  and  O_2
REMARK    2  A    between atoms: O_2  and  C_3
REMARK    3  A    between atoms: C_7  and  C_8
REMARK    4  A    between atoms: C_8  and  S_9
REMARK    5  A    between atoms: S_9  and  C_10
REMARK    6  A    between atoms: C_15  and  C_16
REMARK    7  A    between atoms: C_22  and  C_23
REMARK    8  A    between atoms: N_25  and  C_26
REMARK    9  A    between atoms: C_31  and  C_32
REMARK   10  A    between atoms: C_33  and  C_34
REMARK                            x       y       z     vdW  Elec       q    Type
REMARK                         _______ _______ _______ _____ _____    ______ ____
ROOT
ATOM      1  C   UNL     1       2.121   8.462  18.611  0.00  0.00    +0.000 A 
ATOM      2  N   UNL     1       2.032   7.893  19.861  0.00  0.00    +0.000 NA
ATOM      3  C   UNL     1       1.307   8.752  20.529  0.00  0.00    +0.000 A 
ATOM      4  N   UNL     1       0.951   9.781  19.710  0.00  0.00    +0.000 N 
ATOM      5  N   UNL     1       1.443   9.606  18.459  0.00  0.00    +0.000 NA
ATOM      6  C   UNL     1       0.106  10.905  20.136  0.00  0.00    +0.000 C 
ATOM      7  C   UNL     1      -0.221  10.852  21.656  0.00  0.00    +0.000 C 
ATOM      8  C   UNL     1       0.169   9.787  22.405  0.00  0.00    +0.000 C 
ATOM      9  C   UNL     1      -0.153   9.529  23.855  0.00  0.00    +0.000 C 
ATOM     10  N   UNL     1       0.908   8.762  21.813  0.00  0.00    +0.000 N 
ATOM     11  H   UNL     1       1.120   7.944  22.380  0.00  0.00    +0.000 HD
ENDROOT
BRANCH   6  12
ATOM     12  C   UNL     1       0.741  12.207  19.679  0.00  0.00    +0.000 A 
ATOM     13  C   UNL     1       2.012  12.623  20.084  0.00  0.00    +0.000 A 
ATOM     14  C   UNL     1       2.521  13.834  19.622  0.00  0.00    +0.000 A 
ATOM     15  C   UNL     1       1.748  14.580  18.747  0.00  0.00    +0.000 A 
ATOM     16  N   UNL     1       0.531  14.203  18.310  0.00  0.00    +0.000 NA
ATOM     17  C   UNL     1       0.055  13.028  18.782  0.00  0.00    +0.000 A 
ENDBRANCH   6  12
BRANCH   7  18
ATOM     18  C   UNL     1      -1.137  11.978  22.050  0.00  0.00    +0.000 C 
ATOM     19  O   UNL     1      -0.596  12.942  22.585  0.00  0.00    +0.000 OA
ATOM     20  N   UNL     1      -2.501  11.807  21.878  0.00  0.00    +0.000 N 
ATOM     21  H   UNL     1      -2.820  10.933  21.482  0.00  0.00    +0.000 HD
BRANCH  20  22
ATOM     22  C   UNL     1      -3.528  12.706  22.310  0.00  0.00    +0.000 A 
ATOM     23  C   UNL     1      -3.579  13.180  23.632  0.00  0.00    +0.000 A 
ATOM     24  C   UNL     1      -4.623  13.994  24.089  0.00  0.00    +0.000 A 
ATOM     25  C   UNL     1      -5.630  14.383  23.224  0.00  0.00    +0.000 A 
ATOM     26  C   UNL     1      -5.583  13.966  21.897  0.00  0.00    +0.000 A 
ATOM     27  C   UNL     1      -4.548  13.120  21.423  0.00  0.00    +0.000 A 
ATOM     28  C   UNL     1      -4.593  12.766  19.961  0.00  0.00    +0.000 C 
ENDBRANCH  20  22
ENDBRANCH   7  18
BRANCH   1  29
ATOM     29  S   UNL     1       3.014   7.693  17.323  0.00  0.00    +0.000 S 
BRANCH  29  30
ATOM     30  C   UNL     1       3.485   6.116  18.088  0.00  0.00    +0.000 C 
BRANCH  30  35
ATOM     31  C   UNL     1       6.432   5.210  15.806  0.00  0.00    +0.000 A 
ATOM     32  C   UNL     1       7.370   4.778  16.745  0.00  0.00    +0.000 A 
ATOM     33  C   UNL     1       7.064   4.786  18.107  0.00  0.00    +0.000 A 
ATOM     34  C   UNL     1       5.812   5.218  18.537  0.00  0.00    +0.000 A 
ATOM     35  C   UNL     1       4.846   5.654  17.616  0.00  0.00    +0.000 A 
ATOM     36  C   UNL     1       5.177   5.653  16.243  0.00  0.00    +0.000 A 
BRANCH  31  38
ATOM     37  C   UNL     1       6.363   4.073  13.715  0.00  0.00    +0.000 C 
ATOM     38  O   UNL     1       6.857   5.144  14.509  0.00  0.00    +0.000 OA
ENDBRANCH  31  38
ENDBRANCH  30  35
ENDBRANCH  29  30
ENDBRANCH   1  29
TORSDOF 7
ENDMDL
MODEL 6
REMARK VINA RESULT:      -7.4      1.644      2.170
REMARK  Name = 
REMARK  10 active torsions:
REMARK  status: ('A' for Active; 'I' for Inactive)
REMARK    1  A    between atoms: C_1  and  O_2
REMARK    2  A    between atoms: O_2  and  C_3
REMARK    3  A    between atoms: C_7  and  C_8
REMARK    4  A    between atoms: C_8  and  S_9
REMARK    5  A    between atoms: S_9  and  C_10
REMARK    6  A    between atoms: C_15  and  C_16
REMARK    7  A    between atoms: C_22  and  C_23
REMARK    8  A    between atoms: N_25  and  C_26
REMARK    9  A    between atoms: C_31  and  C_32
REMARK   10  A    between atoms: C_33  and  C_34
REMARK                            x       y       z     vdW  Elec       q    Type
REMARK                         _______ _______ _______ _____ _____    ______ ____
ROOT
ATOM      1  C   UNL     1       1.932   8.560  18.576  0.00  0.00    +0.000 A 
ATOM      2  N   UNL     1       1.874   7.936  19.802  0.00  0.00    +0.000 NA
ATOM      3  C   UNL     1       1.229   8.797  20.545  0.00  0.00    +0.000 A 
ATOM      4  N   UNL     1       0.888   9.881  19.793  0.00  0.00    +0.000 N 
ATOM      5  N   UNL     1       1.309   9.743  18.512  0.00  0.00    +0.000 NA
ATOM      6  C   UNL     1       0.125  11.025  20.313  0.00  0.00    +0.000 C 
ATOM      7  C   UNL     1      -0.130  10.914  21.844  0.00  0.00    +0.000 C 
ATOM      8  C   UNL     1       0.240   9.796  22.521  0.00  0.00    +0.000 C 
ATOM      9  C   UNL     1      -0.024   9.486  23.973  0.00  0.00    +0.000 C 
ATOM     10  N   UNL     1       0.894   8.765  21.847  0.00  0.00    +0.000 N 
ATOM     11  H   UNL     1       1.090   7.911  22.365  0.00  0.00    +0.000 HD
ENDROOT
BRANCH   6  12
ATOM     12  C   UNL     1       0.805  12.313  19.883  0.00  0.00    +0.000 A 
ATOM     13  C   UNL     1       2.049  12.723  20.372  0.00  0.00    +0.000 A 
ATOM     14  C   UNL     1       2.602  13.922  19.931  0.00  0.00    +0.000 A 
ATOM     15  C   UNL     1       1.901  14.663  18.992  0.00  0.00    +0.000 A 
ATOM     16  N   UNL     1       0.714  14.291  18.476  0.00  0.00    +0.000 NA
ATOM     17  C   UNL     1       0.193  13.128  18.928  0.00  0.00    +0.000 A 
ENDBRANCH   6  12
BRANCH   7  18
ATOM     18  C   UNL     1      -0.965  12.065  22.335  0.00  0.00    +0.000 C 
ATOM     19  O   UNL     1      -0.409  12.829  23.120  0.00  0.00    +0.000 OA
ATOM     20  N   UNL     1      -2.296  12.120  21.955  0.00  0.00    +0.000 N 
ATOM     21  H   UNL     1      -2.645  11.388  21.353  0.00  0.00    +0.000 HD
BRANCH  20  22
ATOM     22  C   UNL     1      -3.271  13.058  22.423  0.00  0.00    +0.000 A 
ATOM     23  C   UNL     1      -4.195  12.717  23.426  0.00  0.00    +0.000 A 
ATOM     24  C   UNL     1      -5.205  13.597  23.836  0.00  0.00    +0.000 A 
ATOM     25  C   UNL     1      -5.299  14.856  23.272  0.00  0.00    +0.000 A 
ATOM     26  C   UNL     1      -4.371  15.240  22.308  0.00  0.00    +0.000 A 
ATOM     27  C   UNL     1      -3.357  14.354  21.863  0.00  0.00    +0.000 A 
ATOM     28  C   UNL     1      -2.397  14.898  20.840  0.00  0.00    +0.000 C 
ENDBRANCH  20  22
ENDBRANCH   7  18
BRANCH   1  29
ATOM     29  S   UNL     1       2.719   7.810  17.211  0.00  0.00    +0.000 S 
BRANCH  29  30
ATOM     30  C   UNL     1       3.208   6.203  17.900  0.00  0.00    +0.000 C 
BRANCH  30  35
ATOM     31  C   UNL     1       6.954   6.946  17.545  0.00  0.00    +0.000 A 
ATOM     32  C   UNL     1       7.506   5.805  18.130  0.00  0.00    +0.000 A 
ATOM     33  C   UNL     1       6.681   4.803  18.646  0.00  0.00    +0.000 A 
ATOM     34  C   UNL     1       5.296   4.935  18.572  0.00  0.00    +0.000 A 
ATOM     35  C   UNL     1       4.712   6.069  17.985  0.00  0.00    +0.000 A 
ATOM     36  C   UNL     1       5.561   7.079  17.480  0.00  0.00    +0.000 A 
BRANCH  31  38
ATOM     37  C   UNL     1       8.163   8.967  17.894  0.00  0.00    +0.000 C 
ATOM     38  O   UNL     1       7.872   7.842  17.075  0.00  0.00    +0.000 OA
ENDBRANCH  31  38
ENDBRANCH  30  35
ENDBRANCH  29  30
ENDBRANCH   1  29
TORSDOF 7
ENDMDL
MODEL 7
REMARK VINA RESULT:      -7.4      2.342      3.195
REMARK  Name = 
REMARK  10 active torsions:
REMARK  status: ('A' for Active; 'I' for Inactive)
REMARK    1  A    between atoms: C_1  and  O_2
REMARK    2  A    between atoms: O_2  and  C_3
REMARK    3  A    between atoms: C_7  and  C_8
REMARK    4  A    between atoms: C_8  and  S_9
REMARK    5  A    between atoms: S_9  and  C_10
REMARK    6  A    between atoms: C_15  and  C_16
REMARK    7  A    between atoms: C_22  and  C_23
REMARK    8  A    between atoms: N_25  and  C_26
REMARK    9  A    between atoms: C_31  and  C_32
REMARK   10  A    between atoms: C_33  and  C_34
REMARK                            x       y       z     vdW  Elec       q    Type
REMARK                         _______ _______ _______ _____ _____    ______ ____
ROOT
ATOM      1  C   UNL     1       2.120   8.309  18.577  0.00  0.00    +0.000 A 
ATOM      2  N   UNL     1       2.048   7.749  19.832  0.00  0.00    +0.000 NA
ATOM      3  C   UNL     1       1.362   8.631  20.513  0.00  0.00    +0.000 A 
ATOM      4  N   UNL     1       1.013   9.665  19.697  0.00  0.00    +0.000 N 
ATOM      5  N   UNL     1       1.469   9.470  18.436  0.00  0.00    +0.000 NA
ATOM      6  C   UNL     1       0.209  10.813  20.138  0.00  0.00    +0.000 C 
ATOM      7  C   UNL     1      -0.081  10.776  21.666  0.00  0.00    +0.000 C 
ATOM      8  C   UNL     1       0.300   9.705  22.410  0.00  0.00    +0.000 C 
ATOM      9  C   UNL     1       0.007   9.464  23.870  0.00  0.00    +0.000 C 
ATOM     10  N   UNL     1       0.996   8.658  21.807  0.00  0.00    +0.000 N 
ATOM     11  H   UNL     1       1.200   7.838  22.374  0.00  0.00    +0.000 HD
ENDROOT
BRANCH   6  12
ATOM     12  C   UNL     1       0.867  12.095  19.657  0.00  0.00    +0.000 A 
ATOM     13  C   UNL     1       2.112  12.535  20.112  0.00  0.00    +0.000 A 
ATOM     14  C   UNL     1       2.644  13.725  19.624  0.00  0.00    +0.000 A 
ATOM     15  C   UNL     1       1.921  14.427  18.674  0.00  0.00    +0.000 A 
ATOM     16  N   UNL     1       0.731  14.025  18.188  0.00  0.00    +0.000 NA
ATOM     17  C   UNL     1       0.231  12.871  18.686  0.00  0.00    +0.000 A 
ENDBRANCH   6  12
BRANCH   7  18
ATOM     18  C   UNL     1      -0.957  11.928  22.076  0.00  0.00    +0.000 C 
ATOM     19  O   UNL     1      -0.375  12.886  22.580  0.00  0.00    +0.000 OA
ATOM     20  N   UNL     1      -2.329  11.788  21.951  0.00  0.00    +0.000 N 
ATOM     21  H   UNL     1      -2.682  10.917  21.577  0.00  0.00    +0.000 HD
BRANCH  20  22
ATOM     22  C   UNL     1      -3.320  12.716  22.406  0.00  0.00    +0.000 A 
ATOM     23  C   UNL     1      -3.328  13.190  23.729  0.00  0.00    +0.000 A 
ATOM     24  C   UNL     1      -4.337  14.035  24.209  0.00  0.00    +0.000 A 
ATOM     25  C   UNL     1      -5.352  14.453  23.367  0.00  0.00    +0.000 A 
ATOM     26  C   UNL     1      -5.346  14.035  22.038  0.00  0.00    +0.000 A 
ATOM     27  C   UNL     1      -4.347  13.160  21.541  0.00  0.00    +0.000 A 
ATOM     28  C   UNL     1      -4.434  12.809  20.081  0.00  0.00    +0.000 C 
ENDBRANCH  20  22
ENDBRANCH   7  18
BRANCH   1  29
ATOM     29  S   UNL     1       2.960   7.510  17.273  0.00  0.00    +0.000 S 
BRANCH  29  30
ATOM     30  C   UNL     1       4.122   6.447  18.175  0.00  0.00    +0.000 C 
BRANCH  30  35
ATOM     31  C   UNL     1       2.935   3.191  19.819  0.00  0.00    +0.000 A 
ATOM     32  C   UNL     1       2.562   2.450  18.697  0.00  0.00    +0.000 A 
ATOM     33  C   UNL     1       2.681   2.994  17.416  0.00  0.00    +0.000 A 
ATOM     34  C   UNL     1       3.183   4.283  17.251  0.00  0.00    +0.000 A 
ATOM     35  C   UNL     1       3.571   5.051  18.360  0.00  0.00    +0.000 A 
ATOM     36  C   UNL     1       3.431   4.491  19.649  0.00  0.00    +0.000 A 
BRANCH  31  38
ATOM     37  C   UNL     1       1.527   2.694  21.673  0.00  0.00    +0.000 C 
ATOM     38  O   UNL     1       2.774   2.538  21.008  0.00  0.00    +0.000 OA
ENDBRANCH  31  38
ENDBRANCH  30  35
ENDBRANCH  29  30
ENDBRANCH   1  29
TORSDOF 7
ENDMDL
MODEL 8
REMARK VINA RESULT:      -7.4      2.688      3.634
REMARK  Name = 
REMARK  10 active torsions:
REMARK  status: ('A' for Active; 'I' for Inactive)
REMARK    1  A    between atoms: C_1  and  O_2
REMARK    2  A    between atoms: O_2  and  C_3
REMARK    3  A    between atoms: C_7  and  C_8
REMARK    4  A    between atoms: C_8  and  S_9
REMARK    5  A    between atoms: S_9  and  C_10
REMARK    6  A    between atoms: C_15  and  C_16
REMARK    7  A    between atoms: C_22  and  C_23
REMARK    8  A    between atoms: N_25  and  C_26
REMARK    9  A    between atoms: C_31  and  C_32
REMARK   10  A    between atoms: C_33  and  C_34
REMARK                            x       y       z     vdW  Elec       q    Type
REMARK                         _______ _______ _______ _____ _____    ______ ____
ROOT
ATOM      1  C   UNL     1       1.396   9.521  18.825  0.00  0.00    +0.000 A 
ATOM      2  N   UNL     1       0.677   9.127  19.930  0.00  0.00    +0.000 NA
ATOM      3  C   UNL     1       0.207  10.254  20.399  0.00  0.00    +0.000 A 
ATOM      4  N   UNL     1       0.604  11.281  19.596  0.00  0.00    +0.000 N 
ATOM      5  N   UNL     1       1.352  10.832  18.558  0.00  0.00    +0.000 NA
ATOM      6  C   UNL     1       0.223  12.682  19.820  0.00  0.00    +0.000 C 
ATOM      7  C   UNL     1      -0.568  12.872  21.145  0.00  0.00    +0.000 C 
ATOM      8  C   UNL     1      -0.928  11.794  21.890  0.00  0.00    +0.000 C 
ATOM      9  C   UNL     1      -1.779  11.793  23.135  0.00  0.00    +0.000 C 
ATOM     10  N   UNL     1      -0.542  10.516  21.484  0.00  0.00    +0.000 N 
ATOM     11  H   UNL     1      -0.890   9.724  22.021  0.00  0.00    +0.000 HD
ENDROOT
BRANCH   6  12
ATOM     12  C   UNL     1       1.457  13.559  19.697  0.00  0.00    +0.000 A 
ATOM     13  C   UNL     1       2.469  13.598  20.660  0.00  0.00    +0.000 A 
ATOM     14  C   UNL     1       3.567  14.434  20.475  0.00  0.00    +0.000 A 
ATOM     15  C   UNL     1       3.629  15.188  19.314  0.00  0.00    +0.000 A 
ATOM     16  N   UNL     1       2.691  15.159  18.349  0.00  0.00    +0.000 NA
ATOM     17  C   UNL     1       1.629  14.348  18.558  0.00  0.00    +0.000 A 
ENDBRANCH   6  12
BRANCH   7  18
ATOM     18  C   UNL     1      -0.998  14.303  21.316  0.00  0.00    +0.000 C 
ATOM     19  O   UNL     1      -0.569  14.872  22.317  0.00  0.00    +0.000 OA
ATOM     20  N   UNL     1      -1.903  14.830  20.410  0.00  0.00    +0.000 N 
ATOM     21  H   UNL     1      -2.226  14.230  19.664  0.00  0.00    +0.000 HD
BRANCH  20  22
ATOM     22  C   UNL     1      -2.521  16.120  20.484  0.00  0.00    +0.000 A 
ATOM     23  C   UNL     1      -3.624  16.357  21.323  0.00  0.00    +0.000 A 
ATOM     24  C   UNL     1      -4.288  17.590  21.345  0.00  0.00    +0.000 A 
ATOM     25  C   UNL     1      -3.848  18.631  20.548  0.00  0.00    +0.000 A 
ATOM     26  C   UNL     1      -2.731  18.440  19.739  0.00  0.00    +0.000 A 
ATOM     27  C   UNL     1      -2.060  17.191  19.684  0.00  0.00    +0.000 A 
ATOM     28  C   UNL     1      -0.849  17.122  18.796  0.00  0.00    +0.000 C 
ENDBRANCH  20  22
ENDBRANCH   7  18
BRANCH   1  29
ATOM     29  S   UNL     1       2.245   8.364  17.833  0.00  0.00    +0.000 S 
BRANCH  29  30
ATOM     30  C   UNL     1       2.647   7.066  19.036  0.00  0.00    +0.000 C 
BRANCH  30  35
ATOM     31  C   UNL     1       2.515   3.414  17.872  0.00  0.00    +0.000 A 
ATOM     32  C   UNL     1       3.672   3.343  17.095  0.00  0.00    +0.000 A 
ATOM     33  C   UNL     1       4.490   4.464  16.936  0.00  0.00    +0.000 A 
ATOM     34  C   UNL     1       4.156   5.663  17.562  0.00  0.00    +0.000 A 
ATOM     35  C   UNL     1       3.001   5.764  18.353  0.00  0.00    +0.000 A 
ATOM     36  C   UNL     1       2.178   4.624  18.492  0.00  0.00    +0.000 A 
BRANCH  31  38
ATOM     37  C   UNL     1       0.680   2.222  18.809  0.00  0.00    +0.000 C 
ATOM     38  O   UNL     1       1.812   2.245  17.949  0.00  0.00    +0.000 OA
ENDBRANCH  31  38
ENDBRANCH  30  35
ENDBRANCH  29  30
ENDBRANCH   1  29
TORSDOF 7
ENDMDL
MODEL 9
REMARK VINA RESULT:      -7.4      1.827      2.813
REMARK  Name = 
REMARK  10 active torsions:
REMARK  status: ('A' for Active; 'I' for Inactive)
REMARK    1  A    between atoms: C_1  and  O_2
REMARK    2  A    between atoms: O_2  and  C_3
REMARK    3  A    between atoms: C_7  and  C_8
REMARK    4  A    between atoms: C_8  and  S_9
REMARK    5  A    between atoms: S_9  and  C_10
REMARK    6  A    between atoms: C_15  and  C_16
REMARK    7  A    between atoms: C_22  and  C_23
REMARK    8  A    between atoms: N_25  and  C_26
REMARK    9  A    between atoms: C_31  and  C_32
REMARK   10  A    between atoms: C_33  and  C_34
REMARK                            x       y       z     vdW  Elec       q    Type
REMARK                         _______ _______ _______ _____ _____    ______ ____
ROOT
ATOM      1  C   UNL     1       1.937   8.831  18.441  0.00  0.00    +0.000 A 
ATOM      2  N   UNL     1       1.806   8.179  19.646  0.00  0.00    +0.000 NA
ATOM      3  C   UNL     1       1.074   9.002  20.352  0.00  0.00    +0.000 A 
ATOM      4  N   UNL     1       0.755  10.090  19.597  0.00  0.00    +0.000 N 
ATOM      5  N   UNL     1       1.279   9.993  18.351  0.00  0.00    +0.000 NA
ATOM      6  C   UNL     1      -0.086  11.195  20.077  0.00  0.00    +0.000 C 
ATOM      7  C   UNL     1      -0.455  11.044  21.580  0.00  0.00    +0.000 C 
ATOM      8  C   UNL     1      -0.100   9.924  22.264  0.00  0.00    +0.000 C 
ATOM      9  C   UNL     1      -0.466   9.573  23.684  0.00  0.00    +0.000 C 
ATOM     10  N   UNL     1       0.641   8.931  21.623  0.00  0.00    +0.000 N 
ATOM     11  H   UNL     1       0.825   8.073  22.139  0.00  0.00    +0.000 HD
ENDROOT
BRANCH   6  12
ATOM     12  C   UNL     1       0.579  12.515  19.726  0.00  0.00    +0.000 A 
ATOM     13  C   UNL     1       1.852  12.876  20.179  0.00  0.00    +0.000 A 
ATOM     14  C   UNL     1       2.389  14.108  19.816  0.00  0.00    +0.000 A 
ATOM     15  C   UNL     1       1.643  14.932  18.988  0.00  0.00    +0.000 A 
ATOM     16  N   UNL     1       0.427  14.611  18.508  0.00  0.00    +0.000 NA
ATOM     17  C   UNL     1      -0.078  13.414  18.884  0.00  0.00    +0.000 A 
ENDBRANCH   6  12
BRANCH   7  18
ATOM     18  C   UNL     1      -1.366  12.154  22.026  0.00  0.00    +0.000 C 
ATOM     19  O   UNL     1      -2.406  12.280  21.385  0.00  0.00    +0.000 OA
ATOM     20  N   UNL     1      -0.930  12.996  23.036  0.00  0.00    +0.000 N 
ATOM     21  H   UNL     1      -0.020  12.818  23.438  0.00  0.00    +0.000 HD
BRANCH  20  22
ATOM     22  C   UNL     1      -1.595  14.176  23.501  0.00  0.00    +0.000 A 
ATOM     23  C   UNL     1      -2.731  14.100  24.326  0.00  0.00    +0.000 A 
ATOM     24  C   UNL     1      -3.439  15.242  24.721  0.00  0.00    +0.000 A 
ATOM     25  C   UNL     1      -3.010  16.496  24.326  0.00  0.00    +0.000 A 
ATOM     26  C   UNL     1      -1.862  16.606  23.546  0.00  0.00    +0.000 A 
ATOM     27  C   UNL     1      -1.147  15.460  23.115  0.00  0.00    +0.000 A 
ATOM     28  C   UNL     1       0.094  15.713  22.303  0.00  0.00    +0.000 C 
ENDBRANCH  20  22
ENDBRANCH   7  18
BRANCH   1  29
ATOM     29  S   UNL     1       2.854   8.138  17.128  0.00  0.00    +0.000 S 
BRANCH  29  30
ATOM     30  C   UNL     1       3.994   7.036  18.012  0.00  0.00    +0.000 C 
BRANCH  30  35
ATOM     31  C   UNL     1       2.130   3.689  17.822  0.00  0.00    +0.000 A 
ATOM     32  C   UNL     1       3.111   2.872  17.260  0.00  0.00    +0.000 A 
ATOM     33  C   UNL     1       4.366   3.393  16.932  0.00  0.00    +0.000 A 
ATOM     34  C   UNL     1       4.646   4.735  17.175  0.00  0.00    +0.000 A 
ATOM     35  C   UNL     1       3.681   5.581  17.744  0.00  0.00    +0.000 A 
ATOM     36  C   UNL     1       2.413   5.041  18.057  0.00  0.00    +0.000 A 
BRANCH  31  38
ATOM     37  C   UNL     1       0.711   2.693  19.455  0.00  0.00    +0.000 C 
ATOM     38  O   UNL     1       0.954   3.052  18.100  0.00  0.00    +0.000 OA
ENDBRANCH  31  38
ENDBRANCH  30  35
ENDBRANCH  29  30
ENDBRANCH   1  29
TORSDOF 7
ENDMDL
