MODEL 1
REMARK VINA RESULT:      -7.8      0.000      0.000
REMARK  Name = 
REMARK  4 active torsions:
REMARK  status: ('A' for Active; 'I' for Inactive)
REMARK    1  A    between atoms: C_2  and  C_3
REMARK    2  A    between atoms: C_6  and  C_7
REMARK    3  A    between atoms: C_12  and  O_13
REMARK    4  A    between atoms: C_15  and  C_16
REMARK                            x       y       z     vdW  Elec       q    Type
REMARK                         _______ _______ _______ _____ _____    ______ ____
ROOT
ATOM      1  C   UNL     1       6.111   4.541  16.337  0.00  0.00    +0.000 A 
ATOM      2  C   UNL     1       4.950   3.940  15.821  0.00  0.00    +0.000 A 
ATOM      3  C   UNL     1       3.967   3.436  16.674  0.00  0.00    +0.000 A 
ATOM      4  C   UNL     1       4.123   3.529  18.060  0.00  0.00    +0.000 A 
ATOM      5  C   UNL     1       5.297   4.106  18.569  0.00  0.00    +0.000 A 
ATOM      6  C   UNL     1       6.302   4.615  17.726  0.00  0.00    +0.000 A 
ENDROOT
BRANCH   4   7
ATOM      7  C   UNL     1       3.013   3.047  18.987  0.00  0.00    +0.000 C 
ATOM      8  C   UNL     1       3.544   2.838  20.416  0.00  0.00    +0.000 C 
ATOM      9  C   UNL     1       2.440   2.430  21.387  0.00  0.00    +0.000 C 
ATOM     10  C   UNL     1       1.271   3.409  21.356  0.00  0.00    +0.000 C 
ATOM     11  C   UNL     1       0.716   3.564  19.946  0.00  0.00    +0.000 C 
ATOM     12  C   UNL     1       1.801   4.011  18.968  0.00  0.00    +0.000 C 
BRANCH  12  13
ATOM     13  O   UNL     1       1.225   4.089  17.662  0.00  0.00    +0.000 OA
ATOM     14  H   UNL     1       0.692   3.290  17.513  0.00  0.00    +0.000 HD
ENDBRANCH  12  13
ENDBRANCH   4   7
BRANCH   6  15
ATOM     15  C   UNL     1       7.515   5.252  18.366  0.00  0.00    +0.000 C 
ATOM     16  F   UNL     1       7.874   6.443  17.831  0.00  0.00    +0.000 F 
ATOM     17  F   UNL     1       7.326   5.482  19.695  0.00  0.00    +0.000 F 
ATOM     18  F   UNL     1       8.624   4.463  18.283  0.00  0.00    +0.000 F 
ENDBRANCH   6  15
BRANCH   1  20
ATOM     19  N   UNL     1       7.775   5.522  14.599  0.00  0.00    +0.000 NA
ATOM     20  C   UNL     1       7.044   5.079  15.388  0.00  0.00    +0.000 C 
ENDBRANCH   1  20
TORSDOF 4
ENDMDL
MODEL 2
REMARK VINA RESULT:      -7.7      1.545      2.059
REMARK  Name = 
REMARK  4 active torsions:
REMARK  status: ('A' for Active; 'I' for Inactive)
REMARK    1  A    between atoms: C_2  and  C_3
REMARK    2  A    between atoms: C_6  and  C_7
REMARK    3  A    between atoms: C_12  and  O_13
REMARK    4  A    between atoms: C_15  and  C_16
REMARK                            x       y       z     vdW  Elec       q    Type
REMARK                         _______ _______ _______ _____ _____    ______ ____
ROOT
ATOM      1  C   UNL     1       6.166   4.944  16.280  0.00  0.00    +0.000 A 
ATOM      2  C   UNL     1       5.221   3.903  16.260  0.00  0.00    +0.000 A 
ATOM      3  C   UNL     1       4.406   3.657  17.365  0.00  0.00    +0.000 A 
ATOM      4  C   UNL     1       4.514   4.452  18.511  0.00  0.00    +0.000 A 
ATOM      5  C   UNL     1       5.478   5.472  18.534  0.00  0.00    +0.000 A 
ATOM      6  C   UNL     1       6.314   5.732  17.432  0.00  0.00    +0.000 A 
ENDROOT
BRANCH   4   7
ATOM      7  C   UNL     1       3.570   4.230  19.686  0.00  0.00    +0.000 C 
ATOM      8  C   UNL     1       2.161   4.760  19.366  0.00  0.00    +0.000 C 
ATOM      9  C   UNL     1       1.171   4.483  20.493  0.00  0.00    +0.000 C 
ATOM     10  C   UNL     1       1.147   3.006  20.873  0.00  0.00    +0.000 C 
ATOM     11  C   UNL     1       2.537   2.507  21.244  0.00  0.00    +0.000 C 
ATOM     12  C   UNL     1       3.533   2.741  20.109  0.00  0.00    +0.000 C 
BRANCH  12  13
ATOM     13  O   UNL     1       4.820   2.295  20.542  0.00  0.00    +0.000 OA
ATOM     14  H   UNL     1       5.267   3.033  20.989  0.00  0.00    +0.000 HD
ENDBRANCH  12  13
ENDBRANCH   4   7
BRANCH   6  15
ATOM     15  C   UNL     1       7.297   6.876  17.537  0.00  0.00    +0.000 C 
ATOM     16  F   UNL     1       8.081   7.047  16.446  0.00  0.00    +0.000 F 
ATOM     17  F   UNL     1       6.670   8.069  17.735  0.00  0.00    +0.000 F 
ATOM     18  F   UNL     1       8.154   6.732  18.587  0.00  0.00    +0.000 F 
ENDBRANCH   6  15
BRANCH   1  20
ATOM     19  N   UNL     1       7.529   5.364  14.109  0.00  0.00    +0.000 NA
ATOM     20  C   UNL     1       6.925   5.158  15.081  0.00  0.00    +0.000 C 
ENDBRANCH   1  20
TORSDOF 4
ENDMDL
MODEL 3
REMARK VINA RESULT:      -7.7      1.107      1.228
REMARK  Name = 
REMARK  4 active torsions:
REMARK  status: ('A' for Active; 'I' for Inactive)
REMARK    1  A    between atoms: C_2  and  C_3
REMARK    2  A    between atoms: C_6  and  C_7
REMARK    3  A    between atoms: C_12  and  O_13
REMARK    4  A    between atoms: C_15  and  C_16
REMARK                            x       y       z     vdW  Elec       q    Type
REMARK                         _______ _______ _______ _____ _____    ______ ____
ROOT
ATOM      1  C   UNL     1       6.032   4.724  16.250  0.00  0.00    +0.000 A 
ATOM      2  C   UNL     1       4.783   4.325  15.743  0.00  0.00    +0.000 A 
ATOM      3  C   UNL     1       3.719   4.047  16.601  0.00  0.00    +0.000 A 
ATOM      4  C   UNL     1       3.880   4.168  17.984  0.00  0.00    +0.000 A 
ATOM      5  C   UNL     1       5.137   4.540  18.486  0.00  0.00    +0.000 A 
ATOM      6  C   UNL     1       6.225   4.820  17.638  0.00  0.00    +0.000 A 
ENDROOT
BRANCH   4   7
ATOM      7  C   UNL     1       2.695   3.937  18.914  0.00  0.00    +0.000 C 
ATOM      8  C   UNL     1       2.431   2.433  19.105  0.00  0.00    +0.000 C 
ATOM      9  C   UNL     1       1.300   2.167  20.093  0.00  0.00    +0.000 C 
ATOM     10  C   UNL     1       1.534   2.874  21.424  0.00  0.00    +0.000 C 
ATOM     11  C   UNL     1       1.735   4.371  21.228  0.00  0.00    +0.000 C 
ATOM     12  C   UNL     1       2.892   4.655  20.272  0.00  0.00    +0.000 C 
BRANCH  12  13
ATOM     13  O   UNL     1       2.993   6.070  20.097  0.00  0.00    +0.000 OA
ATOM     14  H   UNL     1       3.512   6.435  20.833  0.00  0.00    +0.000 HD
ENDBRANCH  12  13
ENDBRANCH   4   7
BRANCH   6  15
ATOM     15  C   UNL     1       7.529   5.249  18.269  0.00  0.00    +0.000 C 
ATOM     16  F   UNL     1       8.024   6.419  17.799  0.00  0.00    +0.000 F 
ATOM     17  F   UNL     1       7.414   5.408  19.617  0.00  0.00    +0.000 F 
ATOM     18  F   UNL     1       8.522   4.332  18.090  0.00  0.00    +0.000 F 
ENDBRANCH   6  15
BRANCH   1  20
ATOM     19  N   UNL     1       7.859   5.308  14.498  0.00  0.00    +0.000 NA
ATOM     20  C   UNL     1       7.054   5.041  15.294  0.00  0.00    +0.000 C 
ENDBRANCH   1  20
TORSDOF 4
ENDMDL
MODEL 4
REMARK VINA RESULT:      -7.4      1.113      1.595
REMARK  Name = 
REMARK  4 active torsions:
REMARK  status: ('A' for Active; 'I' for Inactive)
REMARK    1  A    between atoms: C_2  and  C_3
REMARK    2  A    between atoms: C_6  and  C_7
REMARK    3  A    between atoms: C_12  and  O_13
REMARK    4  A    between atoms: C_15  and  C_16
REMARK                            x       y       z     vdW  Elec       q    Type
REMARK                         _______ _______ _______ _____ _____    ______ ____
ROOT
ATOM      1  C   UNL     1       6.133   4.665  16.387  0.00  0.00    +0.000 A 
ATOM      2  C   UNL     1       4.888   4.185  15.948  0.00  0.00    +0.000 A 
ATOM      3  C   UNL     1       3.913   3.786  16.862  0.00  0.00    +0.000 A 
ATOM      4  C   UNL     1       4.162   3.865  18.236  0.00  0.00    +0.000 A 
ATOM      5  C   UNL     1       5.418   4.319  18.668  0.00  0.00    +0.000 A 
ATOM      6  C   UNL     1       6.416   4.722  17.761  0.00  0.00    +0.000 A 
ENDROOT
BRANCH   4   7
ATOM      7  C   UNL     1       3.068   3.501  19.232  0.00  0.00    +0.000 C 
ATOM      8  C   UNL     1       2.226   4.735  19.599  0.00  0.00    +0.000 C 
ATOM      9  C   UNL     1       1.072   4.389  20.535  0.00  0.00    +0.000 C 
ATOM     10  C   UNL     1       0.210   3.261  19.977  0.00  0.00    +0.000 C 
ATOM     11  C   UNL     1       1.045   2.025  19.673  0.00  0.00    +0.000 C 
ATOM     12  C   UNL     1       2.182   2.346  18.704  0.00  0.00    +0.000 C 
BRANCH  12  13
ATOM     13  O   UNL     1       2.949   1.157  18.501  0.00  0.00    +0.000 OA
ATOM     14  H   UNL     1       2.342   0.434  18.272  0.00  0.00    +0.000 HD
ENDBRANCH  12  13
ENDBRANCH   4   7
BRANCH   6  15
ATOM     15  C   UNL     1       7.725   5.232  18.321  0.00  0.00    +0.000 C 
ATOM     16  F   UNL     1       8.773   4.390  18.159  0.00  0.00    +0.000 F 
ATOM     17  F   UNL     1       8.099   6.408  17.747  0.00  0.00    +0.000 F 
ATOM     18  F   UNL     1       7.657   5.481  19.660  0.00  0.00    +0.000 F 
ENDBRANCH   6  15
BRANCH   1  20
ATOM     19  N   UNL     1       7.813   5.483  14.581  0.00  0.00    +0.000 NA
ATOM     20  C   UNL     1       7.056   5.103  15.379  0.00  0.00    +0.000 C 
ENDBRANCH   1  20
TORSDOF 4
ENDMDL
MODEL 5
REMARK VINA RESULT:      -7.4      0.861      1.283
REMARK  Name = 
REMARK  4 active torsions:
REMARK  status: ('A' for Active; 'I' for Inactive)
REMARK    1  A    between atoms: C_2  and  C_3
REMARK    2  A    between atoms: C_6  and  C_7
REMARK    3  A    between atoms: C_12  and  O_13
REMARK    4  A    between atoms: C_15  and  C_16
REMARK                            x       y       z     vdW  Elec       q    Type
REMARK                         _______ _______ _______ _____ _____    ______ ____
ROOT
ATOM      1  C   UNL     1       6.169   4.616  16.371  0.00  0.00    +0.000 A 
ATOM      2  C   UNL     1       4.960   4.075  15.899  0.00  0.00    +0.000 A 
ATOM      3  C   UNL     1       3.991   3.610  16.787  0.00  0.00    +0.000 A 
ATOM      4  C   UNL     1       4.207   3.681  18.166  0.00  0.00    +0.000 A 
ATOM      5  C   UNL     1       5.427   4.196  18.631  0.00  0.00    +0.000 A 
ATOM      6  C   UNL     1       6.420   4.666  17.751  0.00  0.00    +0.000 A 
ENDROOT
BRANCH   4   7
ATOM      7  C   UNL     1       3.114   3.243  19.134  0.00  0.00    +0.000 C 
ATOM      8  C   UNL     1       2.844   4.332  20.187  0.00  0.00    +0.000 C 
ATOM      9  C   UNL     1       1.700   3.957  21.124  0.00  0.00    +0.000 C 
ATOM     10  C   UNL     1       0.436   3.588  20.354  0.00  0.00    +0.000 C 
ATOM     11  C   UNL     1       0.703   2.469  19.357  0.00  0.00    +0.000 C 
ATOM     12  C   UNL     1       1.819   2.845  18.384  0.00  0.00    +0.000 C 
BRANCH  12  13
ATOM     13  O   UNL     1       2.048   1.736  17.512  0.00  0.00    +0.000 OA
ATOM     14  H   UNL     1       1.860   2.017  16.601  0.00  0.00    +0.000 HD
ENDBRANCH  12  13
ENDBRANCH   4   7
BRANCH   6  15
ATOM     15  C   UNL     1       7.687   5.237  18.347  0.00  0.00    +0.000 C 
ATOM     16  F   UNL     1       7.611   5.516  19.670  0.00  0.00    +0.000 F 
ATOM     17  F   UNL     1       8.743   4.389  18.205  0.00  0.00    +0.000 F 
ATOM     18  F   UNL     1       8.067   6.401  17.747  0.00  0.00    +0.000 F 
ENDBRANCH   6  15
BRANCH   1  20
ATOM     19  N   UNL     1       7.805   5.539  14.577  0.00  0.00    +0.000 NA
ATOM     20  C   UNL     1       7.087   5.119  15.389  0.00  0.00    +0.000 C 
ENDBRANCH   1  20
TORSDOF 4
ENDMDL
MODEL 6
REMARK VINA RESULT:      -7.3      1.290      1.907
REMARK  Name = 
REMARK  4 active torsions:
REMARK  status: ('A' for Active; 'I' for Inactive)
REMARK    1  A    between atoms: C_2  and  C_3
REMARK    2  A    between atoms: C_6  and  C_7
REMARK    3  A    between atoms: C_12  and  O_13
REMARK    4  A    between atoms: C_15  and  C_16
REMARK                            x       y       z     vdW  Elec       q    Type
REMARK                         _______ _______ _______ _____ _____    ______ ____
ROOT
ATOM      1  C   UNL     1       6.000   4.718  16.588  0.00  0.00    +0.000 A 
ATOM      2  C   UNL     1       4.686   4.304  16.312  0.00  0.00    +0.000 A 
ATOM      3  C   UNL     1       3.780   4.066  17.346  0.00  0.00    +0.000 A 
ATOM      4  C   UNL     1       4.169   4.242  18.677  0.00  0.00    +0.000 A 
ATOM      5  C   UNL     1       5.491   4.630  18.947  0.00  0.00    +0.000 A 
ATOM      6  C   UNL     1       6.421   4.870  17.919  0.00  0.00    +0.000 A 
ENDROOT
BRANCH   4   7
ATOM      7  C   UNL     1       3.156   4.056  19.800  0.00  0.00    +0.000 C 
ATOM      8  C   UNL     1       1.765   4.557  19.374  0.00  0.00    +0.000 C 
ATOM      9  C   UNL     1       0.709   4.313  20.447  0.00  0.00    +0.000 C 
ATOM     10  C   UNL     1       0.674   2.851  20.883  0.00  0.00    +0.000 C 
ATOM     11  C   UNL     1       2.043   2.382  21.358  0.00  0.00    +0.000 C 
ATOM     12  C   UNL     1       3.105   2.583  20.278  0.00  0.00    +0.000 C 
BRANCH  12  13
ATOM     13  O   UNL     1       4.367   2.169  20.806  0.00  0.00    +0.000 OA
ATOM     14  H   UNL     1       4.207   1.621  21.592  0.00  0.00    +0.000 HD
ENDBRANCH  12  13
ENDBRANCH   4   7
BRANCH   6  15
ATOM     15  C   UNL     1       7.812   5.319  18.306  0.00  0.00    +0.000 C 
ATOM     16  F   UNL     1       7.972   5.578  19.626  0.00  0.00    +0.000 F 
ATOM     17  F   UNL     1       8.753   4.386  17.993  0.00  0.00    +0.000 F 
ATOM     18  F   UNL     1       8.192   6.457  17.660  0.00  0.00    +0.000 F 
ENDBRANCH   6  15
BRANCH   1  20
ATOM     19  N   UNL     1       7.561   5.217  14.571  0.00  0.00    +0.000 NA
ATOM     20  C   UNL     1       6.848   4.991  15.463  0.00  0.00    +0.000 C 
ENDBRANCH   1  20
TORSDOF 4
ENDMDL
MODEL 7
REMARK VINA RESULT:      -7.1      0.898      1.144
REMARK  Name = 
REMARK  4 active torsions:
REMARK  status: ('A' for Active; 'I' for Inactive)
REMARK    1  A    between atoms: C_2  and  C_3
REMARK    2  A    between atoms: C_6  and  C_7
REMARK    3  A    between atoms: C_12  and  O_13
REMARK    4  A    between atoms: C_15  and  C_16
REMARK                            x       y       z     vdW  Elec       q    Type
REMARK                         _______ _______ _______ _____ _____    ______ ____
ROOT
ATOM      1  C   UNL     1       6.096   4.680  15.955  0.00  0.00    +0.000 A 
ATOM      2  C   UNL     1       5.307   3.556  15.654  0.00  0.00    +0.000 A 
ATOM      3  C   UNL     1       4.377   3.069  16.573  0.00  0.00    +0.000 A 
ATOM      4  C   UNL     1       4.213   3.699  17.810  0.00  0.00    +0.000 A 
ATOM      5  C   UNL     1       5.024   4.804  18.116  0.00  0.00    +0.000 A 
ATOM      6  C   UNL     1       5.971   5.308  17.205  0.00  0.00    +0.000 A 
ENDROOT
BRANCH   4   7
ATOM      7  C   UNL     1       3.144   3.211  18.780  0.00  0.00    +0.000 C 
ATOM      8  C   UNL     1       3.719   3.054  20.198  0.00  0.00    +0.000 C 
ATOM      9  C   UNL     1       2.655   2.642  21.211  0.00  0.00    +0.000 C 
ATOM     10  C   UNL     1       1.457   3.586  21.187  0.00  0.00    +0.000 C 
ATOM     11  C   UNL     1       0.860   3.688  19.790  0.00  0.00    +0.000 C 
ATOM     12  C   UNL     1       1.904   4.140  18.770  0.00  0.00    +0.000 C 
BRANCH  12  13
ATOM     13  O   UNL     1       1.290   4.167  17.480  0.00  0.00    +0.000 OA
ATOM     14  H   UNL     1       0.508   3.592  17.499  0.00  0.00    +0.000 HD
ENDBRANCH  12  13
ENDBRANCH   4   7
BRANCH   6  15
ATOM     15  C   UNL     1       6.772   6.524  17.610  0.00  0.00    +0.000 C 
ATOM     16  F   UNL     1       7.879   6.744  16.861  0.00  0.00    +0.000 F 
ATOM     17  F   UNL     1       6.036   7.667  17.529  0.00  0.00    +0.000 F 
ATOM     18  F   UNL     1       7.208   6.457  18.899  0.00  0.00    +0.000 F 
ENDBRANCH   6  15
BRANCH   1  20
ATOM     19  N   UNL     1       7.717   5.490  14.093  0.00  0.00    +0.000 NA
ATOM     20  C   UNL     1       6.988   5.144  14.932  0.00  0.00    +0.000 C 
ENDBRANCH   1  20
TORSDOF 4
ENDMDL
MODEL 8
REMARK VINA RESULT:      -7.0      4.653      5.937
REMARK  Name = 
REMARK  4 active torsions:
REMARK  status: ('A' for Active; 'I' for Inactive)
REMARK    1  A    between atoms: C_2  and  C_3
REMARK    2  A    between atoms: C_6  and  C_7
REMARK    3  A    between atoms: C_12  and  O_13
REMARK    4  A    between atoms: C_15  and  C_16
REMARK                            x       y       z     vdW  Elec       q    Type
REMARK                         _______ _______ _______ _____ _____    ______ ____
ROOT
ATOM      1  C   UNL     1       3.831   3.786  19.718  0.00  0.00    +0.000 A 
ATOM      2  C   UNL     1       4.691   4.812  19.289  0.00  0.00    +0.000 A 
ATOM      3  C   UNL     1       4.224   6.116  19.130  0.00  0.00    +0.000 A 
ATOM      4  C   UNL     1       2.888   6.424  19.404  0.00  0.00    +0.000 A 
ATOM      5  C   UNL     1       2.028   5.390  19.806  0.00  0.00    +0.000 A 
ATOM      6  C   UNL     1       2.478   4.067  19.966  0.00  0.00    +0.000 A 
ENDROOT
BRANCH   4   7
ATOM      7  C   UNL     1       2.400   7.865  19.304  0.00  0.00    +0.000 C 
ATOM      8  C   UNL     1       1.883   8.172  17.887  0.00  0.00    +0.000 C 
ATOM      9  C   UNL     1       1.314   9.583  17.774  0.00  0.00    +0.000 C 
ATOM     10  C   UNL     1       0.252   9.850  18.835  0.00  0.00    +0.000 C 
ATOM     11  C   UNL     1       0.792   9.599  20.236  0.00  0.00    +0.000 C 
ATOM     12  C   UNL     1       1.329   8.176  20.378  0.00  0.00    +0.000 C 
BRANCH  12  13
ATOM     13  O   UNL     1       1.862   8.025  21.696  0.00  0.00    +0.000 OA
ATOM     14  H   UNL     1       1.129   7.827  22.303  0.00  0.00    +0.000 HD
ENDBRANCH  12  13
ENDBRANCH   4   7
BRANCH   6  15
ATOM     15  C   UNL     1       1.485   3.029  20.439  0.00  0.00    +0.000 C 
ATOM     16  F   UNL     1       1.677   2.604  21.710  0.00  0.00    +0.000 F 
ATOM     17  F   UNL     1       0.205   3.490  20.390  0.00  0.00    +0.000 F 
ATOM     18  F   UNL     1       1.501   1.904  19.669  0.00  0.00    +0.000 F 
ENDBRANCH   6  15
BRANCH   1  20
ATOM     19  N   UNL     1       4.901   1.445  20.070  0.00  0.00    +0.000 NA
ATOM     20  C   UNL     1       4.408   2.486  19.905  0.00  0.00    +0.000 C 
ENDBRANCH   1  20
TORSDOF 4
ENDMDL
MODEL 9
REMARK VINA RESULT:      -7.0      3.790      6.422
REMARK  Name = 
REMARK  4 active torsions:
REMARK  status: ('A' for Active; 'I' for Inactive)
REMARK    1  A    between atoms: C_2  and  C_3
REMARK    2  A    between atoms: C_6  and  C_7
REMARK    3  A    between atoms: C_12  and  O_13
REMARK    4  A    between atoms: C_15  and  C_16
REMARK                            x       y       z     vdW  Elec       q    Type
REMARK                         _______ _______ _______ _____ _____    ______ ____
ROOT
ATOM      1  C   UNL     1       3.415   4.802  18.112  0.00  0.00    +0.000 A 
ATOM      2  C   UNL     1       3.986   5.863  17.389  0.00  0.00    +0.000 A 
ATOM      3  C   UNL     1       4.869   5.618  16.337  0.00  0.00    +0.000 A 
ATOM      4  C   UNL     1       5.194   4.305  15.982  0.00  0.00    +0.000 A 
ATOM      5  C   UNL     1       4.641   3.250  16.726  0.00  0.00    +0.000 A 
ATOM      6  C   UNL     1       3.753   3.477  17.794  0.00  0.00    +0.000 A 
ENDROOT
BRANCH   4   7
ATOM      7  C   UNL     1       6.097   4.039  14.784  0.00  0.00    +0.000 C 
ATOM      8  C   UNL     1       5.278   3.554  13.575  0.00  0.00    +0.000 C 
ATOM      9  C   UNL     1       6.143   3.353  12.335  0.00  0.00    +0.000 C 
ATOM     10  C   UNL     1       6.954   4.602  12.004  0.00  0.00    +0.000 C 
ATOM     11  C   UNL     1       7.805   5.039  13.189  0.00  0.00    +0.000 C 
ATOM     12  C   UNL     1       6.948   5.283  14.429  0.00  0.00    +0.000 C 
BRANCH  12  13
ATOM     13  O   UNL     1       7.813   5.642  15.509  0.00  0.00    +0.000 OA
ATOM     14  H   UNL     1       8.404   6.351  15.208  0.00  0.00    +0.000 HD
ENDBRANCH  12  13
ENDBRANCH   4   7
BRANCH   6  15
ATOM     15  C   UNL     1       3.181   2.276  18.512  0.00  0.00    +0.000 C 
ATOM     16  F   UNL     1       3.347   2.293  19.856  0.00  0.00    +0.000 F 
ATOM     17  F   UNL     1       1.841   2.150  18.304  0.00  0.00    +0.000 F 
ATOM     18  F   UNL     1       3.732   1.103  18.089  0.00  0.00    +0.000 F 
ENDBRANCH   6  15
BRANCH   1  20
ATOM     19  N   UNL     1       1.742   5.421  20.001  0.00  0.00    +0.000 NA
ATOM     20  C   UNL     1       2.477   5.145  19.143  0.00  0.00    +0.000 C 
ENDBRANCH   1  20
TORSDOF 4
ENDMDL
